#------------------------------------------------------------------------------
#$Date: 2018-12-02 01:14:14 +0200 (Sun, 02 Dec 2018) $
#$Revision: 212283 $
#$URL: file:///home/coder/svn-repositories/cod/cif/7/12/26/7122680.cif $
#------------------------------------------------------------------------------
#
# This file is available in the Crystallography Open Database (COD),
# http://www.crystallography.net/
#
# All data on this site have been placed in the public domain by the
# contributors.
#
data_7122680
loop_
_publ_author_name
'Yang, Xiya'
'Zhu, Pei-Pei'
'Ren, Jing'
'Chen, Yu-Hao'
'Li, Xiao'
'Sha, Jing-Quan'
'Jiang, Jianzhuang'
_publ_section_title
;
 Surfactant-assisted Synthesis and Electrochemical Properties of
 Unprecedented Polyoxometalate-constituting Metal-Organic Nanocaged
 Framework
;
_journal_name_full               'Chemical Communications'
_journal_paper_doi               10.1039/C8CC08559E
_journal_year                    2018
_chemical_formula_moiety         'C4 N6 Zn'
_chemical_formula_sum            'C4 N6 Zn'
_chemical_formula_weight         197.49
_space_group_crystal_system      orthorhombic
_space_group_IT_number           62
_space_group_name_Hall           '-P 2ac 2n'
_space_group_name_H-M_alt        'P n m a'
_symmetry_space_group_name_Hall  '-P 2ac 2n'
_symmetry_space_group_name_H-M   'P n m a'
_audit_creation_method           SHELXL-2014/7
_audit_update_record
;
2018-06-22 deposited with the CCDC.
2018-11-30 downloaded from the CCDC.
;
_cell_angle_alpha                90
_cell_angle_beta                 90
_cell_angle_gamma                90
_cell_formula_units_Z            8
_cell_length_a                   7.6129(9)
_cell_length_b                   9.9821(11)
_cell_length_c                   17.5064(19)
_cell_measurement_reflns_used    7601
_cell_measurement_temperature    296(2)
_cell_measurement_theta_max      27.621
_cell_measurement_theta_min      2.327
_cell_volume                     1330.4(3)
_computing_cell_refinement       'Bruker XSCANS'
_computing_data_collection       'Bruker XSCANS'
_computing_data_reduction        'Bruker SHELXTL'
_computing_molecular_graphics    'Bruker SHELXTL'
_computing_publication_material  'Bruker SHELXTL'
_computing_structure_refinement  'SHELXL-2014/7 (Sheldrick, 2014)'
_computing_structure_solution    'Bruker SHELXTL'
_diffrn_ambient_temperature      296(2)
_diffrn_measured_fraction_theta_full 1.000
_diffrn_measured_fraction_theta_max 0.994
_diffrn_measurement_device_type  'Bruker P4'
_diffrn_measurement_method       '\w scans'
_diffrn_radiation_type           MoK\a
_diffrn_radiation_wavelength     0.71073
_diffrn_reflns_av_R_equivalents  0.0284
_diffrn_reflns_av_unetI/netI     0.0222
_diffrn_reflns_Laue_measured_fraction_full 1.000
_diffrn_reflns_Laue_measured_fraction_max 0.994
_diffrn_reflns_limit_h_max       9
_diffrn_reflns_limit_h_min       -8
_diffrn_reflns_limit_k_max       12
_diffrn_reflns_limit_k_min       -13
_diffrn_reflns_limit_l_max       22
_diffrn_reflns_limit_l_min       -14
_diffrn_reflns_number            7601
_diffrn_reflns_point_group_measured_fraction_full 1.000
_diffrn_reflns_point_group_measured_fraction_max 0.994
_diffrn_reflns_theta_full        25.242
_diffrn_reflns_theta_max         27.621
_diffrn_reflns_theta_min         2.327
_diffrn_source                   'sealed tube'
_exptl_absorpt_coefficient_mu    3.622
_exptl_absorpt_correction_type   multi-scan
_exptl_absorpt_process_details   'SADABS (Sheldrick,1996)'
_exptl_crystal_colour            colorless
_exptl_crystal_density_diffrn    1.972
_exptl_crystal_description       block
_exptl_crystal_F_000             768.0
_exptl_crystal_size_max          0.4
_exptl_crystal_size_mid          0.32
_exptl_crystal_size_min          0.2
_exptl_transmission_factor_max   0.485
_exptl_transmission_factor_min   0.259
_refine_diff_density_max         3.332
_refine_diff_density_min         -0.940
_refine_diff_density_rms         0.202
_refine_ls_extinction_method     none
_refine_ls_goodness_of_fit_ref   1.061
_refine_ls_hydrogen_treatment    undef
_refine_ls_matrix_type           full
_refine_ls_number_parameters     125
_refine_ls_number_reflns         1621
_refine_ls_number_restraints     34
_refine_ls_restrained_S_all      1.057
_refine_ls_R_factor_all          0.0650
_refine_ls_R_factor_gt           0.0570
_refine_ls_shift/su_max          0.000
_refine_ls_shift/su_mean         0.000
_refine_ls_structure_factor_coef Fsqd
_refine_ls_weighting_details
'w=1/[\s^2^(Fo^2^)+(0.0882P)^2^+13.2201P] where P=(Fo^2^+2Fc^2^)/3'
_refine_ls_weighting_scheme      calc
_refine_ls_wR_factor_gt          0.1604
_refine_ls_wR_factor_ref         0.1681
_reflns_Friedel_coverage         0.000
_reflns_number_gt                1417
_reflns_number_total             1630
_reflns_threshold_expression     'I > 2\s(I)'
_cod_data_source_file            c8cc08559e2.cif
_cod_data_source_block           zn-trz
_cod_database_code               7122680
_shelx_shelxl_version_number     2014/7
_shelx_space_group_comment
;
The symmetry employed for this shelxl refinement is uniquely defined
by the following loop, which should always be used as a source of
symmetry information in preference to the above space-group names.
They are only intended as comments.
;
_shelx_res_file
;

    shelx.res created by SHELXL-2014/7

TITL SIR2004 run in space group P n m a
CELL  0.71073   7.6129   9.9821  17.5064   90.000   90.000   90.000
ZERR     8.00   0.0009   0.0011   0.0019    0.000    0.000    0.000
LATT   1
SYMM  1/2 - X, - Y, 1/2 + Z
SYMM  1/2 + X, 1/2 - Y, 1/2 - Z
SYMM  - X, 1/2 + Y, - Z
SFAC  C    H    N    ZN   O
UNIT  21 21 21 21 0
MERG   2
DELU     3.800   3.800 N9 C5 N8 C6 N7
isor  0.01 N9 C5 N8 C6
FMAP   2
PLAN   10
ACTA
BOND   $H
CONF
L.S.  40
TEMP    23.00
WGHT    0.088200   13.220100
FVAR       0.11369
ZN1   4    0.010909    0.250000    0.737214    10.50000    0.01173    0.01868 =
         0.01650    0.00000    0.00023    0.00000
ZN2   4   -0.151779    0.750000    0.919183    10.50000    0.02730    0.01598 =
         0.01402    0.00000    0.00040    0.00000
N3    3   -0.159786    0.250000    0.641995    10.50000    0.01886    0.03432 =
         0.01769    0.00000    0.00023    0.00000
N4    3    0.179626    0.098239    0.690910    11.00000    0.01403    0.02519 =
         0.02427   -0.00553   -0.00077    0.00074
N6    3   -0.210566    0.750000    1.029328    10.50000    0.02363    0.02911 =
         0.01428    0.00000    0.00046    0.00000
N5    3   -0.205144    0.583005    0.861440    11.00000    0.02384    0.02182 =
         0.02049   -0.00527    0.00093   -0.00299
N1    3   -0.145832    0.405084    0.790210    11.00000    0.01433    0.02507 =
         0.02801   -0.00639    0.00223   -0.00044
N2    3    0.161651    0.250000    0.845432    10.50000    0.01251    0.04236 =
         0.01542    0.00000    0.00162    0.00000
C3    1   -0.363353    0.750000    1.066893    10.50000    0.02507    0.04401 =
         0.01415    0.00000   -0.00197    0.00000
C2    1   -0.349878    0.509747    0.851143    11.00000    0.02320    0.02643 =
         0.02984   -0.00847    0.00407    0.00144
C1    1   -0.082907    0.514634    0.822789    11.00000    0.02278    0.02435 =
         0.03661   -0.01059    0.00200   -0.00580
C4    1    0.090515    0.250000    0.914957    10.50000    0.01788    0.04671 =
         0.01656    0.00000    0.00186    0.00000
AFIX   9
N9    3    0.247515    0.660293    0.897701    10.50000    0.49731    0.50251 =
         0.50258   -0.00130   -0.00135    0.00149
C5    1    0.384381    0.728729    0.917861    10.50000    0.00709    0.01560 =
         0.04398   -0.00423   -0.00354    0.00590
N8    3    0.330734    0.840760    0.946953    10.50000    0.41472    0.41345 =
         0.40711    0.01116   -0.00227    0.00039
C6    1    0.160715    0.841564    0.944774    10.50000    0.16552    0.17693 =
         0.15633    0.03338    0.00174   -0.01249
N7    3    0.111065    0.721256    0.913478    10.50000    0.01965    0.02272 =
         0.14505   -0.00717   -0.00264   -0.00311
AFIX   0
HKLF    4

REM  SIR2004 run in space group P n m a
REM R1 =  0.0570 for    1417 Fo > 4sig(Fo)  and  0.0650 for all    1621 data
REM    125 parameters refined using     34 restraints

END

WGHT      0.0878     11.2323

REM Highest difference peak  3.332,  deepest hole -0.940,  1-sigma level  0.202
Q1    1   0.2377  0.7500  0.9234  10.50000  0.05    3.33
Q2    1   0.2006  0.7500  0.8267  10.50000  0.05    2.05
Q3    1   0.1929  0.8927  0.9687  11.00000  0.05    2.04
Q4    1   0.4333  0.7500  0.9215  10.50000  0.05    1.01
Q5    1  -0.0234  0.2500  0.9196  10.50000  0.05    0.95
Q6    1   0.3777  0.7500  0.8882  10.50000  0.05    0.95
Q7    1  -0.4831  0.7500  1.0411  10.50000  0.05    0.93
Q8    1   0.0209  0.5394  0.8157  11.00000  0.05    0.81
Q9    1  -0.4472  0.5234  0.8729  11.00000  0.05    0.79
Q10   1   0.1120  0.7500  0.9580  10.50000  0.05    0.72
;
_shelx_res_checksum              84620
_shelx_hkl_file
;
   1   0   0   -0.03    0.08
   2   0   0   40.22    0.89
   3   0   0    0.17    0.23
   4   0   0   56.90    1.42
   5   0   0   -0.01    0.31
   6   0   0  214.62    4.02
   7   0   0    0.30    0.46
   8   0   0   21.56    1.24
   9   0   0   -1.48    0.49
   0  -1   0   -0.71    0.07
   1  -1   0    0.05    0.11
  -1  -1   0   -0.08    0.09
   2   1   0  167.61    2.60
  -2   1   0  164.56    2.70
   2  -1   0  167.96    2.61
   3  -1   0   -0.14    0.23
   3   1   0    0.04    0.22
   4   1   0   18.26    0.76
   5   1   0   -0.23    0.28
   5  -1   0    0.14    0.33
   6   1   0    4.11    0.62
   6  -1   0    3.23    0.58
   7  -1   0   -0.19    0.42
   7   1   0   -0.20    0.39
   8  -1   0   21.33    1.22
   8   1   0   19.83    1.20
   9  -1   0   -0.62    0.50
   9   1   0    0.19    0.58
   0  -2   0  893.24   12.59
   1  -2   0    0.06    0.16
  -1  -2   0   -0.24    0.12
  -1   2   0    0.28    0.18
  -2  -2   0   25.01    0.67
  -2   2   0   25.25    0.77
   3  -2   0   -0.23    0.22
   3   2   0   -0.18    0.19
  -3   2   0   -0.05    0.30
   4   2   0    0.73    0.28
   4  -2   0    0.78    0.33
   5  -2   0   -0.20    0.33
   5   2   0    0.06    0.30
   6  -2   0  102.32    2.42
   6   2   0  104.25    2.45
   7   2   0   -0.10    0.44
   7  -2   0   -0.19    0.45
   8   2   0   43.56    1.71
   8  -2   0   40.78    1.67
   9  -2   0    0.01    0.60
   9   2   0   -0.26    0.56
   0   3   0   -0.58    0.16
   0  -3   0   -0.94    0.13
   1   3   0    0.11    0.12
  -1   3   0   -0.13    0.16
  -1  -3   0    0.12    0.14
   1  -3   0    0.03    0.15
  -2  -3   0  124.21    2.10
   2  -3   0  125.49    2.11
  -2   3   0  125.20    2.25
   3  -3   0   -0.18    0.24
   3   3   0   -0.08    0.20
  -3   3   0    0.72    0.36
  -3  -3   0   -0.27    0.19
  -4   3   0    0.16    0.37
   4   3   0    0.30    0.27
   4  -3   0    0.07    0.31
   5   3   0    0.28    0.31
   5  -3   0   -0.11    0.34
   6   3   0    8.60    0.78
   6  -3   0    7.56    0.77
   7   3   0   -0.12    0.39
   7  -3   0    0.18    0.46
   8  -3   0   42.21    1.68
   8   3   0   37.47    1.65
   9  -3   0   -0.70    0.53
   9   3   0   -0.11    0.53
   0  -4   0 1000.00   13.54
   0   4   0  983.62   14.01
  -1  -4   0   -0.08    0.15
   1  -4   0    0.12    0.19
  -1   4   0    0.47    0.21
   1   4   0    0.09    0.13
  -2   4   0   80.87    1.74
   2  -4   0   83.96    1.60
  -2  -4   0   83.03    1.59
   3  -4   0   -0.07    0.24
  -3   4   0   -0.26    0.30
  -3  -4   0   -0.07    0.20
   4   4   0    4.81    0.50
   4  -4   0    5.54    0.55
  -4   4   0    5.45    0.68
   5  -4   0   -0.26    0.36
   5   4   0    0.21    0.35
   6  -4   0   63.20    1.83
   6   4   0   67.67    1.91
   7  -4   0   -0.74    0.47
   7   4   0    0.31    0.42
   8   4   0   30.51    1.49
   8  -4   0   33.62    1.51
   9  -4   0    0.28    0.61
   9   4   0   -0.57    0.55
   0  -5   0    0.00    0.17
   0   5   0   -0.04    0.19
  -1   5   0    0.19    0.22
  -1  -5   0   -0.04    0.17
   1  -5   0    0.39    0.22
   1   5   0   -0.14    0.15
  -2   5   0  110.79    2.20
   2  -5   0  109.56    2.02
   2   5   0  107.63    1.91
  -2  -5   0  105.61    2.01
  -3  -5   0    0.22    0.24
  -3   5   0    0.06    0.35
   3  -5   0    0.05    0.28
  -4  -5   0    7.14    0.59
   4  -5   0    6.41    0.59
  -4   5   0    5.94    0.71
   5   5   0   -0.33    0.30
  -5   5   0    0.41    0.62
   5  -5   0   -0.35    0.40
   6   5   0    1.15    0.43
   6  -5   0    1.99    0.55
   7   5   0   -0.10    0.39
   7  -5   0   -0.09    0.50
   8  -5   0    9.71    1.02
   8   5   0   10.55    1.05
   0   6   0  782.48   11.39
   0  -6   0  782.14   10.99
   1   6   0   -0.25    0.17
  -1  -6   0   -0.05    0.21
   1  -6   0    0.11    0.21
  -1   6   0    0.29    0.28
  -2  -6   0    1.26    0.29
   2   6   0    1.51    0.26
   2  -6   0    0.91    0.29
  -2   6   0    2.04    0.43
   3   6   0   -0.13    0.17
  -3  -6   0    0.22    0.25
   3  -6   0   -0.24    0.27
  -3   6   0    0.19    0.43
   4  -6   0   -0.19    0.36
  -4   6   0   -0.04    0.48
  -4  -6   0    0.39    0.34
   5  -6   0    0.20    0.37
  -5   6   0    0.24    0.58
   5   6   0   -0.04    0.33
   6  -6   0  116.78    2.66
   6   6   0  110.70    2.67
   7   6   0   -0.54    0.41
   7  -6   0   -0.08    0.50
   8  -6   0   12.24    1.12
   8   6   0   11.37    1.09
   0  -7   0    0.19    0.25
   0   7   0   -0.30    0.27
   1  -7   0    0.26    0.28
  -1   7   0    0.63    0.33
  -1  -7   0    0.15    0.26
   1   7   0    0.16    0.24
   2   7   0   62.18    1.43
  -2   7   0   61.73    1.69
   2  -7   0   64.01    1.52
  -2  -7   0   60.23    1.50
   3  -7   0    0.69    0.36
  -3  -7   0   -0.28    0.26
  -3   7   0   -0.04    0.45
  -4   7   0   10.69    0.98
  -4  -7   0   12.98    0.74
   4  -7   0   12.91    0.80
  -5   7   0    0.62    0.60
   5   7   0   -0.11    0.31
   5  -7   0    0.19    0.38
   6  -7   0    3.01    0.60
   6   7   0    3.15    0.58
  -6   7   0    2.84    0.80
   7   7   0   -0.43    0.43
   7  -7   0    0.53    0.53
   8  -7   0   10.18    1.07
   0  -8   0  344.32    5.41
   0   8   0  343.67    5.63
  -1   8   0    0.23    0.39
   1   8   0    0.32    0.29
   1  -8   0   -0.06    0.27
  -1  -8   0   -0.14    0.29
   2  -8   0   12.26    0.70
  -2  -8   0   10.99    0.67
   2   8   0   12.00    0.70
  -2   8   0   12.63    0.97
   3  -8   0    0.02    0.33
  -3  -8   0   -0.33    0.30
  -3   8   0    0.43    0.52
   4  -8   0    2.10    0.46
  -4  -8   0    1.95    0.46
  -4   8   0    1.86    0.65
  -5   8   0   -0.12    0.61
   5  -8   0   -0.27    0.40
  -5  -8   0    0.59    0.43
  -6   8   0   48.45    2.11
   6   8   0   52.56    1.79
   6  -8   0   54.02    1.77
   7   8   0   -0.04    0.41
   7  -8   0    0.74    0.56
   0   9   0   -0.66    0.32
   0  -9   0    0.36    0.33
   1  -9   0    0.08    0.30
  -1   9   0   -0.23    0.38
   1   9   0    0.15    0.32
  -1  -9   0    0.02    0.31
  -2   9   0   38.86    1.48
  -2  -9   0   38.22    1.27
   2  -9   0   37.00    1.25
   3  -9   0    0.20    0.36
  -3   9   0   -0.09    0.50
  -3  -9   0   -0.24    0.32
   4  -9   0    0.89    0.43
  -4   9   0   -0.11    0.62
  -4  -9   0    0.28    0.39
  -5  -9   0    0.58    0.42
   5  -9   0    0.34    0.45
  -5   9   0   -0.74    0.61
  -6   9   0    1.80    0.82
   6   9   0    1.29    0.52
   6  -9   0    2.02    0.59
   7  -9   0    0.48    0.52
   0  10   0   54.06    1.68
   0 -10   0   54.19    1.57
   1 -10   0    0.39    0.37
  -1 -10   0    0.07    0.34
  -1  10   0   -0.57    0.39
   2 -10   0   13.96    0.83
  -2  10   0   12.59    1.05
  -2 -10   0   14.94    0.84
   3 -10   0   -0.12    0.37
  -3  10   0    0.35    0.58
  -3 -10   0    0.45    0.39
   4 -10   0    2.64    0.57
  -4 -10   0    2.89    0.58
  -4  10   0    1.68    0.74
  -5  10   0   -1.86    0.62
   5 -10   0    0.47    0.46
  -5 -10   0   -0.76    0.41
   6 -10   0   22.14    1.28
   6  10   0   21.28    1.26
  -6  10   0   22.45    1.72
   0  11   0   -0.61    0.43
   0 -11   0   -0.03    0.37
  -1  11   0   -0.33    0.50
  -1 -11   0    0.36    0.37
   1 -11   0    0.04    0.37
   2 -11   0   22.82    1.09
  -2  11   0   21.79    1.38
  -2 -11   0   22.55    1.07
   3 -11   0    0.68    0.43
  -3  11   0   -0.96    0.62
  -3 -11   0    0.01    0.41
   4 -11   0    3.98    0.63
  -4  11   0    4.34    0.97
  -4 -11   0    2.93    0.63
  -5 -11   0   -0.48    0.41
  -5  11   0   -0.40    0.75
   5 -11   0    0.69    0.51
   0 -12   0  120.43    2.80
  -1 -12   0    0.08    0.41
  -1  12   0   -0.51    0.56
   1 -12   0    0.35    0.41
  -2 -12   0    0.90    0.51
   2 -12   0    0.41    0.45
  -2  12   0   -0.06    0.62
  -3  12   0   -1.51    0.68
  -3 -12   0    0.03    0.44
   3 -12   0    0.25    0.45
   0 -13   0   -0.35    0.44
   1   0  -1   76.90    1.20
   1   0   1   76.38    1.21
   2   0  -1   29.43    0.71
  -2   0   1   28.41    0.69
   2   0   1   28.05    0.72
   3   0  -1  129.04    2.25
   3   0   1  125.28    2.24
   4   0  -1    8.88    0.61
   4   0   1    9.27    0.59
   5   0  -1    1.64    0.41
   5   0   1    1.75    0.42
   6   0   1   31.95    1.25
   6   0  -1   29.54    1.21
   7   0  -1   -0.22    0.45
   7   0   1   -0.05    0.44
   8   0   1    3.90    0.72
   8   0  -1    3.12    0.71
   9   0   1    0.22    0.56
   9   0  -1   -0.50    0.58
   0  -1  -1  151.59    2.07
   0  -1   1  149.55    2.12
   1  -1   1  101.98    1.57
   1   1   1   99.63    1.54
   1  -1  -1  100.95    1.54
  -1  -1   1  101.16    1.55
  -2   1   1  152.41    2.32
  -2   1   1  149.84    2.44
   2   1  -1  150.77    2.40
  -2  -1   1  148.50    2.41
   2  -1  -1  156.07    2.41
   2   1   1  154.21    2.41
   3   1  -1    1.43    0.27
  -3   1   1    0.85    0.31
   3  -1   1    1.47    0.29
   3   1   1    1.26    0.26
   3  -1  -1    1.25    0.29
   4  -1   1   77.80    1.73
   4   1  -1   76.51    1.71
   4  -1  -1   79.86    1.75
   4   1   1   79.29    1.74
   5  -1   1   54.86    1.52
   5   1  -1   55.16    1.53
   5   1   1   52.85    1.50
   5  -1  -1   50.40    1.47
   6  -1   1   55.46    1.70
   6   1  -1   55.90    1.68
   6  -1  -1   57.98    1.69
   6   1   1   52.57    1.65
   7  -1   1    8.42    0.86
   7   1  -1    7.83    0.83
   7   1   1    7.35    0.80
   7  -1  -1    6.89    0.79
   8   1  -1    9.30    1.00
   8  -1   1   11.21    1.06
   8   1   1   10.38    1.02
   8  -1  -1    8.40    0.94
   9  -1   1    1.45    0.68
   9   1  -1   -0.05    0.60
   9  -1  -1    0.94    0.64
   9   1   1   -0.14    0.53
   0  -2   1   -0.09    0.10
   0   2   1    0.07    0.10
   0  -2  -1    0.01    0.09
   1  -2   1   30.48    0.69
  -1  -2  -1   31.47    0.65
  -1   2   1   30.49    0.70
  -1  -2   1   29.20    0.68
   1  -2  -1   29.99    0.65
   2  -2   1    3.84    0.35
  -2  -2  -1    2.93    0.29
  -2   2   1    3.97    0.36
  -2   2   1    3.75    0.27
  -2  -2   1    3.39    0.30
   2   2   1    3.33    0.30
   2  -2  -1    3.63    0.33
   3   2  -1  106.41    1.95
  -3   2   1  102.71    2.01
   3   2   1  103.74    1.95
   3  -2  -1  103.68    1.94
   4   2  -1   44.53    1.23
   4  -2   1   43.93    1.23
  -4   2   1   46.18    1.30
   4   2   1   43.44    1.22
   4  -2  -1   46.31    1.26
   5  -2   1    1.13    0.43
   5   2  -1    0.87    0.35
   5  -2  -1    0.42    0.38
   5   2   1    0.94    0.39
   6   2  -1   23.98    1.10
   6  -2   1   26.69    1.17
   6   2   1   26.87    1.16
   6  -2  -1   24.66    1.16
   7   2  -1    6.37    0.77
   7  -2   1    7.82    0.86
   7  -2  -1    7.63    0.84
   7   2   1    7.58    0.83
   8   2  -1    2.21    0.66
   8  -2   1    1.16    0.60
   8   2   1    0.80    0.58
   8  -2  -1    1.09    0.59
   9  -2   1    2.24    0.76
   9   2  -1    2.47    0.76
   9  -2  -1    4.08    0.87
   9   2   1    3.14    0.76
   0  -3   1   31.40    0.70
   0   3  -1   31.40    0.71
   0   3   1   32.05    0.73
   0  -3  -1   30.89    0.66
   1   3  -1  114.79    1.82
  -1  -3  -1  114.88    1.86
  -1   3   1  116.17    1.99
   1  -3   1  119.19    1.92
   1  -3  -1  117.02    1.87
  -1   3  -1  115.90    2.02
  -2   3   1  158.15    2.71
   2  -3   1  159.37    2.61
  -2  -3  -1  158.94    2.57
   2  -3  -1  163.88    2.58
  -2  -3   1  164.44    2.61
  -3   3   1    3.24    0.42
   3  -3   1    4.20    0.43
   3  -3  -1    3.86    0.39
   3   3   1    4.16    0.39
  -3  -3   1    3.04    0.35
  -3   3  -1    3.91    0.49
  -4   3   1  181.66    3.35
   4  -3   1  179.88    3.20
   4   3  -1  181.23    3.22
   4   3   1  179.08    3.21
   4  -3  -1  189.72    3.22
   5   3  -1   74.98    1.87
   5  -3   1   73.23    1.85
   5   3   1   77.09    1.88
   5  -3  -1   75.93    1.87
   6  -3   1    9.31    0.82
   6   3  -1    8.07    0.78
   6   3   1    9.43    0.83
   6  -3  -1    9.87    0.83
   7  -3   1   10.85    0.97
   7   3  -1    9.23    0.87
   7  -3  -1    9.02    0.87
   7   3   1    8.56    0.87
   8   3  -1    7.63    0.91
   8  -3   1    8.09    0.94
   8  -3  -1    8.86    0.95
   8   3   1    6.64    0.85
   9   3  -1    3.53    0.78
   9  -3   1    1.54    0.68
   9  -3  -1    2.05    0.78
   9   3   1    2.99    0.77
   0   4  -1    0.49    0.19
   0  -4  -1   -0.20    0.14
   0   4   1    0.09    0.15
   0  -4   1   -0.07    0.16
   1   4  -1   16.84    0.50
  -1  -4  -1   16.58    0.54
   1  -4   1   16.05    0.57
  -1   4   1   17.24    0.62
  -1  -4   1   17.09    0.57
   1  -4  -1   17.23    0.57
   1   4   1   16.59    0.55
  -1   4  -1   17.34    0.65
  -2  -4  -1    2.21    0.28
   2   4  -1    2.18    0.21
   2  -4   1    2.18    0.32
  -2   4   1    2.44    0.36
  -2  -4   1    2.87    0.32
   2  -4  -1    1.84    0.30
  -2   4  -1    2.64    0.40
  -3   4   1   34.68    1.10
   3  -4   1   34.35    1.01
  -3  -4  -1   35.80    0.99
   3  -4  -1   34.92    1.00
  -3   4  -1   37.15    1.21
  -3  -4   1   35.25    0.99
   4  -4   1    5.96    0.57
   4   4  -1    5.53    0.53
  -4   4   1    6.78    0.70
   4   4   1    6.72    0.59
  -4   4  -1    7.71    0.78
   4  -4  -1    6.97    0.59
  -5   4   1   -0.11    0.49
   5   4  -1    0.23    0.32
   5  -4   1    0.33    0.38
   5   4   1    0.05    0.34
   5  -4  -1    0.04    0.36
   6  -4   1    9.28    0.83
   6   4  -1    9.43    0.84
   6   4   1   10.59    0.80
   6  -4  -1    9.55    0.83
   7  -4   1    1.38    0.58
   7   4  -1    0.67    0.45
   7  -4  -1    0.01    0.46
   7   4   1    0.68    0.48
   8  -4   1    2.87    0.72
   8   4  -1    2.32    0.67
   8   4   1    2.06    0.63
   8  -4  -1    2.75    0.67
   9  -4   1    2.01    0.72
   9   4  -1    0.53    0.59
   9   4   1    1.60    0.67
   9  -4  -1    0.73    0.66
   0   5   1   17.41    0.66
   0   5   1   17.93    0.44
   0   5  -1   17.95    0.64
   0  -5   1   18.00    0.62
   0  -5  -1   18.06    0.60
   1   5  -1  111.81    1.96
  -1   5   1  111.07    2.11
  -1  -5  -1  109.67    1.95
   1  -5   1  111.58    2.02
   1   5   1  108.82    2.00
   1  -5  -1  114.92    1.98
  -1   5  -1  111.01    2.13
  -1  -5   1  111.19    2.00
   2  -5   1   88.20    1.77
  -2  -5  -1   92.51    1.76
  -2   5   1   88.12    1.89
   2   5  -1   90.26    1.61
   2   5   1   89.87    1.70
  -2  -5   1   87.64    1.75
  -2   5  -1   90.30    1.96
   2  -5  -1   87.75    1.73
   3  -5   1    1.21    0.34
  -3  -5  -1    1.00    0.29
  -3   5   1    0.82    0.38
  -3   5  -1    1.38    0.44
  -3  -5   1    1.35    0.31
   3  -5  -1    1.57    0.35
  -4   5   1   75.84    1.98
  -4  -5  -1   73.91    1.73
   4  -5   1   72.37    1.75
  -4   5  -1   73.77    2.02
   4  -5  -1   73.19    1.73
   4   5   1   75.52    1.76
  -4  -5   1   72.62    1.74
   5  -5   1   38.98    1.34
   5   5  -1   36.71    1.28
  -5   5   1   37.86    1.52
   5   5   1   38.26    1.29
   5  -5  -1   36.11    1.27
   6  -5   1   22.92    1.11
   6   5  -1   22.46    1.09
   6   5   1   20.49    1.05
   6  -5  -1   21.05    1.06
   7  -5   1    4.21    0.73
   7   5  -1    3.98    0.67
   7   5   1    4.20    0.69
   7  -5  -1    4.26    0.71
   8  -5   1    8.66    1.00
   8   5  -1   10.04    1.00
   8  -5  -1    9.38    1.01
   8   5   1   10.78    1.04
   0   6   1   -0.01    0.11
   0   6  -1   -0.14    0.21
   0   6   1   -0.04    0.20
   0  -6  -1    0.11    0.19
   0  -6   1    0.09    0.21
   1   6  -1   19.22    0.70
   1  -6   1   18.36    0.73
  -1   6   1   20.07    0.80
  -1  -6  -1   18.78    0.68
  -1   6  -1   19.21    0.81
   1  -6  -1   18.41    0.69
   1   6   1   18.63    0.71
  -1  -6   1   18.65    0.71
  -2  -6  -1   16.00    0.70
   2  -6   1   17.22    0.75
   2   6  -1   16.96    0.61
   2   6   1   17.03    0.67
  -2   6  -1   15.26    0.90
  -2  -6   1   14.96    0.70
   2  -6  -1   14.89    0.68
   3  -6   1   68.82    1.64
  -3   6   1   68.90    1.82
  -3  -6  -1   70.20    1.64
  -3   6  -1   72.66    1.95
   3  -6  -1   69.32    1.62
  -3  -6   1   73.55    1.67
  -4  -6  -1   34.12    1.12
  -4   6   1   31.63    1.33
   4  -6   1   32.47    1.13
   4  -6  -1   30.10    1.12
  -4  -6   1   31.58    1.10
  -4   6  -1   29.85    1.46
   5  -6   1    1.88    0.51
  -5   6   1    1.83    0.64
   5   6  -1    2.12    0.45
  -5   6  -1    3.01    0.75
   5   6   1    1.96    0.44
   5  -6  -1    1.22    0.44
   6  -6   1   18.78    1.08
  -6   6   1   19.68    1.38
   6   6  -1   19.94    1.08
   6  -6  -1   22.01    1.08
   6   6   1   19.72    1.08
   7   6  -1    3.81    0.67
   7  -6   1    3.02    0.64
   7  -6  -1    3.69    0.67
   7   6   1    3.48    0.68
   8  -6   1    0.29    0.58
   8   6  -1    0.25    0.53
   8  -6  -1    0.24    0.58
   8   6   1    0.57    0.53
   0  -7  -1   82.97    1.77
   0   7   1   90.13    1.94
   0   7  -1   89.55    1.92
   0  -7   1   86.37    1.83
  -1  -7  -1   34.63    1.02
   1  -7   1   31.78    1.03
  -1   7   1   32.90    1.12
   1   7  -1   34.60    1.02
   1   7   1   35.07    1.06
   1  -7  -1   32.70    0.98
  -1   7  -1   33.42    1.18
  -1  -7   1   35.26    1.06
  -2   7   1   50.21    1.52
   2  -7   1   51.98    1.37
   2   7  -1   51.99    1.25
  -2  -7  -1   53.61    1.34
   2  -7  -1   48.74    1.31
  -2   7  -1   51.56    1.56
   2   7   1   51.58    1.30
  -2  -7   1   52.34    1.37
   3  -7   1    0.58    0.35
  -3  -7  -1    0.71    0.34
  -3   7   1    0.71    0.46
   3  -7  -1   -0.10    0.32
   3   7   1    1.09    0.29
  -3   7  -1    0.54    0.50
  -3  -7   1    0.54    0.33
  -4   7   1   23.34    1.25
   4  -7   1   24.56    1.02
  -4  -7  -1   22.84    0.97
  -4   7  -1   26.34    1.43
  -4  -7   1   24.88    1.00
   4  -7  -1   24.07    0.99
   5  -7   1   17.05    0.94
  -5   7   1   16.68    1.25
  -5   7  -1   17.40    1.32
   5   7   1   17.32    0.96
   5  -7  -1   18.71    0.95
  -5  -7   1   18.85    0.97
   6  -7   1   21.13    1.11
   6   7  -1   20.38    1.12
  -6   7   1   20.42    1.37
   6  -7  -1   21.64    1.10
   6   7   1   21.70    1.11
   7   7  -1    1.21    0.51
   7  -7   1    0.74    0.53
   7  -7  -1    1.68    0.57
   7   7   1    1.92    0.60
   8  -7   1    6.37    0.91
   8  -7  -1    6.66    0.95
   8   7   1    3.98    0.75
   0  -8  -1   -0.09    0.26
   0   8   1    0.37    0.35
   0  -8   1    0.00    0.27
   0   8  -1    0.46    0.36
   1   8  -1    5.91    0.56
  -1  -8  -1    6.66    0.56
   1  -8   1    6.39    0.56
  -1   8   1    5.58    0.61
  -1   8  -1    5.55    0.66
   1   8   1    5.93    0.57
   1  -8  -1    7.50    0.59
  -1  -8   1    5.77    0.55
  -2  -8  -1    2.02    0.39
  -2   8   1    2.54    0.53
   2  -8   1    2.54    0.46
  -2   8  -1    1.32    0.53
  -2  -8   1    1.63    0.42
   2  -8  -1    2.23    0.42
   2   8   1    2.48    0.40
  -3   8   1   18.38    1.08
   3  -8   1   17.79    0.89
  -3  -8  -1   17.15    0.82
  -3  -8   1   17.09    0.85
  -3   8  -1   18.59    1.15
   3  -8  -1   18.63    0.87
  -4  -8  -1    1.43    0.43
  -4   8   1    1.25    0.59
   4  -8   1    1.71    0.47
  -4   8  -1    2.03    0.68
   4  -8  -1    1.64    0.43
  -4  -8   1    2.21    0.46
   5  -8   1    0.24    0.39
  -5  -8  -1    0.36    0.43
  -5   8   1    0.14    0.59
   5   8   1    0.33    0.38
  -5  -8   1   -0.46    0.34
  -5   8  -1   -0.66    0.57
   5  -8  -1    0.75    0.41
   6   8  -1    9.54    0.91
   6  -8   1    8.30    0.85
  -6   8   1    7.02    1.02
   6   8   1    8.90    0.87
   6  -8  -1    7.57    0.80
   7   8  -1    0.56    0.53
   7  -8   1    1.66    0.64
   7  -8  -1    0.56    0.51
   7   8   1    1.12    0.57
   0  -9  -1    3.49    0.49
   0   9   1    4.12    0.58
   0   9  -1    3.12    0.54
   0  -9   1    3.01    0.48
   1   9  -1   32.71    1.17
  -1   9   1   31.85    1.26
  -1  -9  -1   33.30    1.13
   1  -9   1   30.25    1.10
  -1  -9   1   33.21    1.15
  -1   9  -1   32.31    1.33
   1   9   1   32.94    1.20
   1  -9  -1   31.03    1.09
   2  -9   1   29.61    1.10
  -2   9   1   28.26    1.30
  -2  -9  -1   27.96    1.07
   2  -9  -1   28.95    1.08
  -2  -9   1   27.22    1.09
   2   9   1   26.99    1.05
  -2   9  -1   26.28    1.33
   3  -9   1    3.71    0.55
  -3   9   1    3.09    0.67
  -3  -9  -1    4.37    0.57
  -3  -9   1    3.51    0.52
  -3   9  -1    4.61    0.76
   3  -9  -1    3.41    0.50
  -4  -9  -1   52.32    1.60
  -4   9   1   50.33    1.88
   4  -9   1   50.34    1.57
  -4   9  -1   49.35    1.94
   4  -9  -1   51.57    1.54
  -4  -9   1   47.81    1.56
   5  -9   1   20.35    1.11
  -5   9   1   16.89    1.29
  -5  -9  -1   19.28    1.04
   5  -9  -1   19.52    1.07
  -5  -9   1   19.83    1.10
  -5   9  -1   20.55    1.42
   6  -9   1    3.80    0.71
   6   9  -1    3.40    0.65
  -6   9   1    4.88    0.98
   6   9   1    4.01    0.66
   6  -9  -1    3.66    0.66
   7  -9  -1    1.61    0.63
   0  10   1   -0.05    0.39
   0 -10  -1    0.24    0.34
   0 -10   1    0.30    0.33
   0  10  -1   -0.10    0.42
  -1  10   1    3.37    0.63
   1 -10   1    3.16    0.52
  -1 -10  -1    4.04    0.53
   1 -10  -1    3.39    0.49
  -1 -10   1    3.34    0.51
  -1  10  -1    2.53    0.63
   1  10   1    3.19    0.54
  -2  10   1    1.12    0.55
   2 -10   1    2.22    0.47
  -2 -10  -1    2.49    0.50
  -2 -10   1    1.63    0.46
  -2  10  -1    1.65    0.61
   2 -10  -1    1.17    0.39
  -3 -10  -1   17.49    0.94
   3 -10   1   15.98    0.94
  -3  10   1   14.96    1.22
  -3  10  -1   13.77    1.22
  -3 -10   1   16.26    0.95
   3 -10  -1   14.74    0.88
  -4 -10  -1   10.15    0.87
   4 -10   1    9.42    0.87
  -4  10   1    9.31    1.09
   4 -10  -1    9.29    0.81
  -4 -10   1    9.47    0.85
  -4  10  -1    7.18    1.03
   5 -10   1    0.18    0.46
  -5 -10  -1   -0.01    0.43
  -5  10   1   -1.00    0.61
   5 -10  -1    0.76    0.47
  -5  10  -1   -0.62    0.71
  -5 -10   1   -0.15    0.40
   6 -10   1    4.63    0.77
  -6  10   1    3.90    0.98
   6  10  -1    5.08    0.75
   6 -10  -1    6.21    0.83
   6  10   1    4.12    0.70
   0 -11  -1    8.07    0.75
   0  11   1    7.12    0.81
   0 -11   1    7.20    0.74
  -1  11   1   18.25    1.20
   1 -11   1   21.69    1.06
  -1 -11  -1   21.89    1.04
   1 -11  -1   19.09    0.99
  -1 -11   1   19.11    1.03
  -1  11  -1   17.12    1.22
   2 -11   1   22.97    1.11
  -2  11   1   25.69    1.43
  -2 -11  -1   25.68    1.16
  -2  11  -1   22.07    1.36
  -2 -11   1   24.29    1.13
   2 -11  -1   27.16    1.14
   3 -11   1    0.93    0.45
  -3 -11  -1    0.26    0.41
  -3  11   1   -0.20    0.61
   3 -11  -1    0.25    0.41
  -3 -11   1   -0.08    0.41
  -3  11  -1   -0.35    0.66
  -4  11   1   13.40    1.29
   4 -11   1   14.63    1.00
  -4 -11  -1   13.40    0.95
  -4  11  -1   14.07    1.41
   4 -11  -1   13.13    0.94
  -4 -11   1   13.79    0.99
  -5 -11  -1    7.15    0.85
  -5  11   1    8.10    1.24
  -5 -11   1    9.34    0.96
   5 -11  -1    9.43    0.91
  -5  11  -1    6.82    1.21
   0 -12   1    0.32    0.44
   0 -12  -1    0.51    0.43
   1 -12   1    3.23    0.61
  -1 -12  -1    2.58    0.54
  -1  12   1    2.33    0.73
  -1 -12   1    3.45    0.61
  -1  12  -1    1.32    0.71
   1 -12  -1    2.96    0.58
  -2 -12  -1    2.03    0.53
  -2  12   1    1.81    0.72
   2 -12   1    3.08    0.61
  -2 -12   1    3.01    0.62
   2 -12  -1    3.03    0.56
  -2  12  -1    1.07    0.77
  -3  12   1    7.10    1.09
   3 -12   1    8.52    0.86
  -3 -12  -1    8.71    0.87
  -3  12  -1    8.12    1.17
  -3 -12   1    7.13    0.81
   0 -13   1    4.08    0.70
   0   0   2  116.46    1.60
   1   0   2  107.77    1.64
   1   0  -2  107.77    1.62
  -2   0   2  185.09    2.81
   2   0   2  184.58    2.85
   2   0  -2  185.29    2.83
   3   0   2    0.23    0.25
   3   0  -2    0.13    0.22
  -3   0   2    0.51    0.21
   4   0  -2   83.23    1.81
   4   0   2   87.10    1.84
   5   0  -2   35.56    1.22
   5   0   2   34.97    1.22
   6   0  -2   46.14    1.53
   6   0   2   47.41    1.57
   7   0   2   20.39    1.12
   7   0  -2   19.83    1.10
   8   0   2    7.54    0.88
   8   0  -2    5.11    0.83
   9   0  -2    0.25    0.63
   9   0   2    0.22    0.57
   0  -1   2   -0.01    0.08
   0  -1  -2    0.05    0.04
  -1  -1   2   81.22    1.29
   1  -1  -2   80.72    1.25
   1   1   2   79.52    1.27
  -1  -1   2   80.79    1.31
  -2   1   2   16.87    0.52
   2  -1   2   16.34    0.59
   2   1  -2   16.84    0.53
  -2   1   2   17.11    0.51
  -2  -1   2   16.13    0.55
   2  -1  -2   16.80    0.55
   2   1   2   17.12    0.54
   3  -1   2   92.48    1.79
  -3   1   2   94.74    1.77
   3   1  -2   93.77    1.78
  -3   1   2   94.64    1.70
   3   1   2   96.72    1.81
   3  -1  -2   92.08    1.76
  -3  -1   2   89.68    1.76
   4   1  -2   21.16    0.81
   4  -1   2   22.04    0.84
   4   1   2   21.30    0.86
   4  -1  -2   20.71    0.84
   5  -1   2   16.64    0.85
   5   1  -2   15.80    0.82
   5   1   2   16.95    0.85
   5  -1  -2   17.16    0.88
   6   1  -2   24.62    1.12
   6  -1   2   24.05    1.11
   6   1   2   24.63    1.12
   6  -1  -2   25.91    1.18
   7  -1   2   15.34    1.04
   7   1  -2   14.43    1.02
   7  -1  -2   13.52    0.96
   7   1   2   14.12    0.97
   8  -1   2    1.03    0.57
   8   1  -2    0.50    0.57
   8   1   2    1.10    0.60
   8  -1  -2    1.31    0.60
   9  -1   2    0.05    0.57
   9   1  -2    0.01    0.56
   9  -1  -2    0.85    0.62
   9   1   2    1.08    0.64
   0  -2  -2   89.21    1.35
   0  -2   2   91.60    1.45
   0   2   2   91.51    1.51
  -1   2   2  160.06    2.54
  -1  -2  -2  162.24    2.40
  -1   2  -2  160.65    2.63
  -1  -2   2  163.13    2.45
   1  -2  -2  166.34    2.38
  -2   2   2  204.59    3.03
  -2   2   2  205.71    3.26
   2  -2   2  210.48    3.22
  -2  -2   2  210.72    3.18
   2   2   2  209.65    3.17
   2  -2  -2  204.47    3.14
  -3   2   2    6.72    0.39
  -3   2   2    7.28    0.51
   3  -2   2    7.45    0.50
  -3  -2   2    7.94    0.50
   3   2   2    6.38    0.44
   3  -2  -2    7.17    0.47
   4   2  -2  206.04    3.53
   4  -2   2  205.55    3.52
  -4   2   2  203.15    3.57
   4   2   2  201.83    3.50
   4  -2  -2  217.07    3.52
   5  -2   2    2.49    0.49
   5   2  -2    2.82    0.48
   5   2   2    3.19    0.49
   5  -2  -2    2.77    0.48
   6   2  -2   19.25    1.00
   6  -2   2   21.36    1.06
   6   2   2   19.85    1.03
   6  -2  -2   22.75    1.07
   7  -2   2    4.43    0.69
   7   2  -2    5.20    0.71
   7  -2  -2    6.63    0.79
   7   2   2    6.20    0.76
   8   2  -2   10.60    1.03
   8  -2   2   12.30    1.10
   8  -2  -2    9.25    0.98
   8   2   2   11.80    1.10
   9  -2   2    4.72    0.88
   9   2  -2    4.04    0.86
   9  -2  -2    3.53    0.80
   9   2   2    4.23    0.84
   0   3   2    0.05    0.13
   0   3  -2    0.24    0.18
   0  -3   2   -0.10    0.13
   0  -3  -2    0.14    0.12
   1  -3   2   26.15    0.70
  -1  -3  -2   27.94    0.64
  -1   3   2   27.08    0.73
   1  -3  -2   27.47    0.64
  -1   3  -2   26.78    0.83
  -1  -3   2   26.84    0.68
  -1  -3   2   27.31    0.69
  -2   3   2   19.08    0.69
   2  -3   2   17.78    0.63
  -2   3   2   17.46    0.46
  -2  -3  -2   18.08    0.58
  -2   3  -2   18.41    0.78
  -2  -3   2   17.26    0.60
   2  -3  -2   18.80    0.59
  -2  -3   2   17.53    0.62
  -3   3   2   11.93    0.45
  -3   3   2   12.07    0.68
   3  -3   2   11.36    0.62
   3  -3  -2   11.88    0.59
   3   3   2   11.68    0.58
  -3  -3   2   11.77    0.58
   4   3  -2   44.43    1.25
  -4   3   2   46.57    1.36
   4  -3   2   45.30    1.29
   4   3   2   45.22    1.26
   4  -3  -2   46.57    1.25
   5  -3   2    2.04    0.47
   5   3  -2    1.72    0.41
  -5   3   2    1.43    0.50
   5  -3  -2    1.14    0.41
   5   3   2    1.16    0.37
   6  -3   2    1.46    0.51
   6   3  -2    2.42    0.50
   6  -3  -2    1.94    0.51
   6   3   2    2.48    0.52
   7   3  -2   46.60    1.65
   7  -3   2   44.28    1.62
   7  -3  -2   46.35    1.64
   7   3   2   44.22    1.66
   8  -3   2    4.10    0.76
   8   3  -2    5.60    0.83
   8  -3  -2    4.75    0.81
   8   3   2    5.56    0.80
   9  -3   2    0.82    0.64
   9   3  -2    1.79    0.67
   9   3   2    1.20    0.67
   9  -3  -2    0.89    0.66
   0   4   2    1.01    0.21
   0  -4  -2    1.00    0.19
   0  -4   2    1.36    0.23
   0   4   2    0.94    0.14
   0   4  -2    1.19    0.23
  -1  -4  -2    2.99    0.28
   1   4  -2    3.30    0.25
   1  -4   2    2.38    0.29
  -1   4   2    3.87    0.35
   1   4   2    2.45    0.26
   1  -4  -2    2.67    0.26
  -1  -4   2    2.56    0.27
  -1   4  -2    2.96    0.37
  -1  -4   2    2.53    0.28
  -2   4   2  185.16    3.14
   2  -4   2  184.74    3.03
  -2  -4  -2  185.55    2.95
   2   4  -2  182.94    2.78
   2  -4  -2  181.64    2.93
  -2   4  -2  188.33    3.27
  -2  -4   2  183.79    3.01
   3  -4   2    8.47    0.32
  -3   4   2    7.88    0.58
  -3   4   2    8.43    0.37
   3  -4   2    9.27    0.57
  -3  -4  -2    8.75    0.53
   3  -4  -2   10.16    0.54
  -3  -4   2    8.83    0.55
  -3   4  -2    8.46    0.69
  -4   4   2  136.20    2.75
   4  -4   2  137.59    2.65
   4   4   2  134.93    2.61
  -4  -4   2  134.33    2.58
   4  -4  -2  136.93    2.57
  -5   4   2    7.76    0.82
   5  -4   2    6.60    0.67
   5   4  -2    6.64    0.65
   5  -4  -2    6.06    0.63
   5   4   2    6.63    0.64
   6   4  -2    5.60    0.69
   6  -4   2    4.46    0.65
   6  -4  -2    4.38    0.66
   6   4   2    5.07    0.64
   7   4  -2    2.16    0.56
   7  -4   2    1.73    0.57
   7   4   2    1.43    0.51
   7  -4  -2    2.50    0.61
   8   4  -2    8.67    0.96
   8  -4   2    6.35    0.90
   8  -4  -2    6.82    0.87
   8   4   2    8.00    0.94
   9   4  -2    3.43    0.79
   9  -4   2    4.55    0.90
   9  -4  -2    3.85    0.87
   9   4   2    2.44    0.79
   0  -5  -2    0.04    0.16
   0   5   2   -0.16    0.11
   0   5  -2    0.12    0.21
   0  -5   2    0.07    0.18
   0   5   2    0.15    0.18
   1  -5   2   37.38    1.00
  -1   5   2   38.20    1.06
  -1  -5  -2   36.90    0.91
   1   5  -2   37.57    0.90
  -1  -5   2   36.75    0.96
  -1   5  -2   36.64    1.10
   1  -5  -2   40.39    0.92
   1   5   2   38.03    0.97
  -2   5   2   12.83    0.70
  -2  -5  -2   12.92    0.56
   2  -5   2   12.14    0.61
   2   5  -2   11.28    0.44
  -2  -5   2   11.76    0.58
   2  -5  -2   13.37    0.59
  -2   5  -2   13.71    0.78
  -3  -5  -2   31.55    0.97
   3  -5   2   30.68    1.01
   3   5  -2   32.29    0.74
  -3   5   2   33.82    1.15
   3  -5  -2   32.27    0.99
  -3  -5   2   33.11    1.01
  -3   5  -2   33.01    1.26
  -4   5   2   25.21    1.15
   4  -5   2   22.96    0.96
   4  -5  -2   23.50    0.94
  -4  -5   2   24.14    0.96
   4   5   2   24.70    0.94
  -4   5  -2   25.46    1.27
   5   5  -2    3.83    0.54
   5  -5   2    4.17    0.62
  -5   5   2    3.74    0.68
   5  -5  -2    4.10    0.60
   5   5   2    4.07    0.55
   6   5  -2    9.20    0.82
   6  -5   2    8.16    0.80
  -6   5   2    7.69    0.90
   6   5   2    8.83    0.81
   6  -5  -2   10.31    0.87
   7   5  -2   12.85    1.06
   7  -5   2   12.12    1.01
   7  -5  -2   10.02    0.92
   7   5   2   10.50    0.95
   8   5  -2    1.05    0.55
   8  -5   2    1.91    0.64
   8  -5  -2    0.82    0.60
   8   5   2    0.47    0.50
   9  -5  -2   -0.13    0.62
   0   6  -2   13.72    0.67
   0  -6   2   13.62    0.60
   0   6   2   13.37    0.42
   0  -6  -2   14.21    0.58
   0   6   2   13.70    0.64
  -1   6   2   14.36    0.70
   1  -6   2   15.85    0.69
   1   6  -2   14.43    0.62
  -1  -6  -2   14.81    0.59
  -1  -6   2   13.64    0.63
  -1   6  -2   14.98    0.76
   1   6   2   13.81    0.62
   1  -6  -2   14.48    0.60
  -2  -6  -2   53.17    1.29
   2   6  -2   56.25    1.19
  -2   6   2   54.50    1.47
   2  -6   2   55.34    1.38
  -2   6  -2   58.03    1.59
   2  -6  -2   54.76    1.29
  -2  -6   2   57.21    1.38
   2   6   2   55.81    1.32
  -3  -6  -2    4.23    0.45
   3  -6   2    3.80    0.48
  -3   6   2    3.90    0.54
  -3   6  -2    5.59    0.73
  -3  -6   2    4.59    0.50
   3  -6  -2    3.89    0.45
  -4   6   2   68.39    1.91
   4  -6   2   69.14    1.77
  -4  -6  -2   69.87    1.71
   4  -6  -2   68.83    1.68
  -4   6  -2   71.43    2.09
  -4  -6   2   64.81    1.70
   5  -6   2   10.22    0.82
   5   6  -2   10.51    0.77
  -5   6   2   10.01    0.97
   5   6   2   10.24    0.76
   5  -6  -2   10.21    0.73
  -5  -6   2    8.55    0.73
   6  -6   2   25.99    1.19
   6   6  -2   26.55    1.21
  -6   6   2   25.69    1.46
   6   6   2   22.49    1.12
   6  -6  -2   25.18    1.14
   7   6  -2    8.26    0.89
   7  -6   2    6.17    0.83
   7  -6  -2    8.76    0.90
   7   6   2    6.56    0.80
   8  -6   2    6.71    0.92
   8   6  -2    6.70    0.89
   8   6   2    5.67    0.86
   8  -6  -2    5.84    0.89
   0   7  -2   -0.01    0.31
   0  -7  -2    0.08    0.24
   0   7   2    0.06    0.28
   0  -7   2    0.21    0.27
   1   7  -2   19.16    0.80
   1  -7   2   19.51    0.80
  -1   7   2   19.19    0.87
  -1  -7  -2   20.62    0.75
  -1  -7   2   21.24    0.82
   1   7   2   19.68    0.82
   1  -7  -2   20.08    0.75
  -1   7  -2   21.81    0.96
   1   7   2   19.80    0.63
   2  -7   2    9.10    0.65
  -2  -7  -2    8.50    0.56
  -2   7   2    9.84    0.77
   2  -7  -2    9.98    0.61
   2   7   2   10.13    0.62
  -2   7  -2    9.38    0.83
  -2  -7   2    9.70    0.64
   3  -7   2   33.54    1.17
  -3   7   2   31.98    1.26
  -3  -7  -2   31.43    1.08
   3   7   2   32.88    1.03
   3  -7  -2   34.53    1.11
  -3   7  -2   34.09    1.50
  -3  -7   2   31.35    1.11
   4  -7   2    5.45    0.61
  -4   7   2    5.47    0.73
  -4  -7  -2    6.20    0.61
  -4   7  -2    6.90    0.88
  -4  -7   2    5.10    0.58
   4  -7  -2    5.71    0.60
   5  -7   2   10.11    0.84
  -5   7   2    8.72    0.93
   5  -7  -2   10.65    0.80
  -5  -7   2    9.03    0.76
   5   7   2    9.93    0.74
   6   7  -2   11.01    0.94
   6  -7   2   12.84    1.03
  -6   7   2   12.76    1.21
   6   7   2   11.92    0.98
   6  -7  -2   13.38    0.94
   7   7  -2    8.94    0.94
   7  -7   2   10.64    0.99
   7   7   2   11.80    1.05
   7  -7  -2    9.44    0.94
   8  -7   2    2.66    0.76
   8   7   2    1.22    0.62
   8  -7  -2    0.62    0.64
   0   8  -2    7.04    0.64
   0   8   2    6.29    0.61
   0  -8   2    5.70    0.55
   0  -8  -2    6.31    0.55
   1  -8   2    9.03    0.65
   1   8  -2    8.49    0.64
  -1  -8  -2    9.81    0.63
  -1   8   2    8.22    0.71
   1  -8  -2   10.03    0.61
   1   8   2    9.82    0.69
  -1  -8   2    9.63    0.68
  -1   8  -2    7.93    0.75
   2  -8   2   54.80    1.52
  -2  -8  -2   54.41    1.45
  -2   8   2   55.44    1.68
  -2   8  -2   54.73    1.79
   2  -8  -2   53.25    1.41
  -2  -8   2   56.52    1.52
   2   8   2   55.55    1.47
  -3  -8  -2    5.64    0.58
   3  -8   2    3.40    0.51
  -3   8   2    4.27    0.65
   3   8   2    4.74    0.50
  -3  -8   2    4.95    0.56
  -3   8  -2    4.74    0.76
   3  -8  -2    4.72    0.53
   4  -8   2   37.35    1.34
  -4   8   2   40.82    1.59
  -4  -8  -2   40.34    1.33
   4  -8  -2   40.74    1.31
  -4  -8   2   39.28    1.37
  -4   8  -2   39.85    1.70
   5  -8   2    8.83    0.81
  -5   8   2    8.87    0.98
   5   8   2    9.52    0.81
   5  -8  -2    9.12    0.78
  -5   8  -2    8.38    1.05
  -5  -8   2    8.01    0.79
   6  -8   2    5.30    0.73
  -6   8   2    5.94    0.99
   6   8  -2    6.58    0.80
   6  -8  -2    4.88    0.71
   6   8   2    6.13    0.76
   7  -8   2    1.46    0.65
  -7   8   2    0.52    0.78
   7   8  -2    0.91    0.51
   7   8   2    1.17    0.58
   7  -8  -2    1.62    0.62
   0  -9   2    0.09    0.30
   0   9  -2   -0.46    0.38
   0  -9  -2    0.11    0.27
   0   9   2   -0.17    0.34
  -1   9   2    9.07    0.81
   1  -9   2   11.73    0.72
  -1  -9  -2   10.03    0.67
   1   9   2    8.89    0.74
  -1   9  -2    8.90    0.85
   1  -9  -2    9.08    0.64
  -1  -9   2   10.33    0.69
  -2  -9  -2    3.72    0.52
  -2   9   2    3.10    0.57
   2  -9   2    3.15    0.50
  -2   9  -2    3.08    0.65
   2  -9  -2    3.07    0.45
   2   9   2    2.44    0.45
  -2  -9   2    3.33    0.53
   3  -9   2    3.05    0.53
  -3  -9  -2    3.19    0.50
  -3   9   2    3.10    0.69
  -3   9  -2    2.83    0.76
   3  -9  -2    2.88    0.46
  -3  -9   2    3.16    0.52
   4  -9   2   12.07    0.82
  -4  -9  -2   12.00    0.82
  -4   9   2   12.28    1.07
   4  -9  -2   11.96    0.80
  -4   9  -2   11.85    1.16
  -4  -9   2   10.34    0.85
  -5   9   2   -0.33    0.63
  -5  -9  -2    0.27    0.40
   5  -9   2    0.29    0.46
   5   9   2    0.51    0.38
   5  -9  -2    1.19    0.49
  -5  -9   2    0.46    0.46
  -5   9  -2    0.03    0.70
   6   9  -2    1.18    0.50
   6  -9   2    1.66    0.60
  -6   9   2    1.50    0.82
   6  -9  -2    2.06    0.56
   6   9   2    1.52    0.53
  -7   9   2   10.29    1.34
   7  -9  -2   14.54    1.17
   7   9   2   10.75    1.07
   0 -10   2    0.40    0.38
   0  10   2    0.80    0.43
   0  10  -2    0.42    0.48
   0 -10  -2    0.68    0.37
  -1  10   2    0.56    0.47
  -1 -10  -2    0.04    0.32
   1 -10   2    0.20    0.35
   1  10   2   -0.31    0.34
   1 -10  -2   -0.07    0.30
  -1 -10   2   -0.08    0.36
  -1  10  -2   -0.31    0.46
   2 -10   2   35.56    1.30
  -2 -10  -2   35.23    1.27
  -2  10   2   38.28    1.56
  -2 -10   2   33.48    1.29
   2 -10  -2   34.19    1.21
  -2  10  -2   33.11    1.58
   3 -10   2    0.74    0.40
  -3  10   2    0.33    0.52
  -3 -10  -2    0.19    0.38
  -3 -10   2   -0.16    0.38
   3 -10  -2   -0.09    0.35
  -3  10  -2    0.05    0.67
   4 -10   2   37.60    1.47
  -4 -10  -2   39.40    1.44
  -4  10   2   36.62    1.69
  -4  10  -2   42.32    1.95
   4 -10  -2   39.86    1.40
  -4 -10   2   37.76    1.47
  -5  10   2    1.12    0.77
  -5 -10  -2    1.25    0.55
   5 -10   2    1.06    0.49
  -5  10  -2    1.29    0.88
   5 -10  -2    1.29    0.50
  -5 -10   2    0.80    0.49
   5  10   2    1.53    0.49
  -6  10   2    0.64    0.79
   6 -10   2    2.60    0.63
   6  10   2    1.40    0.54
   0 -11  -2    0.22    0.39
   0  11   2    0.13    0.46
   0 -11   2   -0.40    0.37
  -1 -11  -2    6.72    0.68
   1 -11   2    6.70    0.73
  -1  11   2    4.79    0.72
  -1  11  -2    5.67    0.86
  -1 -11   2    5.28    0.66
   1 -11  -2    5.49    0.64
   2 -11   2    4.46    0.62
  -2 -11  -2    3.24    0.57
  -2  11   2    3.79    0.76
  -2  11  -2    3.60    0.82
   2 -11  -2    3.21    0.54
  -2 -11   2    3.52    0.62
   3 -11   2    9.61    0.88
  -3 -11  -2    7.59    0.76
  -3  11   2    6.45    0.97
  -3  11  -2    9.08    1.15
  -3 -11   2    8.55    0.85
  -4  11   2    2.84    0.87
   4 -11   2    3.99    0.69
  -4 -11  -2    3.03    0.60
  -4  11  -2    2.31    0.91
  -4 -11   2    3.73    0.70
   5 -11   2    1.28    0.58
  -5 -11  -2    2.22    0.61
  -5  11   2    1.21    0.85
  -5  11  -2    2.19    0.94
   0  12   2    7.76    0.92
   0 -12   2    5.89    0.76
   1 -12   2   12.39    0.93
  -1  12   2   11.78    1.10
  -1 -12   2   12.74    1.02
   2 -12   2   12.62    0.90
  -2  12   2   11.28    1.13
  -2  12  -2    9.04    1.15
  -2 -12   2   11.09    0.95
   3 -12   2    0.83    0.51
  -3  12   2    0.31    0.69
  -3 -12   2    0.71    0.52
  -3  12  -2   -0.55    0.74
   0   0   3   -0.19    0.06
  -1   0   3    0.30    0.12
   1   0   3    0.17    0.13
   1   0  -3    0.15    0.11
   1   0   3    0.60    0.15
  -1   0   3    0.36    0.16
   2   0   3   86.50    1.53
  -2   0   3   85.92    1.50
   2   0  -3   84.28    1.49
  -3   0   3   -0.05    0.21
  -3   0   3    0.25    0.22
   3   0   3    0.28    0.23
   3   0  -3    0.31    0.21
   4   0   3   18.74    0.80
  -4   0   3   19.41    0.75
   4   0  -3   18.88    0.77
   5   0  -3   22.02    0.98
   5   0   3   21.44    0.99
   6   0   3    0.52    0.46
   6   0  -3   -0.11    0.37
   7   0  -3    7.17    0.78
   7   0   3    6.12    0.79
   8   0   3   40.53    1.64
   8   0  -3   38.67    1.66
   9   0  -3   -0.70    0.53
   9   0   3    0.10    0.58
   0  -1   3  933.12   13.12
  -1   1   3    1.10    0.19
   1  -1   3    0.04    0.11
   1  -1   3   -0.09    0.15
  -1   1   3   -0.10    0.12
   1   1   3    0.05    0.12
  -1  -1   3    0.08    0.16
   1   1   3   -0.07    0.12
  -1  -1   3    0.00    0.12
   1  -1  -3    0.10    0.13
   2  -1   3   17.63    0.51
  -2   1   3   18.30    0.53
  -2   1   3   18.14    0.55
   2  -1   3   17.21    0.59
   2   1   3   17.56    0.57
   2  -1  -3   18.38    0.56
  -2  -1   3   18.44    0.58
  -2  -1   3   17.68    0.53
  -3   1   3    0.45    0.21
   3   1  -3    0.25    0.20
  -3   1   3    0.15    0.20
   3  -1   3    0.14    0.26
   3   1   3    0.37    0.23
   3  -1  -3    0.13    0.21
  -3  -1   3    0.03    0.20
  -4   1   3    1.44    0.30
  -4   1   3    0.99    0.35
   4  -1   3    1.03    0.34
   4   1  -3    1.30    0.32
   4   1   3    1.14    0.34
   4  -1  -3    0.64    0.31
  -4  -1   3    0.90    0.29
   5  -1   3    0.65    0.37
   5   1  -3    0.33    0.33
   5   1   3    0.15    0.36
   5  -1  -3    0.35    0.37
   6   1  -3  110.81    2.53
   6  -1   3  106.56    2.50
   6   1   3  107.31    2.49
   6  -1  -3  102.87    2.44
   7   1  -3    0.47    0.47
   7  -1   3    0.76    0.49
   7   1   3    0.87    0.48
   7  -1  -3    0.81    0.49
   8   1  -3   32.42    1.52
   8  -1   3   31.49    1.49
   8   1   3   34.82    1.57
   8  -1  -3   32.37    1.48
   9  -1   3   -0.94    0.52
   9   1  -3    0.79    0.61
   9   1   3    0.15    0.63
   9  -1  -3   -0.08    0.61
   0  -2  -3   -0.32    0.09
   0   2   3    0.00    0.13
   0  -2   3   -0.26    0.14
  -1   2   3   20.65    0.49
  -1  -2  -3   21.30    0.49
  -1   2   3   20.81    0.58
   1   2   3   20.40    0.54
  -1  -2   3   19.72    0.55
  -1  -2   3   20.83    0.55
   1  -2  -3   21.51    0.48
  -2   2   3  179.36    2.71
  -2   2   3  179.01    2.89
   2  -2   3  186.59    2.89
   2  -2   3  178.56    2.67
   2  -2  -3  183.88    2.78
   2   2   3  181.03    2.82
  -2  -2   3  180.96    2.87
  -2  -2   3  183.32    2.84
   3   2  -3   10.29    0.55
   3  -2   3   11.81    0.62
  -3   2   3   10.75    0.54
  -3   2   3   11.03    0.49
   3  -2  -3   10.97    0.53
   3   2   3    9.86    0.51
  -3  -2   3    9.63    0.57
  -3  -2   3   10.54    0.52
  -4   2   3    6.69    0.48
  -4   2   3    7.07    0.57
   4  -2   3    6.85    0.58
   4   2  -3    7.63    0.54
  -4  -2   3    5.39    0.50
   4   2   3    5.53    0.52
   4  -2  -3    6.25    0.53
  -5   2   3    2.08    0.52
   5  -2   3    2.16    0.46
   5   2  -3    1.80    0.42
   5  -2  -3    0.78    0.40
   5   2   3    1.60    0.43
   6   2  -3    7.37    0.74
   6  -2   3    5.85    0.68
   6   2   3    6.24    0.70
   6  -2  -3    5.58    0.67
   7   2  -3    0.53    0.46
   7  -2   3    1.82    0.54
   7  -2  -3    0.80    0.50
   7   2   3    1.63    0.55
   8  -2   3   56.57    1.96
   8   2   3   57.85    2.02
   8  -2  -3   58.94    2.02
   9   2  -3    2.39    0.71
   9  -2   3    1.72    0.71
   9   2   3    2.89    0.79
   9  -2  -3    3.48    0.84
   0   3   3  170.07    2.75
   0  -3   3  170.30    2.50
   0   3   3  172.94    2.52
   0   3  -3  169.68    2.72
   0  -3   3  173.61    2.66
   0  -3  -3  170.80    2.49
  -1  -3  -3   -0.01    0.14
   1  -3   3   -0.14    0.17
  -1   3   3    0.16    0.13
  -1   3   3    0.14    0.17
   1  -3  -3    0.14    0.15
  -1  -3   3   -0.01    0.17
  -1   3  -3    0.44    0.27
  -1  -3   3    0.08    0.15
   1   3   3    0.03    0.14
  -2  -3  -3  114.28    1.95
  -2   3   3  115.14    1.81
   2  -3   3  116.21    1.76
   2  -3   3  116.51    2.05
  -2   3   3  118.21    2.09
  -2  -3   3  115.37    2.02
   2  -3  -3  115.80    1.94
  -2  -3   3  117.00    2.04
  -3   3   3    4.83    0.44
  -3   3   3    5.32    0.37
   3  -3   3    4.41    0.46
   3  -3   3    4.96    0.31
   3   3   3    4.89    0.42
  -3  -3   3    4.64    0.42
  -3  -3   3    4.37    0.43
   3  -3  -3    5.32    0.44
  -4   3   3    9.84    0.74
   4  -3   3    9.82    0.66
   4   3  -3    8.87    0.59
  -4   3   3   10.16    0.51
   4   3   3    8.95    0.59
   4  -3  -3    9.47    0.64
  -5   3   3   20.38    1.03
   5  -3   3   21.26    0.98
   5   3  -3   19.62    0.92
   5  -3  -3   19.83    0.91
   5   3   3   22.33    0.99
   6   3  -3   47.15    1.56
   6  -3   3   50.51    1.60
   6  -3  -3   49.39    1.56
   6   3   3   52.37    1.65
   7   3  -3    1.20    0.51
   7  -3   3    0.97    0.52
   7   3   3    0.59    0.49
   7  -3  -3    0.70    0.50
   8   3  -3   28.98    1.45
   8  -3   3   32.68    1.52
   8  -3  -3   35.92    1.53
   8   3   3   29.71    1.48
   9  -3   3    0.33    0.59
   9   3  -3    0.52    0.59
   9   3   3    0.31    0.56
   9  -3  -3    0.47    0.65
   0  -4  -3   -0.21    0.13
   0   4   3   -0.04    0.12
   0  -4   3    0.02    0.14
   0   4  -3    0.08    0.22
   0  -4   3   -0.04    0.16
   0   4   3   -0.19    0.16
  -1  -4  -3    3.90    0.30
   1   4  -3    3.86    0.28
   1  -4   3    3.60    0.34
  -1   4   3    3.95    0.24
  -1   4   3    3.75    0.35
  -1  -4   3    2.90    0.30
   1   4   3    3.59    0.29
  -1  -4   3    3.93    0.32
   1  -4  -3    3.34    0.28
  -1   4  -3    3.71    0.44
  -2   4   3   95.04    1.50
  -2  -4  -3   91.86    1.70
   2  -4   3   93.81    1.81
  -2   4   3   95.36    1.89
   2  -4  -3   96.95    1.70
  -2   4  -3   95.70    2.07
  -2  -4   3   91.78    1.78
  -2  -4   3   94.96    1.79
  -3   4   3    0.32    0.27
  -3   4   3   -0.07    0.17
   3  -4   3   -0.13    0.26
   3  -4   3    0.27    0.15
   3   4   3   -0.07    0.20
  -3  -4   3   -0.05    0.21
   3  -4  -3    0.02    0.26
   4  -4   3    5.42    0.58
  -4   4   3    5.69    0.63
  -4   4   3    6.48    0.44
   4  -4  -3    6.72    0.59
   4   4   3    5.47    0.53
  -4  -4   3    6.53    0.56
   5   4  -3    6.07    0.63
  -5   4   3    6.88    0.74
   5  -4   3    5.54    0.65
   5   4   3    6.33    0.64
   5  -4  -3    7.22    0.68
  -6   4   3    3.93    0.70
   6   4  -3    4.00    0.60
   6  -4   3    3.85    0.61
   6   4   3    3.48    0.57
   6  -4  -3    4.35    0.61
   7   4  -3    6.81    0.81
   7  -4   3    6.61    0.81
   7  -4  -3    6.08    0.76
   7   4   3    8.56    0.88
   8  -4   3   41.47    1.70
   8   4  -3   44.66    1.78
   8   4   3   42.38    1.73
   8  -4  -3   45.89    1.76
   9  -4  -3    0.59    0.70
   9   4   3    0.54    0.64
   0   5  -3  327.53    5.02
   0   5   3  327.68    5.08
   0   5   3  326.32    4.61
   0  -5   3  322.17    4.88
   0  -5  -3  319.47    4.72
   0  -5   3  323.82    4.61
   1   5  -3    2.04    0.27
  -1   5   3    1.99    0.31
  -1  -5  -3    2.20    0.27
   1  -5   3    2.42    0.33
  -1   5   3    2.12    0.19
  -1  -5   3    1.62    0.27
   1  -5  -3    2.39    0.28
   1   5   3    1.99    0.24
  -1  -5   3    2.17    0.28
  -1   5  -3    2.52    0.40
   1   5   3    1.95    0.28
   2   5  -3   25.04    0.64
  -2   5   3   26.21    0.91
   2  -5   3   26.38    0.87
  -2  -5  -3   26.04    0.79
   2  -5  -3   25.74    0.78
  -2   5  -3   25.18    1.11
  -2  -5   3   25.67    0.84
   3  -5   3    0.51    0.31
  -3  -5  -3    0.12    0.24
  -3   5   3    0.69    0.33
  -3  -5   3    0.24    0.26
   3  -5  -3    0.75    0.29
  -3   5  -3    0.63    0.47
   4  -5   3    2.91    0.51
  -4   5   3    2.36    0.51
   4  -5  -3    3.86    0.50
   4   5   3    3.54    0.46
  -4  -5   3    2.80    0.44
   5   5  -3    2.49    0.47
   5  -5   3    2.06    0.51
  -5   5   3    2.47    0.63
   5   5   3    1.22    0.43
   5  -5  -3    2.70    0.52
   6   5  -3   69.56    1.97
   6  -5   3   71.85    2.01
  -6   5   3   72.47    2.17
   6  -5  -3   69.85    1.92
   6   5   3   67.20    1.94
   7  -5   3   -0.13    0.45
   7   5  -3    0.23    0.46
   7  -5  -3   -0.12    0.45
   7   5   3    0.48    0.47
   8   5  -3   20.29    1.24
   8  -5   3   19.93    1.25
   8  -5  -3   18.86    1.24
   8   5   3   19.38    1.27
   9  -5  -3    0.19    0.60
   0  -6   3    0.08    0.22
   0   6   3   -0.02    0.23
   0   6   3   -0.05    0.13
   0   6  -3    0.06    0.28
   0  -6  -3   -0.14    0.18
   1   6  -3    3.72    0.37
  -1  -6  -3    3.31    0.35
   1  -6   3    3.31    0.40
  -1   6   3    2.69    0.39
  -1  -6   3    4.10    0.43
  -1   6  -3    4.27    0.53
   1   6   3    3.87    0.41
   1   6   3    3.92    0.33
   1  -6  -3    3.50    0.35
  -2   6   3   75.78    1.82
   2   6  -3   78.63    1.51
   2  -6   3   80.09    1.76
  -2  -6  -3   79.04    1.65
   2   6   3   81.51    1.74
  -2  -6   3   80.38    1.74
   2  -6  -3   81.15    1.63
  -2   6  -3   83.07    2.06
  -3   6   3    8.85    0.71
   3  -6   3    8.73    0.63
  -3  -6  -3    9.86    0.61
   3  -6  -3    9.43    0.60
  -3   6  -3    9.02    0.87
  -3  -6   3   10.77    0.64
   4  -6   3    8.65    0.72
  -4   6   3    8.05    0.78
   4   6   3    9.77    0.65
   4  -6  -3    9.90    0.70
  -4  -6   3   10.25    0.68
  -5   6   3    0.79    0.53
   5  -6   3    0.86    0.45
   5  -6  -3    0.25    0.41
   5   6   3    0.79    0.38
  -5  -6   3    0.43    0.39
   6   6  -3   -0.01    0.34
  -6   6   3   -0.19    0.61
   6  -6   3    0.30    0.44
   6  -6  -3   -0.17    0.42
   6   6   3    0.02    0.36
   7  -6   3    0.06    0.47
  -7   6   3    0.31    0.73
   7   6  -3    0.97    0.46
   7   6   3    0.06    0.45
   7  -6  -3    0.46    0.53
   8  -6   3   23.68    1.34
   8   6  -3   25.58    1.43
   8   6   3   21.32    1.33
   8  -6  -3   22.95    1.30
   0   7  -3  243.55    4.13
   0  -7   3  241.27    4.02
   0   7   3  247.93    4.20
   0  -7  -3  240.31    3.86
   1  -7   3    4.86    0.49
   1   7  -3    5.10    0.48
  -1  -7  -3    5.99    0.49
  -1   7   3    4.56    0.53
   1  -7  -3    5.90    0.47
   1   7   3    5.31    0.39
  -1   7  -3    5.12    0.61
   1   7   3    5.45    0.52
  -1  -7   3    4.99    0.49
  -2  -7  -3   11.33    0.64
   2  -7   3   12.60    0.71
   2  -7  -3   12.72    0.65
  -2  -7   3   11.83    0.67
   2   7   3   12.28    0.69
  -2   7  -3   12.52    0.96
  -3  -7  -3    1.25    0.35
  -3   7   3    1.56    0.49
   3  -7   3    1.74    0.42
   3  -7  -3    1.94    0.41
  -3  -7   3    1.73    0.39
   3   7   3    1.76    0.35
  -3   7  -3    1.96    0.68
  -4   7   3    1.66    0.52
  -4  -7  -3    1.29    0.39
   4  -7   3    0.57    0.41
   4  -7  -3    0.69    0.37
  -4   7  -3    1.20    0.68
  -4  -7   3    1.08    0.38
   5  -7   3    0.44    0.45
  -5   7   3   -0.48    0.49
   5   7   3    0.25    0.34
  -5  -7   3    0.35    0.37
   5  -7  -3    0.36    0.39
  -6   7   3   56.08    2.04
   6   7  -3   58.69    1.86
   6  -7   3   54.99    1.80
   6  -7  -3   58.71    1.77
   6   7   3   56.23    1.82
   7   7  -3    0.51    0.47
   7  -7   3    0.82    0.56
  -7   7   3    0.06    0.77
   7   7   3    0.26    0.46
   7  -7  -3   -0.35    0.47
   8   7   3   12.22    1.16
   8  -7  -3   11.35    1.10
   0  -8  -3   -0.36    0.25
   0   8  -3    0.44    0.42
   0   8   3   -0.49    0.29
   0  -8   3   -0.34    0.26
  -1   8   3    3.29    0.52
   1  -8   3    3.23    0.46
  -1  -8  -3    2.00    0.36
   1  -8  -3    3.35    0.42
  -1  -8   3    2.85    0.44
  -1   8  -3    3.05    0.62
   1   8   3    3.09    0.47
  -2   8   3   39.63    1.42
   2  -8   3   37.69    1.24
  -2  -8  -3   38.19    1.17
   2  -8  -3   37.17    1.13
  -2  -8   3   37.91    1.23
   2   8   3   39.16    1.24
  -2   8  -3   39.72    1.57
  -3  -8  -3    0.14    0.34
  -3   8   3   -0.11    0.40
   3  -8   3    0.72    0.39
   3  -8  -3    0.92    0.35
  -3  -8   3    0.41    0.34
  -3   8  -3    0.85    0.61
   3   8   3    0.63    0.30
  -4   8   3    2.63    0.64
   4  -8   3    2.76    0.52
  -4  -8  -3    2.76    0.49
   4  -8  -3    2.83    0.50
  -4   8  -3    2.02    0.78
  -4  -8   3    2.67    0.52
   5  -8   3    5.02    0.67
  -5   8   3    5.25    0.83
  -5  -8   3    6.15    0.72
   5   8   3    5.93    0.69
   5  -8  -3    7.79    0.73
   6  -8   3    0.12    0.48
  -6   8   3    1.05    0.69
   6   8  -3    0.89    0.47
   6  -8  -3    0.67    0.49
   6   8   3    0.36    0.40
   7   8  -3    0.89    0.55
  -7   8   3    1.37    0.84
   7  -8   3    1.93    0.66
   7  -8  -3    2.64    0.65
   7   8   3    2.21    0.61
   0  -9   3   55.86    1.56
   0   9  -3   56.00    1.67
   0  -9  -3   55.61    1.45
   0   9   3   52.72    1.64
  -1   9   3   -0.36    0.33
   1  -9   3    0.44    0.36
  -1  -9  -3    0.28    0.33
   1  -9  -3    0.54    0.31
  -1   9  -3    0.08    0.51
   1   9   3    0.43    0.38
  -1  -9   3    0.66    0.36
  -2   9   3   20.36    1.09
   2  -9   3   20.43    0.96
  -2  -9  -3   20.63    0.91
   2   9   3   20.72    0.97
  -2  -9   3   18.53    0.91
  -2   9  -3   19.31    1.25
   2  -9  -3   21.09    0.86
   3  -9   3    2.35    0.48
  -3  -9  -3    2.74    0.48
  -3   9   3    2.45    0.62
  -3   9  -3    2.20    0.73
  -3  -9   3    3.19    0.54
   3  -9  -3    3.12    0.48
  -4   9   3    2.51    0.65
   4  -9   3    2.14    0.51
  -4  -9  -3    1.68    0.50
   4  -9  -3    2.20    0.48
  -4  -9   3    2.44    0.51
  -4   9  -3    1.70    0.77
  -5   9   3    2.57    0.74
   5  -9   3    4.64    0.67
   5  -9  -3    5.29    0.65
  -5  -9   3    3.45    0.63
   5   9   3    3.81    0.62
   6   9  -3   27.33    1.34
   6  -9   3   28.63    1.39
  -6   9   3   26.03    1.65
   6   9   3   25.23    1.29
  -7   9   3   -1.82    0.75
   7   9   3   -0.05    0.52
   0 -10   3   -0.03    0.32
   0 -10  -3   -0.01    0.32
   0  10   3   -0.23    0.37
  -1  10   3    1.28    0.52
   1 -10   3    2.16    0.48
  -1 -10  -3    2.79    0.48
  -1 -10   3    2.26    0.48
  -1  10  -3    1.83    0.66
   1  10   3    2.48    0.52
   1 -10  -3    1.73    0.42
   2 -10   3   31.34    1.25
  -2  10   3   35.82    1.50
  -2 -10  -3   34.03    1.20
   2  10   3   33.10    1.29
   2 -10  -3   34.51    1.18
  -2  10  -3   31.63    1.60
  -2 -10   3   31.09    1.27
  -3 -10  -3    1.55    0.45
  -3  10   3    1.29    0.62
   3 -10   3    2.12    0.53
  -3  10  -3    1.42    0.75
  -3 -10   3    1.74    0.49
  -4  10   3    1.67    0.70
  -4 -10  -3    2.12    0.51
   4 -10   3    1.61    0.51
  -4  10  -3   -0.02    0.73
  -4 -10   3    2.01    0.56
  -5  10   3   -0.96    0.62
   5 -10   3   -0.32    0.46
   5  10   3    0.33    0.41
  -5 -10   3    0.59    0.49
  -6  10   3    1.43    0.83
   6  10   3    1.57    0.57
   0  11   3   47.55    1.68
   0 -11   3   48.92    1.62
   1 -11   3   -0.35    0.35
  -1  11   3    0.28    0.49
  -1 -11   3    0.31    0.41
   1  11   3    0.04    0.42
   2 -11   3    7.85    0.79
  -2  11   3    7.59    0.90
  -2  11  -3    5.96    0.96
  -2 -11   3    7.33    0.78
   3 -11   3    0.88    0.49
  -3  11   3    0.63    0.59
  -3 -11   3    0.45    0.43
  -3  11  -3    0.62    0.76
  -4  11   3    0.17    0.64
   4 -11   3    1.40    0.54
  -4  11  -3   -0.12    0.77
  -4 -11   3    0.31    0.46
  -5  11   3    0.41    0.77
   5  11   3    1.02    0.48
   0  12   3    0.15    0.53
   0 -12   3    0.24    0.46
  -1  12   3   -0.02    0.54
   1 -12   3    0.27    0.44
  -1 -12   3    0.94    0.53
   2 -12   3   13.59    0.99
  -2  12   3   13.58    1.24
  -2 -12   3   14.03    1.02
  -2  12  -3   12.05    1.30
  -3  12   3    0.74    0.72
   3 -12   3    0.26    0.45
  -3 -12   3    0.13    0.47
  -3  12  -3   -0.32    0.82
   0   0   4   59.48    1.06
   0   0   4   60.91    0.91
  -1   0   4  164.93    2.38
   1   0   4  167.00    2.43
  -1   0   4  164.91    2.50
   1   0   4  165.50    2.49
   2   0   4  201.63    3.14
  -2   0   4  209.38    3.15
  -2   0   4  204.40    3.06
   2   0  -4  212.38    3.13
   2   0   4  204.15    3.13
   3   0  -4    8.80    0.50
  -3   0   4    8.95    0.45
   3   0   4    8.62    0.54
   4   0  -4  195.07    3.30
   4   0   4  189.51    3.32
  -4   0   4  189.62    3.15
  -4   0   4  190.73    3.24
   5   0   4   16.60    0.91
   5   0  -4   16.41    0.85
  -5   0   4   16.70    0.80
   6   0  -4   10.92    0.88
   6   0   4   11.49    0.84
   7   0   4    2.43    0.58
   7   0  -4    3.62    0.65
   8   0   4   12.70    1.09
   8   0  -4   12.91    1.10
   9   0   4    2.49    0.71
   9   0  -4    4.04    0.85
   0  -1   4    0.31    0.16
   0   1   4    0.18    0.13
   0  -1   4   -0.11    0.11
  -1   1   4    4.55    0.35
  -1   1   4    4.28    0.29
   1  -1   4    4.36    0.30
   1  -1   4    4.73    0.29
   1   1   4    4.96    0.26
   1   1   4    4.61    0.30
  -1  -1   4    3.83    0.29
   1  -1  -4    4.50    0.23
  -1  -1   4    4.56    0.28
   2  -1   4   22.29    0.59
   2  -1   4   23.06    0.69
  -2   1   4   22.61    0.60
  -2   1   4   22.47    0.62
  -2  -1   4   22.30    0.66
   2   1   4   23.55    0.66
   2  -1  -4   23.49    0.63
  -2  -1   4   21.63    0.62
   2   1   4   22.25    0.65
   3  -1   4  135.43    2.40
   3   1  -4  135.56    2.37
  -3   1   4  138.00    2.31
  -3   1   4  136.47    2.30
   3   1   4  137.05    2.40
   3  -1  -4  138.74    2.37
  -3  -1   4  134.34    2.38
   4   1  -4   23.60    0.88
  -4   1   4   23.12    0.81
   4  -1   4   22.18    0.88
  -4   1   4   22.25    0.82
  -4  -1   4   21.97    0.83
   4  -1  -4   22.73    0.86
   4   1   4   23.15    0.89
  -5   1   4    9.51    0.72
   5   1  -4   10.31    0.71
  -5   1   4    9.92    0.63
   5  -1   4    9.40    0.77
   5  -1  -4    8.18    0.69
   5   1   4    8.42    0.71
  -5  -1   4   10.49    0.68
   6  -1   4   18.08    1.05
   6   1  -4   19.51    1.00
   6   1   4   17.70    1.02
   6  -1  -4   16.40    0.94
   7   1  -4   17.75    1.08
   7  -1   4   14.56    1.00
   7  -1  -4   16.30    1.06
   7   1   4   16.45    1.08
   8   1  -4    0.98    0.54
   8  -1   4   -0.06    0.52
   8  -1  -4    0.70    0.60
   8   1   4    0.80    0.57
   9  -1   4    7.08    1.00
   9   1  -4    6.15    0.97
   9  -1  -4    5.05    0.90
   9   1   4    6.67    0.97
   0   2   4   23.32    0.57
   0  -2  -4   22.50    0.40
   0  -2   4   22.30    0.55
   0  -2   4   23.08    0.57
   1  -2   4   91.93    1.47
  -1   2   4   92.40    1.50
  -1   2   4   93.06    1.62
   1  -2   4   92.25    1.58
  -1  -2   4   90.98    1.56
   1   2   4   89.16    1.56
   1  -2  -4   92.22    1.40
  -1  -2   4   93.51    1.56
   1   2   4   92.49    1.46
  -2   2   4  114.30    1.97
  -2   2   4  112.66    1.83
   2  -2   4  111.41    1.80
   2  -2   4  113.56    1.98
   2  -2  -4  112.96    1.86
  -2  -2   4  112.87    1.96
  -2  -2   4  114.15    1.94
   2   2   4  112.10    1.90
   3  -2   4    3.23    0.39
   3  -2   4    2.91    0.28
  -3   2   4    3.20    0.32
  -3   2   4    3.64    0.35
   3  -2  -4    2.74    0.34
  -3  -2   4    2.86    0.36
   3   2   4    3.02    0.34
  -3  -2   4    3.11    0.34
   4  -2   4  188.18    3.29
   4   2  -4  189.28    3.28
  -4   2   4  190.32    3.25
  -4   2   4  186.63    3.09
  -4  -2   4  185.35    3.25
   4  -2  -4  184.41    3.21
   4   2   4  183.90    3.26
   5   2  -4   76.15    1.89
   5  -2   4   77.42    1.92
  -5   2   4   79.03    1.89
  -5   2   4   79.06    1.75
   5  -2  -4   76.80    1.85
   5   2   4   79.76    1.92
   6   2  -4   12.47    0.88
   6  -2   4   10.59    0.89
   6   2   4   10.41    0.86
   6  -2  -4   13.54    0.87
   7  -2   4    9.76    0.95
   7   2  -4    9.18    0.88
   7   2   4   10.53    0.96
   7  -2  -4    8.87    0.84
   8   2  -4    8.08    0.96
   8  -2   4    6.78    0.88
   8   2   4    7.53    0.90
   8  -2  -4    7.10    0.88
   9  -2   4    0.04    0.64
   9   2  -4    0.52    0.65
   9  -2  -4    0.47    0.68
   9   2   4    0.89    0.68
   0  -3   4    0.00    0.15
   0   3   4   -0.12    0.12
   0  -3  -4   -0.04    0.10
   0  -3   4   -0.03    0.14
  -1   3   4    4.83    0.37
  -1  -3  -4    4.41    0.28
   1  -3   4    4.68    0.27
  -1   3   4    4.37    0.29
   1  -3   4    4.23    0.35
  -1  -3   4    4.95    0.33
   1  -3  -4    4.68    0.28
  -1  -3   4    5.07    0.37
   1   3   4    4.30    0.32
  -2   3   4    1.48    0.26
  -2   3   4    1.28    0.22
   2  -3   4    1.47    0.19
   2  -3   4    1.26    0.27
  -2  -3   4    1.50    0.29
   2   3   4    1.51    0.24
  -2  -3   4    1.35    0.25
   2  -3  -4    1.72    0.25
   3  -3   4  117.39    2.24
   3  -3   4  118.97    1.96
  -3   3   4  123.00    2.04
  -3   3   4  122.13    2.27
   3   3   4  122.59    2.22
  -3  -3   4  118.01    2.20
   3  -3  -4  121.70    2.14
  -3  -3   4  121.90    2.27
   4  -3   4    0.21    0.18
  -4   3   4    0.80    0.36
   4  -3   4    0.24    0.31
   4   3  -4    0.15    0.26
  -4   3   4   -0.07    0.21
  -4  -3   4   -0.10    0.27
   4  -3  -4    0.31    0.32
   4   3   4    0.51    0.29
  -5   3   4    0.03    0.25
  -5   3   4    0.07    0.44
   5   3  -4    0.29    0.32
   5  -3   4    0.42    0.42
   5  -3  -4    0.29    0.39
   5   3   4   -0.07    0.31
   6  -3   4   24.70    1.16
  -6   3   4   27.16    1.30
   6   3  -4   26.28    1.16
   6  -3  -4   26.54    1.18
   6   3   4   27.20    1.19
   7  -3   4    1.88    0.57
   7   3  -4    1.53    0.53
   7  -3  -4    1.06    0.56
   7   3   4    1.24    0.54
   8   3  -4    0.53    0.52
   8  -3   4    0.02    0.52
   8   3   4   -0.01    0.50
   8  -3  -4   -0.23    0.51
   9   3  -4    8.18    1.07
   9  -3   4   10.30    1.12
   9   3   4    9.59    1.09
   9  -3  -4    8.28    1.01
   0  -4   4   10.27    0.40
   0   4   4   10.08    0.52
   0  -4   4    9.89    0.46
   0   4   4    9.97    0.39
   0  -4  -4    9.95    0.37
   0   4  -4    8.55    0.55
  -1  -4  -4   56.19    1.07
   1  -4   4   52.79    1.18
   1   4  -4   52.01    1.07
  -1   4   4   52.61    1.25
  -1   4   4   54.26    0.99
   1  -4   4   52.98    0.94
  -1  -4   4   55.12    1.18
   1  -4  -4   52.96    1.01
   1   4   4   54.55    1.11
  -1   4  -4   52.61    1.37
  -1  -4   4   54.73    1.12
   2  -4   4   93.40    1.84
  -2   4   4   94.20    1.90
  -2  -4  -4   97.79    1.74
   2  -4   4   95.08    1.51
  -2   4   4   94.30    1.56
  -2  -4   4   96.87    1.82
  -2  -4   4   96.49    1.83
   2  -4  -4   93.60    1.67
  -3   4   4    6.02    0.52
   3  -4   4    6.71    0.55
  -3   4   4    6.79    0.41
   3  -4   4    6.57    0.34
   3  -4  -4    7.53    0.51
   3   4   4    6.57    0.48
  -3  -4   4    8.07    0.57
  -3  -4   4    7.27    0.50
  -4   4   4  201.60    3.18
  -4   4   4  198.51    3.58
   4  -4   4  194.09    3.49
   4   4   4  196.57    3.47
   4  -4  -4  193.72    3.37
  -4  -4   4  198.81    3.47
  -5   4   4   66.83    1.82
   5  -4   4   65.32    1.78
   5   4  -4   69.96    1.80
   5   4   4   65.78    1.73
   5  -4  -4   65.53    1.70
   6  -4   4    3.46    0.61
   6   4  -4    3.91    0.59
  -6   4   4    4.15    0.72
   6   4   4    3.97    0.62
   6  -4  -4    2.00    0.52
   7  -4   4   14.83    1.02
   7   4  -4   13.89    1.01
   7   4   4   15.95    1.03
   7  -4  -4   14.54    0.97
   8  -4   4    5.66    0.83
   8   4  -4    5.32    0.84
   8   4   4    5.25    0.83
   8  -4  -4    6.64    0.88
   9  -4  -4    1.46    0.73
   9   4   4    1.98    0.71
   0   5  -4   -0.24    0.27
   0  -5  -4    0.05    0.16
   0   5   4    0.16    0.14
   0   5   4    0.09    0.20
   0  -5   4    0.01    0.16
   0  -5   4   -0.12    0.19
  -1   5   4    0.46    0.17
   1  -5   4    0.67    0.26
  -1   5   4    0.48    0.24
  -1  -5  -4    0.60    0.20
   1  -5   4    0.67    0.16
   1   5  -4    0.76    0.26
  -1  -5   4    0.47    0.22
  -1   5  -4    0.54    0.38
   1   5   4    0.57    0.22
   1   5   4    0.00    0.17
  -1  -5   4    0.37    0.22
   1  -5  -4    0.64    0.20
   2   5  -4    5.36    0.37
  -2   5   4    5.51    0.50
  -2  -5  -4    5.98    0.43
  -2   5   4    6.34    0.35
   2  -5   4    5.27    0.48
  -2   5  -4    6.90    0.70
  -2  -5   4    6.23    0.48
   2   5   4    5.56    0.41
  -2  -5   4    6.42    0.47
   2  -5  -4    5.82    0.42
  -3   5   4   83.39    1.90
   3  -5   4   85.72    1.85
  -3  -5  -4   82.50    1.73
   3   5   4   82.25    1.74
  -3  -5   4   82.08    1.80
   3  -5  -4   79.35    1.66
  -3  -5   4   81.42    1.78
  -4   5   4   10.67    0.81
   4  -5   4   10.67    0.73
   4   5   4   10.02    0.67
  -4  -5   4    9.23    0.66
   4  -5  -4    9.25    0.61
   5  -5   4    1.53    0.50
   5   5  -4    1.89    0.44
  -5   5   4    2.27    0.57
   5   5   4    2.10    0.47
   5  -5  -4    1.91    0.46
  -6   5   4   10.85    1.00
   6  -5   4    9.06    0.83
   6   5  -4   10.17    0.87
   6   5   4   10.70    0.87
   6  -5  -4   10.34    0.85
   7   5  -4   12.60    1.06
   7  -5   4   11.15    1.02
  -7   5   4   11.88    1.14
   7  -5  -4   13.45    1.05
   7   5   4   10.98    1.00
   8   5  -4    1.03    0.56
   8  -5   4    0.61    0.58
   8   5   4    1.00    0.55
   8  -5  -4    0.62    0.60
   9  -5  -4   10.59    1.14
   0   6  -4    7.44    0.59
   0  -6  -4    8.04    0.44
   0   6   4    7.28    0.39
   0   6   4    8.15    0.55
   1   6  -4    2.60    0.38
  -1  -6  -4    2.57    0.32
  -1   6   4    2.73    0.40
   1  -6   4    2.74    0.40
  -1   6  -4    3.03    0.53
  -1  -6   4    2.60    0.32
  -1  -6   4    2.92    0.40
   1  -6  -4    2.53    0.31
   1   6   4    3.22    0.40
   1   6   4    3.51    0.33
   2  -6   4   87.46    1.89
  -2  -6  -4   84.92    1.73
  -2   6   4   85.87    1.96
   2   6   4   87.04    1.75
  -2  -6   4   88.68    1.88
   2  -6  -4   87.32    1.70
  -2   6  -4   88.26    2.20
  -3   6   4    4.22    0.55
   3  -6   4    4.30    0.55
  -3  -6  -4    4.17    0.45
   3  -6  -4    4.68    0.47
  -3  -6   4    5.02    0.53
   4  -6   4   49.63    1.48
  -4   6   4   50.53    1.58
   4   6   4   52.03    1.45
   4  -6  -4   47.70    1.35
  -4  -6   4   52.29    1.47
   5  -6   4   15.18    0.90
  -5   6   4   16.22    1.06
  -5  -6   4   15.10    0.88
   5   6   4   14.32    0.87
   5  -6  -4   16.17    0.89
   6  -6   4    9.02    0.84
  -6   6   4    7.92    0.93
   6   6  -4    8.89    0.84
   6  -6  -4    8.46    0.78
   6   6   4   10.44    0.89
  -7   6   4   -0.58    0.68
   7   6  -4    0.22    0.44
   7  -6   4   -0.51    0.45
   7  -6  -4    0.09    0.48
   7   6   4    0.02    0.42
   8  -6   4    8.91    1.00
   8   6  -4   10.44    1.08
   8   6   4    9.04    0.99
   8  -6  -4   12.68    1.15
   0  -7   4    0.07    0.27
   0   7  -4   -0.08    0.38
   0   7   4   -0.10    0.25
   0  -7  -4    0.10    0.22
  -1   7   4    2.50    0.44
   1   7  -4    3.15    0.46
  -1  -7  -4    3.86    0.41
   1  -7   4    4.09    0.50
  -1  -7   4    4.08    0.47
   1   7   4    3.46    0.35
  -1   7  -4    3.39    0.61
   1  -7  -4    3.61    0.38
   1   7   4    3.27    0.45
  -2  -7  -4   10.52    0.60
   2  -7   4   11.02    0.69
  -2   7   4   10.53    0.74
  -2  -7   4   11.60    0.70
   2  -7  -4   11.18    0.59
   2   7   4   10.21    0.67
   2   7   4   11.12    0.59
  -2   7  -4   11.49    0.96
  -3  -7  -4   43.26    1.23
   3  -7   4   39.67    1.30
  -3   7   4   40.47    1.41
   3  -7  -4   42.34    1.20
  -3  -7   4   39.82    1.27
  -3   7  -4   44.92    1.71
   4  -7   4   10.30    0.75
  -4   7   4   10.79    0.92
   4  -7  -4   10.55    0.70
   4   7   4   12.15    0.73
  -4  -7   4   10.70    0.73
  -5   7   4    8.44    0.92
   5  -7   4    8.61    0.79
   5   7   4    8.62    0.77
  -5  -7   4    6.94    0.72
   5  -7  -4    8.55    0.74
  -6   7   4    9.72    1.07
   6   7  -4    8.65    0.86
   6  -7   4    8.95    0.87
   6  -7  -4    8.91    0.83
   6   7   4    9.89    0.91
   7   7  -4    8.07    0.91
  -7   7   4    5.82    1.01
   7  -7   4    7.93    0.93
   7  -7  -4    6.93    0.84
   7   7   4    6.25    0.82
   8   7   4   -0.14    0.47
   0  -8   4    1.84    0.40
   0   8   4    2.51    0.45
   0   8  -4    1.72    0.52
   0  -8  -4    2.50    0.39
  -1  -8  -4    8.87    0.58
   1  -8   4    8.16    0.61
  -1   8   4    9.04    0.75
   1  -8  -4    8.59    0.56
   1   8   4    9.33    0.69
  -1   8  -4    8.95    0.85
  -1  -8   4    9.12    0.68
  -2  -8  -4   33.81    1.08
  -2   8   4   33.22    1.27
   2  -8   4   35.58    1.22
   2   8   4   30.55    1.11
  -2   8  -4   33.91    1.46
   2  -8  -4   32.28    1.02
  -2  -8   4   33.69    1.16
  -3  -8  -4    0.47    0.33
   3  -8   4    0.24    0.37
  -3   8   4    0.58    0.45
  -3   8  -4    0.74    0.68
   3   8   4    0.13    0.28
   3  -8  -4    0.65    0.33
  -3  -8   4    0.33    0.33
   3   8   4    0.54    0.29
  -4  -8  -4   65.16    1.74
   4  -8   4   62.93    1.82
  -4   8   4   64.44    1.98
  -4  -8   4   65.48    1.81
   4  -8  -4   68.29    1.71
  -5   8   4   18.78    1.26
   5  -8   4   18.67    1.07
   5  -8  -4   19.01    0.97
   5   8   4   18.13    0.98
  -5  -8   4   15.67    0.95
  -6   8   4    1.09    0.69
   6  -8   4    1.74    0.56
   6   8  -4    2.67    0.59
   6   8   4    2.66    0.58
   7  -8   4    2.01    0.64
   7   8  -4    1.73    0.60
  -7   8   4    0.59    0.81
   7   8   4    1.85    0.62
   0  -9   4    0.03    0.33
   0  -9  -4    0.14    0.29
   0   9   4    0.06    0.36
  -1  -9  -4    0.37    0.31
   1  -9   4    0.78    0.37
  -1   9   4    0.23    0.40
  -1   9  -4   -0.51    0.50
  -1  -9   4   -0.04    0.31
   1  -9  -4   -0.17    0.28
   1   9   4   -0.10    0.30
   2  -9   4    0.16    0.35
  -2  -9  -4    0.08    0.30
  -2   9   4    0.17    0.39
  -2   9  -4   -0.07    0.54
   2   9   4    0.07    0.32
  -2  -9   4    0.00    0.32
  -3   9   4   36.30    1.49
   3  -9   4   33.20    1.29
  -3  -9  -4   36.17    1.24
  -3  -9   4   34.53    1.29
   3   9   4   38.24    1.31
  -3   9  -4   35.45    1.67
   4  -9   4    1.00    0.44
  -4  -9  -4    1.22    0.43
  -4   9   4   -0.39    0.47
  -4  -9   4    1.01    0.45
  -5   9   4   -0.35    0.56
   5  -9   4   -0.24    0.40
  -5  -9   4    0.56    0.44
   5   9   4    0.24    0.40
   6  -9   4    7.60    0.91
  -6   9   4    7.80    1.11
   6   9  -4    6.54    0.83
   6   9   4    7.30    0.85
  -6  -9   4    7.40    0.88
   0  10   4    5.54    0.71
   0 -10   4    5.40    0.64
  -1  10   4   36.67    1.47
   1 -10   4   36.01    1.31
  -1 -10   4   33.95    1.31
  -1  10  -4   31.38    1.52
   1  10   4   33.87    1.36
   2 -10   4   21.40    1.05
  -2  10   4   19.27    1.18
  -2  10  -4   19.01    1.37
   2  10   4   18.80    1.02
  -2 -10   4   18.72    1.01
   3 -10   4    0.93    0.47
  -3  10   4    0.34    0.51
  -3 -10   4    0.56    0.44
  -3  10  -4    0.13    0.72
  -4  10   4   28.39    1.47
   4 -10   4   27.46    1.28
  -4 -10   4   28.31    1.26
   5 -10   4   20.58    1.19
  -5  10   4   20.20    1.46
  -5 -10   4   20.53    1.15
   5  10   4   19.67    1.12
  -6  10   4   -0.34    0.81
   6  10   4    1.45    0.51
   0 -11   4    0.01    0.38
   0  11   4   -0.18    0.40
   1 -11   4    1.78    0.49
  -1  11   4    0.74    0.50
   1  11   4    0.99    0.49
  -1 -11   4    0.74    0.42
  -2  11   4    1.77    0.62
   2 -11   4    1.97    0.54
  -2 -11   4    2.54    0.57
  -2  11  -4    0.69    0.75
  -3  11   4   13.15    1.19
   3 -11   4   15.24    1.01
  -3 -11   4   15.41    0.99
  -3  11  -4   15.41    1.44
   4 -11   4    4.82    0.72
  -4  11   4    2.86    0.79
  -4 -11   4    4.79    0.74
   0  12   4    0.15    0.51
   0 -12   4    1.03    0.48
  -1  12   4    1.94    0.63
   1 -12   4    2.03    0.58
  -1 -12   4    2.55    0.62
  -2  12   4   16.53    1.23
   2 -12   4   14.84    1.04
  -2 -12   4   18.83    1.14
  -3  12   4   -1.10    0.59
  -3  12  -4   -0.85    0.81
   0   0   5    0.05    0.15
   0   0   5   -0.07    0.09
   1   0   5   43.93    0.92
   1   0   5   43.55    0.82
  -1   0   5   43.99    0.78
   2   0   5   26.74    0.74
  -2   0   5   27.87    0.75
   2   0  -5   28.11    0.71
  -2   0   5   28.26    0.62
   2   0   5   29.46    0.75
   3   0   5    7.32    0.48
   3   0  -5    6.80    0.47
  -3   0   5    7.00    0.47
   3   0   5    8.36    0.50
  -3   0   5    6.99    0.39
  -4   0   5   25.82    0.89
   4   0  -5   26.61    0.91
   4   0   5   27.22    0.95
  -4   0   5   26.41    0.83
   5   0  -5   29.80    1.11
   5   0   5   29.35    1.10
  -5   0   5   26.85    1.00
   6   0   5   58.78    1.76
   6   0  -5   57.17    1.72
   7   0  -5   12.84    1.02
   7   0   5   13.32    0.95
   8   0   5   10.20    1.02
   8   0  -5    8.62    0.98
   9   0  -5   -0.64    0.58
   9   0   5   -0.14    0.57
   0  -1   5    8.40    0.32
   0  -1   5    7.76    0.39
   0   1   5    7.74    0.36
   1  -1   5  105.29    1.70
   1  -1   5  104.69    1.72
   1   1   5  102.56    1.60
   1  -1  -5  104.34    1.56
  -1  -1   5  105.49    1.76
   1   1   5  105.04    1.76
  -1  -1   5  105.79    1.67
   2  -1   5  158.92    2.50
  -2   1   5  155.42    2.46
  -2   1   5  150.79    2.44
   2  -1   5  154.61    2.44
   2   1   5  154.81    2.45
   2   1   5  152.45    2.51
  -2  -1   5  155.84    2.44
   2  -1  -5  149.44    2.40
  -2  -1   5  151.46    2.50
  -3   1   5    8.67    0.52
   3   1  -5    9.36    0.52
  -3   1   5    7.99    0.45
   3  -1   5    8.40    0.56
   3  -1   5    8.80    0.45
   3   1   5    8.91    0.50
   3  -1  -5    8.36    0.50
  -3  -1   5    8.87    0.52
   4  -1   5  178.28    3.15
  -4   1   5  175.10    3.02
   4   1  -5  183.28    3.14
  -4   1   5  174.61    2.99
   4   1   5  179.80    3.14
  -4  -1   5  173.52    3.08
   4  -1  -5  172.55    3.07
   5  -1   5   45.28    1.42
  -5   1   5   44.84    1.33
  -5   1   5   46.46    1.31
   5   1  -5   46.43    1.39
   5  -1  -5   45.24    1.35
  -5  -1   5   45.64    1.35
   5   1   5   47.92    1.43
   6   1  -5    3.63    0.60
   6  -1   5    3.84    0.62
   6   1   5    3.49    0.59
   6  -1  -5    3.72    0.60
   7   1  -5   19.27    1.09
   7  -1   5   18.19    1.08
   7   1   5   17.26    1.05
   7  -1  -5   16.83    1.04
   8  -1   5    8.00    0.92
   8   1  -5   12.22    1.10
   8  -1  -5   11.59    1.09
   8   1   5   11.09    1.08
   9  -1   5    8.14    1.03
   9   1  -5    7.98    1.04
   9  -1  -5    6.30    0.96
   9   1   5    6.98    0.98
   0   2   5    0.02    0.15
   0  -2  -5   -0.05    0.06
   0  -2   5   -0.15    0.13
   0  -2   5    0.29    0.19
  -1   2   5  149.88    2.36
  -1   2   5  153.61    2.50
   1  -2   5  151.11    2.33
   1  -2   5  154.23    2.41
  -1  -2   5  154.57    2.41
   1   2   5  156.05    2.43
   1   2   5  153.26    2.25
   1  -2  -5  150.23    2.17
  -1  -2   5  148.83    2.37
  -2   2   5   11.93    0.50
  -2   2   5   13.03    0.50
   2  -2   5   12.96    0.56
   2  -2   5   12.48    0.46
   2   2   5   11.46    0.51
   2  -2  -5   11.95    0.46
  -2  -2   5   13.47    0.52
   2   2   5   12.44    0.48
  -2  -2   5   11.99    0.53
   3  -2   5    0.86    0.28
  -3   2   5    0.90    0.25
   3  -2   5    1.01    0.22
  -3   2   5    1.28    0.25
  -3  -2   5    1.39    0.27
  -3  -2   5    0.83    0.27
   3   2   5    1.81    0.31
   3  -2  -5    0.70    0.26
  -4   2   5   11.70    0.67
   4  -2   5   10.94    0.68
   4  -2   5   11.16    0.55
  -4   2   5   10.65    0.56
   4   2  -5   12.16    0.68
   4  -2  -5   11.11    0.65
  -4  -2   5   10.52    0.64
   4   2   5   12.64    0.70
  -5   2   5    0.19    0.40
  -5   2   5    0.43    0.30
   5   2  -5   -0.23    0.29
   5  -2   5   -0.05    0.39
  -5  -2   5    0.39    0.33
   5  -2  -5   -0.15    0.35
   5   2   5    1.00    0.41
  -6   2   5   13.11    1.01
   6   2  -5   15.32    0.93
   6  -2   5   12.64    0.89
   6   2   5   13.99    0.89
   6  -2  -5   12.12    0.93
   7  -2   5   18.64    1.10
   7  -2  -5   20.09    1.10
   7   2   5   18.32    1.08
   8  -2   5    1.67    0.63
   8   2  -5    1.22    0.59
   8   2   5    1.72    0.61
   8  -2  -5    2.13    0.64
   9   2  -5   -0.20    0.56
   9  -2   5   -0.24    0.54
   9  -2  -5   -0.86    0.60
   9   2   5   -0.24    0.54
   0  -3   5    5.63    0.37
   0   3   5    5.60    0.35
   0  -3  -5    5.26    0.22
   0  -3   5    5.25    0.35
   1  -3   5    5.95    0.39
   1  -3   5    5.70    0.32
  -1   3   5    5.55    0.34
  -1   3   5    6.09    0.40
  -1  -3  -5    5.11    0.29
   1  -3  -5    5.54    0.26
  -1  -3   5    6.13    0.41
  -1  -3   5    5.26    0.37
   1   3   5    5.56    0.38
  -2   3   5  161.20    2.55
   2  -3   5  162.59    2.73
   2  -3   5  164.66    2.50
  -2   3   5  167.26    2.80
   2   3   5  164.31    2.61
  -2  -3   5  163.13    2.71
  -2  -3   5  163.86    2.71
   2  -3  -5  161.00    2.52
   2   3   5  162.25    2.71
   3  -3   5   14.07    0.52
  -3   3   5   13.72    0.56
  -3   3   5   14.29    0.66
   3  -3   5   13.48    0.66
   3   3   5   15.32    0.64
   3  -3  -5   13.83    0.59
  -3  -3   5   12.42    0.62
  -3  -3   5   12.72    0.64
   4   3  -5  138.85    2.66
   4  -3   5  142.15    2.71
   4  -3   5  137.74    2.38
  -4   3   5  140.64    2.65
  -4   3   5  145.36    2.48
   4   3   5  134.95    2.62
  -4  -3   5  141.23    2.64
  -4  -3   5  141.69    2.69
   4  -3  -5  136.97    2.55
  -5   3   5    4.40    0.60
   5  -3   5    4.88    0.46
   5  -3   5    3.66    0.56
  -5   3   5    3.72    0.45
   5   3  -5    3.83    0.52
   5   3   5    4.17    0.54
  -5  -3   5    3.64    0.51
   5  -3  -5    3.42    0.51
  -6   3   5    2.08    0.61
   6   3  -5    3.90    0.59
   6  -3   5    3.17    0.44
   6  -3   5    2.81    0.60
   6  -3  -5    2.60    0.56
   6   3   5    2.58    0.53
   7  -3   5    1.32    0.55
   7   3  -5    0.75    0.46
   7   3   5    0.71    0.52
   7  -3  -5    1.10    0.56
   8   3  -5    9.44    1.02
   8  -3   5    8.95    0.99
   8   3   5    7.51    0.93
   8  -3  -5   10.85    1.01
   9   3  -5    4.08    0.86
   9  -3   5    2.06    0.73
   9  -3  -5    4.83    0.90
   9   3   5    3.72    0.86
   0  -4  -5    0.06    0.13
   0   4   5   -0.12    0.17
   0  -4   5   -0.05    0.18
   0  -4   5    0.14    0.18
   0   4   5    0.11    0.15
   1  -4   5   44.09    0.88
  -1  -4  -5   43.62    0.90
   1  -4   5   43.53    1.07
  -1   4   5   43.15    1.11
  -1   4   5   44.04    0.91
  -1  -4   5   43.22    1.04
   1  -4  -5   44.70    0.86
  -1  -4   5   43.70    1.00
   1   4   5   44.45    1.01
   2  -4   5   24.35    0.61
  -2   4   5   25.69    0.87
  -2   4   5   24.91    0.67
   2  -4   5   23.96    0.81
  -2  -4  -5   25.86    0.74
  -2  -4   5   26.18    0.82
   2   4   5   24.10    0.71
   2  -4  -5   25.91    0.69
  -2  -4   5   24.62    0.82
   2   4   5   25.26    0.81
   3  -4   5    1.84    0.37
   3  -4   5    2.23    0.25
  -3   4   5    2.19    0.29
  -3   4   5    1.64    0.33
   3   4   5    1.76    0.30
   3  -4  -5    1.91    0.32
  -3  -4   5    2.27    0.35
  -3  -4   5    2.14    0.37
   4  -4   5   38.09    1.23
  -4   4   5   40.30    1.25
  -4   4   5   41.34    1.05
  -4  -4   5   40.78    1.25
   4  -4  -5   41.07    1.17
  -4  -4   5   39.99    1.21
   4   4   5   40.88    1.22
  -5   4   5    3.12    0.55
  -5   4   5    2.38    0.38
   5   4  -5    1.44    0.41
   5  -4   5    2.24    0.50
   5   4   5    2.69    0.49
   5  -4  -5    1.43    0.45
  -6   4   5   19.64    1.18
   6  -4   5   18.05    1.02
   6   4  -5   18.10    0.99
   6   4   5   17.40    1.02
   6  -4  -5   16.98    0.93
   7   4  -5   31.83    1.41
  -7   4   5   32.84    1.51
   7  -4   5   32.53    1.44
   7   4   5   30.35    1.37
   7  -4  -5   33.62    1.41
   8  -4   5    1.08    0.58
   8   4  -5    0.19    0.51
   8  -4  -5    0.58    0.53
   8   4   5    0.62    0.58
   9  -4  -5   -0.42    0.62
   9   4   5   -0.24    0.55
   0   5   5   25.96    0.70
   0   5   5   25.67    0.90
   0   5  -5   25.25    0.95
   0  -5   5   26.11    0.82
   0  -5   5   26.91    0.69
   0  -5  -5   26.38    0.67
   1  -5   5   27.44    0.65
   1   5  -5   27.76    0.85
  -1   5   5   28.44    0.96
  -1  -5  -5   28.93    0.75
   1  -5   5   28.04    0.88
  -1   5   5   29.28    0.70
   1  -5  -5   29.04    0.71
  -1  -5   5   27.98    0.88
   1   5   5   29.20    0.80
  -1  -5   5   28.17    0.79
   2  -5   5   70.45    1.59
  -2  -5  -5   68.96    1.42
  -2   5   5   70.99    1.28
  -2   5   5   69.97    1.64
  -2  -5   5   67.50    1.53
   2   5   5   70.24    1.49
  -2  -5   5   69.87    1.51
   2  -5  -5   68.56    1.36
  -3   5   5    6.06    0.58
  -3   5   5    6.03    0.43
   3  -5   5    4.55    0.53
   3   5   5    5.36    0.48
   3  -5  -5    4.44    0.43
  -3  -5   5    5.80    0.53
  -3  -5   5    4.65    0.48
  -4   5   5   94.16    2.18
   4  -5   5   97.54    2.17
  -4  -5   5   96.70    2.11
   4   5   5   98.17    2.09
   4  -5  -5   95.89    1.99
  -4  -5   5   93.92    2.12
  -5   5   5   19.11    1.12
   5  -5   5   20.21    1.00
   5   5  -5   19.29    0.98
   5  -5  -5   20.27    0.95
  -5  -5   5   19.05    0.96
   5   5   5   21.17    0.97
   6  -5   5    2.71    0.60
  -6   5   5    2.34    0.63
   6   5  -5    2.92    0.56
   6  -5  -5    2.72    0.57
   6   5   5    1.97    0.50
   7   5  -5    7.00    0.82
  -7   5   5    6.93    0.97
   7  -5   5    5.36    0.76
   7  -5  -5    8.22    0.85
   7   5   5    7.24    0.85
   8   5  -5    6.43    0.87
   8  -5   5    6.76    0.93
   8  -5  -5    6.04    0.88
   8   5   5    6.36    0.88
   0   6   5    0.17    0.25
   0   6   5   -0.08    0.16
   0  -6   5   -0.03    0.23
   0   6  -5    0.10    0.37
   0  -6  -5   -0.05    0.19
  -1   6   5   50.05    1.01
   1   6  -5   51.11    1.27
   1  -6   5   50.42    1.32
  -1  -6  -5   51.13    1.13
  -1   6   5   48.58    1.36
  -1  -6   5   51.30    1.18
  -1   6  -5   48.59    1.54
   1  -6  -5   49.97    1.09
   1   6   5   52.40    1.16
   1   6   5   50.01    1.34
  -1  -6   5   51.12    1.30
  -2   6   5    4.00    0.49
   2  -6   5    4.06    0.47
  -2  -6  -5    5.05    0.44
   2   6   5    4.49    0.43
   2  -6  -5    4.89    0.41
  -2  -6   5    4.69    0.46
  -2  -6   5    4.87    0.50
  -3  -6  -5    4.49    0.47
   3  -6   5    4.29    0.54
  -3   6   5    3.82    0.55
   3  -6  -5    4.20    0.44
  -3  -6   5    3.15    0.45
   3   6   5    4.79    0.50
  -3  -6   5    3.57    0.48
   4  -6   5    2.19    0.50
  -4   6   5    1.70    0.48
   4  -6  -5    2.04    0.42
  -4  -6   5    2.42    0.48
   4   6   5    1.21    0.38
  -5   6   5    6.22    0.75
   5  -6   5    8.28    0.79
   5  -6  -5    6.81    0.66
   5   6   5    7.12    0.69
  -5  -6   5    7.20    0.69
  -6   6   5   16.91    1.23
   6  -6   5   17.20    1.02
   6   6  -5   17.99    1.02
   6   6   5   17.38    1.01
   6  -6  -5   17.08    0.97
   7  -6   5    3.01    0.66
   7   6  -5    4.66    0.75
  -7   6   5    3.28    0.87
   7   6   5    5.54    0.75
   7  -6  -5    3.64    0.66
   8   6  -5    0.25    0.54
   8  -6   5    0.71    0.58
   8   6   5    0.32    0.54
   0   7  -5    1.59    0.50
   0   7   5    1.56    0.37
   0  -7  -5    1.57    0.30
   0  -7   5    2.49    0.42
  -1  -7  -5   60.72    1.36
   1  -7   5   60.51    1.54
  -1   7   5   59.58    1.64
   1   7   5   60.06    1.59
  -1   7  -5   63.78    1.81
  -1  -7   5   60.93    1.53
   1  -7  -5   61.75    1.33
   1   7   5   58.24    1.29
   2  -7   5   46.20    1.36
  -2   7   5   45.96    1.46
  -2  -7  -5   47.65    1.22
   2   7   5   45.72    1.21
   2  -7  -5   44.39    1.14
  -2   7  -5   46.29    1.72
  -2  -7   5   47.10    1.36
   2   7   5   45.86    1.37
   3  -7   5    8.86    0.73
  -3   7   5    7.06    0.71
  -3  -7  -5    9.00    0.59
  -3  -7   5    7.75    0.68
   3  -7  -5    8.35    0.58
   3   7   5    8.29    0.66
  -4   7   5   69.70    2.00
   4  -7   5   65.78    1.83
  -4  -7   5   71.19    1.85
   4   7   5   72.66    1.80
   4  -7  -5   70.46    1.68
   5  -7   5   23.49    1.12
  -5   7   5   24.25    1.26
   5   7   5   24.61    1.11
  -5  -7   5   23.76    1.11
   5  -7  -5   21.78    1.00
   6  -7   5    0.36    0.49
   6   7  -5    1.36    0.46
  -6   7   5    1.79    0.73
   6   7   5    0.25    0.42
   7   7  -5    7.42    0.88
   7  -7   5    5.93    0.82
  -7   7   5    6.54    1.04
   7   7   5    5.90    0.82
   8   7   5    7.14    0.93
   0  -8  -5    0.21    0.26
   0  -8   5   -0.10    0.30
   0   8   5    0.07    0.30
   0   8  -5    0.48    0.53
   1  -8   5   16.75    0.82
  -1   8   5   18.63    0.96
  -1  -8  -5   18.20    0.78
  -1  -8   5   19.38    0.88
   1   8   5   17.79    0.90
  -1   8  -5   16.73    1.17
   2  -8   5   10.47    0.72
  -2  -8  -5   11.68    0.66
  -2   8   5   10.78    0.81
  -2   8  -5   10.34    1.01
   2   8   5   10.22    0.75
  -2  -8   5   11.56    0.72
  -3   8   5    1.72    0.49
   3  -8   5    1.51    0.42
  -3  -8  -5    1.63    0.40
   3   8   5    1.73    0.38
   3   8   5    1.92    0.42
  -3  -8   5    1.43    0.41
   4  -8   5   16.50    0.94
  -4   8   5   17.25    1.06
  -4  -8   5   15.83    0.92
   4   8   5   18.67    0.93
   4   8   5   18.23    0.91
  -5   8   5    2.99    0.74
   5  -8   5    2.46    0.57
   5   8   5    3.62    0.58
  -5  -8   5    2.54    0.55
  -6   8   5    8.54    1.04
   6  -8   5    9.95    0.96
   6   8  -5    9.75    0.94
   6   8   5    9.90    0.93
  -7   8   5   12.12    1.29
   7  -8   5   12.61    1.11
   7   8  -5   13.39    1.17
   7   8   5   12.47    1.08
   0  -9   5    3.30    0.53
   0   9   5    3.33    0.56
  -1   9   5    2.09    0.49
   1  -9   5    2.76    0.47
  -1   9  -5    3.12    0.68
  -1  -9   5    2.76    0.50
   1   9   5    2.09    0.48
   2  -9   5   38.50    1.35
  -2   9   5   40.68    1.52
  -2  -9   5   37.41    1.33
  -2   9  -5   39.63    1.66
   2   9   5   42.78    1.40
   3  -9   5    3.11    0.55
  -3   9   5    2.12    0.57
   3   9   5    2.14    0.47
  -3  -9   5    2.58    0.50
   4  -9   5   29.24    1.25
  -4   9   5   28.17    1.43
   4   9   5   30.51    1.21
  -4  -9   5   28.84    1.23
  -5   9   5    2.41    0.72
   5  -9   5    3.53    0.67
   5   9   5    2.88    0.56
   5   9   5    3.02    0.55
  -5  -9   5    2.71    0.59
   6  -9   5    0.38    0.51
   6   9  -5    0.15    0.43
  -6   9   5   -0.20    0.67
  -6  -9   5   -0.19    0.43
   6   9   5    0.70    0.49
   0 -10   5    0.10    0.37
   0  10   5   -0.64    0.35
   1 -10   5   15.93    0.91
  -1  10   5   15.19    0.99
  -1 -10   5   16.17    0.92
   1  10   5   15.60    0.96
   2 -10   5    2.19    0.50
  -2  10   5    1.80    0.54
  -2 -10   5    2.12    0.50
  -2  10  -5    1.63    0.77
   2  10   5    2.28    0.52
   3 -10   5    1.30    0.50
  -3  10   5    1.22    0.55
  -3 -10   5    0.95    0.48
  -4  10   5    2.37    0.68
   4 -10   5    3.03    0.61
  -4 -10   5    2.65    0.58
  -5  10   5   -0.43    0.64
   5 -10   5    0.10    0.50
  -5 -10   5   -0.34    0.41
   0  11   5    1.33    0.53
   0 -11   5    1.85    0.53
  -1  11   5    7.18    0.83
   1 -11   5    8.02    0.80
   1  11   5    7.34    0.80
  -1 -11   5    7.81    0.79
  -2  11   5   10.05    1.00
   2 -11   5   10.45    0.89
  -2  11  -5   11.10    1.22
  -2 -11   5   11.81    0.88
   2  11   5    9.98    0.90
  -3  11   5    3.09    0.76
   3 -11   5    3.30    0.62
  -3 -11   5    3.35    0.63
  -4  11   5   25.01    1.54
   4 -11   5   28.13    1.37
  -4 -11   5   27.07    1.34
   0  12   5   -0.35    0.47
   0 -12   5    0.75    0.51
  -1  12   5    5.35    0.86
   1 -12   5    4.49    0.73
  -1 -12   5    7.11    0.82
   1  12   5    5.06    0.75
   2 -12   5    2.24    0.61
  -2  12   5    1.31    0.68
  -2 -12   5    1.69    0.56
  -3  12   5   -0.34    0.57
   0   0   6  211.97    3.22
   0   0   6  213.70    2.97
   1   0   6    0.22    0.16
  -1   0   6    0.14    0.11
   1   0   6    0.16    0.15
  -1   0   6    0.45    0.21
  -2   0   6  104.41    1.87
  -2   0   6  104.15    1.72
   2   0   6  106.76    1.83
   2   0   6  107.70    1.89
   2   0  -6  105.79    1.78
  -3   0   6   33.44    0.96
  -3   0   6   33.25    0.78
   3   0   6   33.97    0.96
   3   0  -6   32.56    0.90
   3   0   6   32.15    0.93
   4   0   6    0.45    0.31
   4   0  -6    0.75    0.29
   4   0   6    0.20    0.23
  -4   0   6    0.39    0.26
  -4   0   6    0.48    0.28
   5   0  -6    8.87    0.73
   5   0   6    7.07    0.68
  -5   0   6    8.74    0.69
  -6   0   6   39.25    1.35
   6   0   6   41.12    1.44
   6   0  -6   40.21    1.41
   7   0   6    3.15    0.67
   7   0  -6    3.50    0.63
   8   0   6   46.12    1.82
   8   0  -6   48.10    1.83
   9   0   6    3.43    0.78
   9   0  -6    1.69    0.76
   0  -1   6   -0.19    0.18
   0  -1   6   -0.07    0.12
   0   1   6   -0.15    0.16
  -1   1   6   25.75    0.70
   1  -1   6   25.47    0.64
   1  -1   6   25.20    0.67
  -1  -1   6   26.40    0.61
   1   1   6   27.59    0.56
   1   1   6   26.65    0.71
   1  -1  -6   25.89    0.51
  -2   1   6   74.25    1.44
   2  -1   6   76.15    1.45
   2  -1   6   76.40    1.43
  -2   1   6   75.42    1.39
   2  -1  -6   74.34    1.34
   2   1   6   74.91    1.48
  -2  -1   6   73.61    1.38
   2   1   6   77.86    1.41
  -3   1   6   27.62    0.76
   3  -1   6   28.10    0.80
   3   1  -6   25.97    0.82
   3  -1   6   26.51    0.87
  -3   1   6   26.24    0.83
   3  -1  -6   26.13    0.80
   3   1   6   25.56    0.83
   3   1   6   26.22    0.84
  -3  -1   6   26.19    0.61
  -3  -1   6   26.83    0.85
  -4   1   6    0.38    0.28
  -4   1   6   -0.03    0.24
   4   1  -6   -0.29    0.22
   4  -1   6   -0.03    0.21
   4  -1   6   -0.10    0.32
  -4  -1   6    0.14    0.26
   4   1   6    0.37    0.25
   4   1   6   -0.38    0.27
   4  -1  -6    0.21    0.29
   5  -1   6    7.40    0.55
   5  -1   6    9.12    0.75
   5   1  -6    7.92    0.68
  -5   1   6    6.97    0.62
  -5   1   6    8.83    0.66
   5   1   6    7.73    0.70
   5  -1  -6    6.28    0.61
  -5  -1   6    7.79    0.68
  -6   1   6    2.04    0.46
   6   1  -6    2.26    0.53
   6  -1   6    1.80    0.52
   6   1   6    2.07    0.54
  -6  -1   6    2.22    0.48
   6  -1  -6    1.46    0.47
   7   1  -6    5.04    0.75
   7  -1   6    6.18    0.78
   7   1   6    6.43    0.78
   7  -1  -6    6.70    0.82
   8   1  -6   23.63    1.31
   8  -1   6   24.19    1.31
   8   1   6   24.97    1.36
   8  -1  -6   26.30    1.39
   9  -1   6    1.16    0.73
   9  -1   6    0.67    0.47
   9   1  -6    1.13    0.70
   9   1   6   -0.06    0.57
   9  -1  -6   -0.34    0.63
   0  -2   6  916.70   12.36
   0   2   6  890.04   12.41
   0  -2   6  909.70   12.39
  -1   2   6    2.18    0.27
  -1   2   6    1.70    0.25
   1  -2   6    2.00    0.25
   1  -2   6    2.18    0.27
   1   2   6    1.91    0.18
   1   2   6    2.13    0.26
   1  -2  -6    2.28    0.15
  -1  -2   6    1.89    0.23
  -1  -2   6    1.97    0.28
   2  -2   6   59.15    1.26
   2  -2   6   60.69    1.18
  -2   2   6   56.43    1.22
  -2   2   6   55.21    1.19
  -2  -2   6   58.04    1.26
   2   2   6   58.96    1.17
   2  -2  -6   58.23    1.09
   2   2   6   57.17    1.26
  -2  -2   6   58.22    1.21
   3  -2   6    1.12    0.33
  -3   2   6    1.09    0.28
  -3   2   6    1.86    0.28
   3  -2   6    1.32    0.25
   3  -2  -6    0.61    0.25
  -3  -2   6    1.01    0.27
   3   2   6    1.19    0.28
   3   2   6    1.89    0.32
  -3  -2   6    1.15    0.29
  -4   2   6    5.87    0.50
   4  -2   6    6.21    0.47
  -4   2   6    7.43    0.52
   4   2  -6    6.36    0.56
   4  -2   6    6.05    0.57
  -4  -2   6    5.20    0.52
   4  -2  -6    6.08    0.53
   4   2   6    6.51    0.55
   5  -2   6    0.62    0.41
   5  -2   6    0.36    0.28
  -5   2   6   -0.19    0.28
  -5   2   6   -0.15    0.39
   5   2  -6    0.53    0.35
   5  -2  -6    0.37    0.38
  -5  -2   6    0.32    0.33
   5   2   6    0.42    0.37
  -6   2   6   46.04    1.52
   6   2  -6   49.03    1.56
   6  -2   6   46.02    1.54
   6  -2   6   47.12    1.34
  -6   2   6   49.27    1.44
  -6  -2   6   45.15    1.48
   6   2   6   47.23    1.55
   6  -2  -6   47.92    1.55
   7  -2   6    4.71    0.57
   7  -2   6    3.25    0.68
   7   2  -6    4.26    0.68
   7   2   6    3.90    0.66
   7  -2  -6    3.35    0.63
   8   2  -6   24.91    1.36
   8  -2   6   26.28    1.36
   8   2   6   25.40    1.39
   8  -2  -6   26.33    1.38
   9  -2   6    3.10    0.77
   9   2  -6    1.53    0.68
   9  -2  -6    2.49    0.75
   9   2   6    1.31    0.72
   0   3   6   -0.26    0.15
   0  -3  -6    0.08    0.10
   0  -3   6   -0.14    0.16
   0  -3   6    0.02    0.20
   1  -3   6   31.90    0.77
  -1   3   6   31.23    0.90
  -1   3   6   30.74    0.77
   1  -3   6   32.02    0.84
  -1  -3   6   32.40    0.82
   1   3   6   31.04    0.82
   1  -3  -6   31.30    0.59
  -1  -3   6   33.68    0.85
   1   3   6   32.12    0.68
  -2   3   6  132.86    2.21
   2  -3   6  132.66    2.35
   2  -3   6  135.50    2.18
  -2   3   6  135.53    2.40
  -2  -3   6  131.03    2.32
   2   3   6  134.99    2.36
   2  -3  -6  134.07    2.11
  -2  -3   6  136.98    2.35
   2   3   6  132.03    2.21
  -3   3   6    5.41    0.42
   3  -3   6    5.74    0.39
   3  -3   6    5.35    0.49
  -3   3   6    5.36    0.45
   3  -3  -6    5.54    0.43
  -3  -3   6    6.83    0.52
   3   3   6    6.85    0.50
  -3  -3   6    4.93    0.48
   3   3   6    5.14    0.44
  -4   3   6    9.91    0.58
   4  -3   6    7.81    0.66
  -4   3   6    9.59    0.68
   4   3  -6   10.18    0.64
   4  -3   6    9.69    0.56
  -4  -3   6    8.64    0.64
   4  -3  -6    8.90    0.61
   4   3   6   10.02    0.66
  -4  -3   6    8.65    0.60
  -5   3   6    5.25    0.53
  -5   3   6    5.27    0.62
   5  -3   6    5.15    0.49
   5  -3   6    3.80    0.57
   5   3  -6    5.26    0.62
  -5  -3   6    5.30    0.61
   5  -3  -6    4.28    0.54
   5   3   6    4.46    0.57
   6  -3   6   -0.79    0.38
  -6   3   6   -0.18    0.44
   6   3  -6   -0.02    0.40
  -6   3   6   -0.03    0.31
   6  -3   6    0.34    0.30
   6  -3  -6   -0.19    0.42
   6   3   6    0.09    0.42
   7  -3   6   10.28    0.94
   7   3  -6   11.15    0.98
   7   3   6   11.59    0.98
   7  -3  -6   10.26    0.93
   8   3  -6   16.74    1.21
   8  -3   6   20.43    1.24
   8  -3  -6   20.65    1.26
   8   3   6   18.61    1.24
   9   3  -6    2.32    0.80
   9  -3  -6    2.38    0.79
   9   3   6    1.74    0.74
   0   4   6  319.84    4.68
   0  -4   6  322.27    4.63
   0  -4  -6  315.74    4.46
   0  -4   6  314.85    4.77
   1  -4   6    1.10    0.27
   1  -4   6    1.67    0.25
  -1   4   6    0.58    0.23
  -1  -4  -6    1.72    0.21
  -1   4   6    1.42    0.25
  -1  -4   6    1.26    0.25
   1  -4  -6    1.41    0.18
   1   4   6    1.34    0.24
  -1  -4   6    1.31    0.27
   2  -4   6   19.45    0.59
  -2   4   6   18.69    0.75
  -2   4   6   20.07    0.64
   2  -4   6   18.63    0.74
  -2  -4   6   19.18    0.71
   2   4   6   18.97    0.63
   2  -4  -6   19.41    0.57
   2   4   6   21.09    0.75
  -2  -4   6   18.52    0.71
  -3   4   6    0.93    0.31
   3  -4   6    0.87    0.35
   3  -4   6    0.18    0.20
  -3   4   6    0.13    0.24
  -3  -4   6    0.18    0.25
   3  -4  -6    0.55    0.25
   3   4   6    0.21    0.23
  -3  -4   6    0.58    0.30
   3   4   6    0.69    0.28
  -4   4   6    1.37    0.38
   4  -4   6    1.44    0.42
  -4   4   6    1.55    0.32
   4  -4  -6    1.23    0.36
  -4  -4   6    1.96    0.40
  -4  -4   6    1.40    0.41
   4   4   6    1.88    0.38
  -5   4   6    5.52    0.68
   5  -4   6    4.39    0.62
  -5   4   6    4.94    0.50
   5   4  -6    5.55    0.61
  -5  -4   6    6.05    0.67
   5   4   6    5.22    0.61
   5  -4  -6    4.48    0.57
   6  -4   6   56.12    1.77
  -6   4   6   57.10    1.79
   6   4  -6   53.30    1.71
   6   4   6   55.72    1.75
   6  -4  -6   55.15    1.65
   7  -4   6    1.00    0.56
   7   4  -6    0.54    0.48
  -7   4   6   -0.17    0.61
   7  -4  -6   -0.16    0.48
   7   4   6    0.34    0.49
   8  -4   6   17.96    1.25
   8   4  -6   19.66    1.23
   8   4   6   18.05    1.22
   8  -4  -6   18.22    1.20
   0  -5   6    0.09    0.19
   0  -5   6   -0.09    0.20
   0   5   6    0.13    0.23
   0  -5  -6   -0.03    0.15
   0   5   6    0.05    0.17
   1  -5   6   20.76    0.77
   1  -5   6   20.15    0.60
  -1   5   6   19.56    0.62
  -1   5   6   21.05    0.82
  -1  -5  -6   19.63    0.60
   1  -5  -6   20.52    0.56
  -1  -5   6   20.60    0.71
   1   5   6   20.98    0.68
  -1  -5   6   19.51    0.75
  -2  -5  -6   59.31    1.26
  -2   5   6   58.65    1.19
  -2   5   6   57.44    1.48
   2  -5   6   58.44    1.45
   2   5   6   59.76    1.38
  -2  -5   6   59.73    1.39
   2  -5  -6   59.47    1.20
  -2  -5   6   59.00    1.41
   3  -5   6   17.46    0.81
  -3   5   6   16.19    0.81
  -3   5   6   16.50    0.63
   3  -5  -6   16.52    0.67
   3   5   6   16.41    0.76
  -3  -5   6   17.05    0.77
   3   5   6   16.19    0.70
  -3  -5   6   16.27    0.80
  -4   5   6    1.14    0.43
   4  -5   6    1.32    0.44
   4   5   6    1.39    0.37
  -4  -5   6    1.21    0.39
   4   5   6    0.63    0.33
  -4  -5   6    1.57    0.44
   4  -5  -6    0.88    0.36
   5   5  -6    1.24    0.41
   5  -5   6    1.51    0.46
  -5   5   6    0.74    0.49
   5  -5  -6    1.20    0.42
  -5  -5   6    1.39    0.41
   5   5   6    0.79    0.40
   6   5  -6    0.74    0.43
  -6   5   6    1.20    0.60
   6  -5   6    1.14    0.48
   6   5   6    0.45    0.40
   6  -5  -6    0.76    0.47
   7  -5   6    9.06    0.92
   7   5  -6    8.24    0.89
  -7   5   6    8.87    1.01
   7   5   6    7.76    0.88
   7  -5  -6    7.76    0.86
   8   5  -6   18.71    1.27
   8  -5   6   21.14    1.28
   8   5   6   21.50    1.32
   0   6   6  230.39    3.53
   0  -6  -6  221.78    3.47
   0   6   6  234.55    4.00
   1  -6   6    4.20    0.47
  -1  -6  -6    4.47    0.38
  -1   6   6    3.24    0.44
  -1   6   6    4.04    0.34
   1   6   6    3.81    0.46
   1  -6  -6    4.51    0.35
  -1  -6   6    4.25    0.46
  -1  -6   6    5.17    0.44
   1   6   6    4.07    0.39
  -2  -6  -6   46.18    1.13
  -2   6   6   43.00    1.34
   2  -6   6   44.48    1.27
   2  -6  -6   46.60    1.06
   2   6   6   43.25    1.18
  -2  -6   6   45.07    1.22
  -2  -6   6   45.32    1.26
   3  -6   6    6.28    0.62
  -3   6   6    4.58    0.57
  -3  -6   6    5.01    0.54
   3  -6  -6    5.84    0.48
   3   6   6    5.69    0.56
   3   6   6    6.67    0.55
  -3  -6   6    5.81    0.56
   4  -6   6    1.75    0.46
  -4   6   6    1.59    0.45
  -4  -6   6    1.24    0.38
   4   6   6    2.06    0.42
   4  -6  -6    1.38    0.38
  -4  -6   6    1.79    0.44
   4   6   6    1.76    0.41
   5  -6   6    7.66    0.74
  -5   6   6    7.26    0.81
  -5  -6   6    7.78    0.74
   5   6   6    8.25    0.76
  -6   6   6   26.27    1.40
   6  -6   6   24.00    1.19
   6   6  -6   23.37    1.16
   6   6   6   23.49    1.17
  -7   6   6    3.54    0.86
   7  -6   6    3.54    0.70
   7   6  -6    4.05    0.72
   7   6   6    4.44    0.73
   8   6   6   21.28    1.34
   0  -7   6    0.31    0.29
   0   7   6    0.00    0.27
  -1   7   6    5.74    0.59
   1  -7   6    5.70    0.56
  -1  -7  -6    5.17    0.45
  -1  -7   6    5.51    0.56
   1   7   6    5.92    0.58
   1   7   6    5.10    0.44
   2  -7   6   36.74    1.22
  -2   7   6   36.55    1.31
  -2  -7  -6   37.01    1.05
   2   7   6   38.15    1.10
  -2  -7   6   34.93    1.17
  -2  -7   6   36.62    1.12
   2   7   6   35.10    1.21
  -3  -7  -6    8.86    0.61
  -3   7   6    8.28    0.76
   3  -7   6    8.89    0.75
  -3  -7   6    9.62    0.70
   3   7   6    8.89    0.62
  -4   7   6    0.25    0.41
   4  -7   6    0.61    0.40
   4   7   6    0.47    0.35
  -4  -7   6    0.23    0.33
   4   7   6    0.61    0.37
  -5   7   6    4.38    0.73
   5  -7   6    5.16    0.67
   5   7   6    3.96    0.57
   5   7   6    4.65    0.62
  -5  -7   6    4.50    0.63
   6   7  -6    1.00    0.48
  -6   7   6    0.80    0.66
   6  -7   6    0.44    0.47
   6   7   6    1.12    0.49
   7   7  -6    4.85    0.77
   7  -7   6    2.73    0.65
  -7   7   6    1.97    0.79
   7   7   6    2.48    0.61
   0   8   6   86.88    2.13
   0  -8   6   83.69    1.99
  -1   8   6    1.53    0.41
   1  -8   6    1.43    0.41
  -1  -8   6    1.44    0.38
   1   8   6    0.97    0.37
   2  -8   6   13.53    0.83
  -2   8   6   15.28    0.97
  -2  -8   6   13.82    0.79
   2   8   6   14.31    0.86
   3  -8   6    0.31    0.36
  -3   8   6    0.21    0.43
  -3  -8   6    0.43    0.37
   3   8   6    0.68    0.33
   3   8   6    0.62    0.33
   4  -8   6    1.47    0.49
  -4   8   6    0.43    0.48
   4   8   6    1.69    0.41
   4   8   6    1.97    0.46
  -4  -8   6    1.16    0.45
   5  -8   6    0.07    0.42
  -5   8   6    0.23    0.58
   5   8   6   -0.22    0.37
   5   8   6    0.27    0.39
  -5  -8   6    0.28    0.42
  -6   8   6   22.59    1.46
   6  -8   6   24.48    1.25
   6   8   6   23.28    1.21
   6   8   6   23.58    1.22
  -6  -8   6   23.96    1.25
  -7   8   6    2.13    0.89
   7   8   6    1.75    0.60
   7   8   6    2.18    0.61
   0   9   6   -0.15    0.32
   0  -9   6   -0.33    0.32
  -1   9   6   12.69    0.92
   1  -9   6   12.08    0.81
   1   9   6   13.08    0.84
  -1  -9   6   11.00    0.79
   2  -9   6   36.06    1.34
  -2   9   6   37.61    1.44
  -2  -9   6   35.29    1.32
   2   9   6   38.76    1.37
  -3   9   6    1.36    0.51
   3  -9   6    0.89    0.44
   3   9   6    1.73    0.45
  -3  -9   6    0.76    0.40
  -4   9   6    5.09    0.78
   4  -9   6    6.48    0.72
   4   9   6    5.77    0.66
   4   9   6    5.70    0.66
  -4  -9   6    7.43    0.77
   5  -9   6    1.84    0.55
  -5   9   6    0.92    0.62
  -5  -9   6    1.45    0.50
   5   9   6    1.33    0.44
  -6   9   6   -0.58    0.67
   6  -9   6   -0.47    0.48
  -6  -9   6    0.17    0.44
   6   9   6   -0.02    0.42
   0  10   6   94.61    2.47
   0 -10   6   92.47    2.32
   1 -10   6    0.37    0.37
  -1  10   6   -0.57    0.37
   1  10   6    0.07    0.35
  -1 -10   6    0.22    0.40
   2 -10   6    6.20    0.72
  -2  10   6    5.55    0.73
   2  10   6    5.34    0.68
  -2 -10   6    5.80    0.69
  -3  10   6    0.20    0.49
   3 -10   6    0.52    0.40
  -3 -10   6    0.69    0.43
   3  10   6    0.00    0.37
  -4  10   6   -0.03    0.56
   4 -10   6    0.10    0.45
  -4 -10   6    0.59    0.45
  -5  10   6   -0.05    0.61
   5 -10   6    0.97    0.55
  -5 -10   6    0.81    0.49
   0  11   6    0.29    0.46
   0 -11   6    0.08    0.42
  -1  11   6    1.25    0.54
   1 -11   6    1.86    0.53
  -1 -11   6    1.76    0.50
   1  11   6    1.72    0.53
   2 -11   6   18.42    1.05
  -2  11   6   17.22    1.21
   2  11   6   17.55    1.10
  -2 -11   6   17.38    1.08
   3 -11   6    4.53    0.71
  -3  11   6    3.97    0.77
  -3 -11   6    3.80    0.66
  -4  11   6   -0.58    0.57
   0 -12   6   23.48    1.27
   0  12   6   23.49    1.37
  -1  12   6   -0.70    0.45
   1 -12   6    0.72    0.51
  -1 -12   6   -0.27    0.47
   1  12   6   -0.85    0.39
  -2  12   6    3.01    0.77
   0   0   7   -0.03    0.18
   0   0   7   -0.07    0.09
   1   0   7    4.63    0.36
  -1   0   7    5.09    0.25
   1   0   7    5.50    0.30
  -1   0   7    4.72    0.38
  -2   0   7   20.02    0.55
  -2   0   7   20.77    0.71
   2   0   7   20.08    0.68
   2   0  -7   20.10    0.59
   2   0   7   20.61    0.64
   3   0   7  145.15    2.56
   3   0  -7  147.64    2.51
   3   0   7  146.81    2.55
  -3   0   7  146.92    2.58
  -3   0   7  145.90    2.36
   4   0   7  102.92    2.12
  -4   0   7  103.90    2.10
  -4   0   7  104.96    1.89
   4   0  -7  102.35    2.08
   4   0   7  103.36    2.08
   5   0   7   35.44    1.26
  -5   0   7   34.77    1.18
   5   0   7   35.90    1.18
   5   0  -7   35.14    1.19
   6   0  -7    1.68    0.48
   6   0   7    1.66    0.43
   6   0   7    1.53    0.50
  -6   0   7    1.17    0.43
   7   0   7    8.99    0.79
   7   0   7   12.58    1.04
   7   0  -7   12.77    0.92
   8   0  -7   -0.65    0.50
   8   0   7    0.05    0.50
   8   0   7    0.34    0.39
   9   0   7   14.61    1.30
   9   0   7   14.63    1.08
   9   0  -7   14.13    1.28
   0   1   7    0.69    0.22
   0  -1   7    0.77    0.15
   0  -1   7    1.13    0.24
  -1   1   7    4.11    0.36
   1  -1   7    5.04    0.32
   1  -1   7    4.49    0.35
   1   1   7    4.19    0.26
   1  -1  -7    4.52    0.22
  -1  -1   7    4.75    0.30
   1   1   7    5.24    0.39
  -1  -1   7    4.64    0.38
   2  -1   7  150.93    2.48
  -2   1   7  148.01    2.49
  -2   1   7  149.23    2.45
   2  -1   7  145.14    2.43
  -2  -1   7  148.42    2.27
   2   1   7  148.41    2.53
  -2  -1   7  149.06    2.52
   2   1   7  150.12    2.40
   2  -1  -7  147.09    2.32
  -2  -1   7  150.13    2.40
  -3   1   7    4.03    0.42
   3   1  -7    3.94    0.39
   3  -1   7    4.04    0.39
  -3   1   7    4.09    0.34
   3  -1   7    4.03    0.42
  -3  -1   7    4.35    0.28
   3  -1  -7    4.03    0.39
   3   1   7    3.96    0.41
   3   1   7    3.96    0.41
  -3  -1   7    4.41    0.45
  -4   1   7   94.35    1.82
   4   1  -7   91.35    1.96
  -4   1   7   89.78    1.90
   4  -1   7   93.66    1.88
   4  -1   7   93.25    1.98
   4  -1  -7   95.38    1.94
   4   1   7   93.96    1.97
  -4  -1   7   90.91    1.96
   4   1   7   91.88    1.97
  -5   1   7   20.30    0.90
   5   1  -7   22.43    0.96
   5  -1   7   22.48    0.92
  -5   1   7   22.45    0.94
   5  -1   7   21.44    0.98
   5   1   7   22.24    1.01
   5   1   7   22.44    0.95
   5  -1  -7   22.94    0.98
  -5  -1   7   22.31    0.96
   6  -1   7    4.66    0.65
   6  -1   7    3.41    0.51
  -6   1   7    4.41    0.56
   6   1  -7    3.31    0.59
   6   1   7    4.58    0.60
   6   1   7    3.75    0.63
  -6  -1   7    4.80    0.60
   6  -1  -7    4.30    0.62
   7   1  -7    1.31    0.56
   7  -1   7    0.01    0.37
   7  -1   7    1.38    0.53
   7   1   7    0.48    0.51
   7  -1  -7    0.66    0.51
   8  -1   7   10.51    0.90
   8  -1   7    8.14    0.97
   8   1  -7    7.37    0.93
   8  -1  -7    8.75    0.96
   8   1   7    9.69    1.02
   8   1   7   10.53    0.92
   9   1  -7   -0.42    0.61
   9  -1   7    0.86    0.48
   9  -1   7   -0.37    0.58
   9   1   7    0.59    0.68
   9  -1  -7   -0.12    0.59
   9   1   7   -0.31    0.45
   0  -2   7   -0.20    0.20
   0  -2   7    0.04    0.15
   0   2   7    0.14    0.18
  -1   2   7    2.92    0.33
   1  -2   7    2.33    0.27
   1  -2   7    2.48    0.28
  -1  -2   7    1.99    0.32
   1  -2  -7    2.38    0.15
   1   2   7    2.05    0.28
  -1  -2   7    2.21    0.25
   1   2   7    2.70    0.20
  -2   2   7   12.46    0.56
   2  -2   7   12.34    0.54
  -2   2   7   12.48    0.56
   2  -2   7   13.84    0.58
   2   2   7   12.73    0.59
   2  -2  -7   12.80    0.44
  -2  -2   7   14.35    0.65
  -2  -2   7   13.12    0.52
   2   2   7   13.41    0.51
   3  -2   7   90.70    1.76
  -3   2   7   92.46    1.81
  -3   2   7   94.22    1.80
   3  -2   7   92.98    1.88
  -3  -2   7   92.59    1.90
   3   2   7   92.52    1.90
   3   2   7   95.05    1.82
  -3  -2   7   92.36    1.81
   3  -2  -7   90.09    1.72
   4  -2   7    9.54    0.55
   4  -2   7    8.95    0.69
  -4   2   7    9.16    0.63
   4   2  -7    9.27    0.64
  -4   2   7    9.78    0.60
   4   2   7    9.38    0.61
   4  -2  -7    9.03    0.61
  -4  -2   7    9.02    0.69
   4   2   7   10.20    0.65
  -5   2   7    5.16    0.58
   5  -2   7    6.75    0.57
   5   2  -7    6.62    0.67
   5  -2   7    5.29    0.64
  -5   2   7    5.91    0.57
   5  -2  -7    5.97    0.62
   5   2   7    6.61    0.63
  -5  -2   7    5.52    0.60
   5   2   7    5.67    0.63
   6  -2   7    7.38    0.78
   6   2  -7    6.21    0.72
   6  -2   7    6.64    0.63
  -6   2   7    6.61    0.64
   6  -2  -7    6.67    0.73
   6   2   7    6.30    0.74
  -6  -2   7    6.21    0.67
   7  -2   7    2.77    0.66
   7   2  -7    2.49    0.60
   7  -2   7    3.31    0.53
   7   2   7    2.80    0.61
   7  -2  -7    2.52    0.63
   8   2  -7    2.51    0.67
   8  -2   7    2.98    0.74
   8  -2  -7    1.91    0.67
   8   2   7    2.79    0.69
   9   2   7    5.53    0.80
   9  -2  -7    5.63    0.97
   9   2   7    4.97    0.87
   0  -3   7   10.06    0.47
   0   3   7    8.61    0.45
   0  -3   7   10.10    0.45
  -1   3   7  104.41    1.99
  -1   3   7  106.46    1.86
   1  -3   7  106.79    1.90
   1  -3   7  104.74    1.82
  -1  -3   7  107.92    1.91
   1  -3  -7  101.34    1.52
   1   3   7  102.31    1.64
  -1  -3   7  105.97    1.88
   1   3   7  104.05    1.91
   2  -3   7   70.32    1.49
  -2   3   7   70.01    1.39
   2  -3   7   68.70    1.34
  -2   3   7   70.20    1.51
  -2  -3   7   68.55    1.49
   2   3   7   68.43    1.49
   2  -3  -7   66.38    1.21
   2   3   7   66.99    1.31
  -2  -3   7   68.61    1.44
   3  -3   7    0.40    0.22
   3  -3   7    0.51    0.29
  -3   3   7    0.05    0.23
  -3   3   7    0.54    0.27
   3   3   7    0.42    0.27
   3  -3  -7    0.27    0.24
   3   3   7    0.33    0.24
  -3  -3   7    0.37    0.25
  -3  -3   7    0.13    0.27
  -4   3   7   64.09    1.56
   4  -3   7   65.33    1.63
   4  -3   7   64.04    1.41
  -4   3   7   65.00    1.49
   4  -3  -7   65.41    1.51
   4   3   7   66.69    1.61
   4   3   7   65.61    1.64
  -4  -3   7   65.46    1.67
  -4  -3   7   66.69    1.59
  -5   3   7   58.67    1.57
   5  -3   7   57.81    1.41
   5   3  -7   53.95    1.58
  -5   3   7   55.94    1.45
   5  -3   7   58.47    1.67
  -5  -3   7   54.96    1.61
   5  -3  -7   59.84    1.57
   5   3   7   56.13    1.59
   5   3   7   55.73    1.60
   6  -3   7   15.27    0.79
   6  -3   7   17.09    0.98
   6   3  -7   14.12    0.90
  -6   3   7   15.02    1.01
  -6   3   7   17.39    0.86
   6  -3  -7   14.83    0.92
  -6  -3   7   15.65    0.91
   6   3   7   13.01    0.91
   7  -3   7    0.33    0.53
   7   3  -7    0.64    0.49
   7   3   7    1.01    0.51
   7  -3  -7    0.42    0.52
   8  -3   7    3.34    0.73
   8   3  -7    3.66    0.75
   8   3   7    2.94    0.70
   8  -3  -7    2.91    0.69
   9   3   7   -0.18    0.58
   0  -4   7    0.17    0.19
   0  -4  -7    0.10    0.12
   0   4   7    0.23    0.20
   0  -4   7    0.10    0.22
  -1   4   7    0.69    0.25
   1  -4   7    0.13    0.22
  -1   4   7    0.52    0.22
   1  -4   7    0.39    0.22
   1   4   7    0.52    0.22
   1   4   7    0.41    0.14
  -1  -4   7    0.67    0.24
   1  -4  -7    0.58    0.13
  -1  -4   7    0.59    0.25
   2  -4   7    0.18    0.25
  -2   4   7    0.10    0.21
  -2   4   7    0.67    0.26
   2  -4   7    0.07    0.19
   2   4   7    0.16    0.22
  -2  -4   7    0.10    0.23
   2  -4  -7    0.18    0.17
   2   4   7    0.16    0.18
  -2  -4   7    0.04    0.26
   3  -4   7  127.77    2.50
  -3   4   7  131.65    2.27
   3  -4   7  130.10    2.21
  -3   4   7  127.59    2.52
   3   4   7  128.97    2.49
   3  -4  -7  124.42    2.20
   3   4   7  135.17    2.38
  -3  -4   7  129.28    2.49
  -3  -4   7  127.12    2.44
  -4   4   7   18.92    0.93
  -4   4   7   20.92    0.81
   4  -4   7   21.15    0.93
   4  -4  -7   20.90    0.81
  -4  -4   7   20.66    0.90
   4   4   7   19.83    0.90
  -4  -4   7   19.93    0.91
   4   4   7   20.65    0.87
   5  -4   7    2.96    0.54
  -5   4   7    2.86    0.45
   5   4  -7    2.47    0.48
  -5   4   7    2.65    0.56
   5   4   7    2.45    0.49
   5   4   7    2.43    0.50
  -5  -4   7    2.65    0.49
   5  -4  -7    2.77    0.50
   6  -4   7   10.19    0.87
  -6   4   7   10.39    0.91
   6   4  -7    9.49    0.85
   6  -4  -7   11.71    0.84
   6   4   7   10.70    0.90
   7   4  -7    0.33    0.48
   7  -4   7   -0.32    0.50
  -7   4   7   -0.10    0.59
   7   4   7   -0.15    0.46
   8  -4   7   -0.16    0.56
   8   4  -7   -0.12    0.49
   8   4   7   -0.38    0.51
   0   5   7    4.87    0.40
   0  -5   7    4.63    0.39
   0  -5   7    3.89    0.41
   0   5   7    5.43    0.52
   0  -5  -7    4.30    0.29
  -1   5   7    3.20    0.41
   1  -5   7    2.64    0.38
  -1  -5  -7    3.32    0.30
   1  -5   7    3.50    0.34
  -1   5   7    3.24    0.34
  -1  -5   7    3.49    0.38
  -1  -5   7    3.00    0.38
   1  -5  -7    2.87    0.24
   1   5   7    2.91    0.35
  -2   5   7   87.44    1.94
   2  -5   7   86.04    1.86
  -2   5   7   83.60    1.62
   2   5   7   87.21    1.82
  -2  -5   7   88.61    1.85
   2   5   7   85.17    1.64
  -2  -5   7   83.89    1.78
   3  -5   7    3.17    0.49
  -3   5   7    3.56    0.49
  -3   5   7    3.79    0.40
  -3  -5   7    3.24    0.44
   3   5   7    4.12    0.43
   3   5   7    3.46    0.45
  -3  -5   7    3.64    0.50
   4  -5   7   42.96    1.36
  -4   5   7   41.74    1.40
  -4  -5   7   43.61    1.35
  -4  -5   7   45.35    1.36
   4   5   7   44.05    1.36
   4   5   7   41.47    1.27
  -5   5   7   19.25    1.02
   5  -5   7   20.26    1.01
  -5  -5   7   20.91    0.98
   5   5   7   18.66    0.97
  -5  -5   7   21.54    1.05
   5   5   7   21.85    1.01
   6  -5   7    3.60    0.65
  -6   5   7    4.32    0.74
   6   5  -7    4.07    0.64
   6   5   7    4.59    0.64
   6   5   7    4.67    0.68
   7   5  -7    1.38    0.51
  -7   5   7    0.41    0.65
   7  -5   7    1.79    0.61
   7   5   7    0.36    0.46
   8   5  -7    5.88    0.92
   8  -5   7    5.44    0.88
   8   5   7    6.22    0.85
   0  -6   7   -0.08    0.25
   0  -6   7    0.41    0.25
   0   6   7   -0.14    0.22
   0   6   7   -0.07    0.25
   1  -6   7    0.86    0.34
  -1   6   7    0.12    0.28
  -1   6   7    0.32    0.25
  -1  -6   7    0.73    0.29
   1   6   7    0.12    0.23
   1   6   7    0.17    0.28
  -1  -6   7    0.48    0.28
  -2  -6  -7   16.99    0.65
  -2   6   7   16.41    0.85
   2  -6   7   15.67    0.80
  -2  -6   7   16.63    0.78
  -2  -6   7   14.87    0.76
   2   6   7   16.18    0.75
   3  -6   7   42.36    1.35
  -3   6   7   43.16    1.41
   3   6   7   42.67    1.20
  -3  -6   7   42.06    1.29
  -3  -6   7   41.30    1.29
   3   6   7   44.39    1.29
   4  -6   7   17.25    0.93
  -4   6   7   17.47    0.97
  -4  -6   7   17.99    0.91
   4   6   7   17.38    0.88
   4   6   7   17.26    0.85
  -4  -6   7   16.85    0.88
  -5   6   7   16.03    1.06
   5  -6   7   17.42    0.97
   5   6   7   17.12    0.96
  -5  -6   7   16.31    0.94
   5   6   7   19.29    0.96
  -6   6   7    0.48    0.61
   6  -6   7    1.29    0.56
   6   6  -7    0.81    0.44
   6   6   7    0.96    0.44
   6   6   7    0.21    0.42
  -7   6   7    1.33    0.74
   7  -6   7    1.55    0.57
   7   6  -7    2.06    0.57
   7   6   7    2.18    0.62
   7   6   7    2.07    0.59
  -8   6   7    1.14    0.89
   8   6   7    0.91    0.53
   8   6   7    0.77    0.59
   0  -7   7    0.30    0.31
   0   7   7    0.64    0.34
  -1   7   7    3.01    0.49
   1  -7   7    2.68    0.44
  -1  -7   7    2.68    0.44
   1   7   7    2.14    0.45
   1   7   7    3.22    0.39
  -2   7   7   49.85    1.55
   2  -7   7   49.78    1.46
  -2  -7   7   52.50    1.46
  -2  -7   7   51.76    1.36
   2   7   7   49.02    1.33
   3  -7   7    1.52    0.45
  -3   7   7    2.18    0.48
  -3  -7   7    2.71    0.48
  -3  -7   7    2.49    0.45
   3   7   7    1.92    0.40
  -4   7   7   43.08    1.51
   4  -7   7   41.52    1.42
   4   7   7   41.32    1.31
  -4  -7   7   39.55    1.36
   4   7   7   41.26    1.36
  -5   7   7   10.57    0.95
   5  -7   7   10.90    0.92
   5   7   7   10.47    0.84
   5   7   7   12.05    0.87
  -5  -7   7   11.84    0.86
   6  -7   7    2.38    0.59
  -6   7   7    0.72    0.62
   6   7  -7    1.85    0.56
   6   7   7    0.68    0.48
   6   7   7    2.75    0.60
   7  -7   7    0.83    0.59
   7   7  -7    0.70    0.51
  -7   7   7   -0.09    0.67
   7   7   7    0.82    0.53
   7   7   7    2.24    0.60
   0  -8   7   -0.18    0.29
   0   8   7    0.45    0.36
   1  -8   7    0.03    0.34
  -1   8   7    0.69    0.37
  -1  -8   7   -0.11    0.30
   1   8   7    0.05    0.35
  -2   8   7    2.39    0.49
   2  -8   7    1.84    0.44
  -2  -8   7    2.70    0.47
   2   8   7    2.61    0.46
   2   8   7    2.16    0.38
  -3   8   7   57.69    1.81
   3  -8   7   56.27    1.68
  -3  -8   7   57.91    1.68
   3   8   7   57.31    1.71
   3   8   7   57.89    1.55
   4  -8   7   13.76    0.89
  -4   8   7   13.95    0.97
   4   8   7   13.78    0.84
  -4  -8   7   12.64    0.84
  -5   8   7    1.70    0.63
   5  -8   7    2.77    0.58
   5   8   7    2.78    0.53
  -5  -8   7    2.99    0.57
   6  -8   7    2.67    0.63
  -6   8   7    3.08    0.76
   6   8  -7    2.03    0.58
   6   8   7    3.23    0.64
  -6  -8   7    2.68    0.62
  -7   8   7    1.65    0.85
   7   8   7    0.70    0.51
   0  -9   7   10.11    0.74
   0   9   7   10.99    0.90
  -1   9   7   29.96    1.28
   1  -9   7   29.47    1.17
   1   9   7   26.42    1.22
  -1  -9   7   28.35    1.18
   2  -9   7   23.46    1.08
  -2   9   7   24.02    1.22
   2   9   7   23.21    1.13
  -2  -9   7   24.05    1.08
  -3   9   7    0.27    0.42
   3  -9   7    0.29    0.39
  -3  -9   7   -0.26    0.34
   3   9   7   -0.33    0.33
  -4   9   7   14.17    1.03
   4  -9   7   13.04    0.90
  -4  -9   7   13.94    0.91
   4   9   7   14.52    0.93
   4   9   7   13.56    0.88
   5  -9   7   14.66    1.03
  -5   9   7   12.35    1.17
   5   9   7   14.37    0.97
  -5  -9   7   11.87    0.99
  -6   9   7    1.74    0.75
   6   9   7    2.20    0.59
   0 -10   7    0.04    0.40
   0  10   7   -0.22    0.37
   1 -10   7    0.12    0.37
  -1  10   7   -0.06    0.40
   1  10   7    0.43    0.42
  -1 -10   7   -0.37    0.37
   2 -10   7    1.63    0.50
  -2  10   7    0.97    0.52
  -2 -10   7    1.77    0.49
   2  10   7    1.43    0.50
   3 -10   7   19.01    1.10
  -3  10   7   21.23    1.28
   3  10   7   19.77    1.11
  -3 -10   7   19.66    1.11
   4 -10   7    0.80    0.49
  -4  10   7    1.56    0.62
  -4 -10   7    1.24    0.52
  -5  10   7    0.26    0.63
   0  11   7   -0.56    0.41
   0 -11   7   -0.39    0.37
  -1  11   7    5.98    0.83
   1 -11   7    9.03    0.88
   1  11   7    6.30    0.81
  -1 -11   7    6.52    0.76
   2 -11   7   12.05    0.90
  -2  11   7   10.41    1.03
  -2 -11   7   12.31    1.02
   2  11   7   13.49    1.02
   3 -11   7    1.52    0.56
  -3  11   7   -0.18    0.56
  -3 -11   7    0.75    0.49
  -4  11   7   10.63    1.15
   0  12   7   -0.19    0.49
  -1  12   7   -0.45    0.53
   1  12   7    0.38    0.51
  -2  12   7    1.71    0.69
   2  12   7    2.15    0.62
   0   0   8   27.78    0.81
   0   0   8   26.99    0.55
  -1   0   8   58.52    1.02
   1   0   8   59.53    1.06
  -1   0   8   58.64    1.27
   1   0   8   58.30    1.26
   2   0  -8   69.97    1.31
  -2   0   8   71.54    1.51
   2   0   8   70.02    1.35
   2   0   8   70.67    1.49
  -2   0   8   70.53    1.31
   3   0  -8    0.01    0.21
  -3   0   8    0.22    0.27
   3   0   8    0.39    0.27
  -3   0   8    0.56    0.18
   3   0   8    0.07    0.23
   4   0   8  154.32    2.81
   4   0   8  152.21    2.80
  -4   0   8  150.67    2.80
   4   0  -8  149.09    2.75
   5   0   8   30.80    1.17
   5   0   8   28.55    1.07
   5   0  -8   29.90    1.13
  -5   0   8   30.25    1.11
   6   0   8    6.74    0.69
   6   0   8    5.62    0.72
  -6   0   8    5.48    0.62
   6   0  -8    5.93    0.68
   7   0  -8   24.76    1.25
   7   0   8   25.90    1.13
  -7   0   8   25.06    1.15
   7   0   8   21.98    1.17
   8   0   8    5.09    0.70
   8   0   8    4.44    0.79
   8   0  -8    4.14    0.75
   9   0   8   14.58    1.08
   9   0   8   10.95    1.16
   9   0  -8   13.99    1.31
   0   1   8   -0.05    0.06
   0  -1   8    0.08    0.13
   0   1   8    0.33    0.21
   0  -1   8    0.10    0.21
  -1   1   8   70.37    1.45
   1  -1   8   72.20    1.31
  -1  -1   8   72.74    1.29
   1   1   8   70.58    1.46
   1  -1  -8   70.46    1.12
   1   1   8   73.16    1.18
  -1  -1   8   72.45    1.47
  -2   1   8   17.72    0.69
  -2   1   8   17.33    0.60
   2  -1   8   18.53    0.68
   2  -1   8   17.58    0.63
   2   1   8   18.38    0.60
   2  -1  -8   17.96    0.54
  -2  -1   8   18.00    0.59
  -2  -1   8   18.21    0.49
   2   1   8   16.86    0.67
  -2  -1   8   18.76    0.72
   3  -1   8    0.57    0.24
  -3   1   8    0.74    0.22
   3   1  -8    1.10    0.26
  -3   1   8    0.56    0.29
   3  -1   8    1.14    0.32
   3   1   8    0.81    0.27
   3   1   8    0.59    0.27
   3  -1  -8    0.48    0.24
  -3  -1   8    0.80    0.30
   4  -1   8   15.87    0.82
   4   1  -8   16.01    0.74
  -4   1   8   15.48    0.79
  -4   1   8   16.85    0.70
   4  -1   8   16.00    0.73
   4   1   8   16.40    0.80
   4   1   8   16.38    0.78
  -4  -1   8   16.01    0.83
   4  -1  -8   17.48    0.77
   5  -1   8   25.59    0.97
  -5   1   8   24.82    1.00
   5  -1   8   27.30    1.12
   5   1  -8   25.66    1.04
   5   1   8   25.77    1.06
   5   1   8   25.58    1.04
  -5  -1   8   25.80    1.06
   5  -1  -8   25.74    1.04
   6  -1   8   13.23    0.94
  -6   1   8   12.99    0.85
   6  -1   8   14.75    0.82
   6   1  -8   12.83    0.90
   6   1   8   13.50    0.88
   6  -1  -8   13.41    0.86
   6   1   8   13.52    0.88
  -6  -1   8   15.97    0.89
  -7   1   8   26.56    1.17
   7  -1   8   30.85    1.21
   7  -1   8   28.67    1.32
   7   1  -8   28.84    1.37
   7   1   8   27.28    1.24
  -7  -1   8   29.07    1.28
   7   1   8   26.31    1.31
   7  -1  -8   28.35    1.32
   8  -1   8    0.19    0.43
   8  -1   8   -0.04    0.51
   8   1  -8   -0.40    0.54
   8  -1  -8   -0.65    0.53
   8   1   8    0.13    0.57
   8   1   8   -0.07    0.43
   9  -1   8    0.04    0.43
   9  -1   8   -1.46    0.57
   9   1  -8   -0.90    0.55
   9   1   8   -0.47    0.61
   9  -1  -8   -1.01    0.60
   9   1   8    1.25    0.58
   0  -2   8    0.28    0.25
   0  -2   8    0.58    0.18
   0   2   8    0.75    0.25
  -1   2   8   99.99    1.83
   1  -2   8   98.19    1.75
   1  -2   8   99.58    1.81
   1   2   8   95.37    1.50
  -1  -2   8   98.40    1.72
  -1  -2   8   99.83    1.86
   1   2   8   96.61    1.84
   2  -2   8  100.86    1.86
  -2   2   8   97.21    1.88
  -2   2   8  102.03    1.89
   2  -2   8  101.00    1.86
   2  -2  -8   97.19    1.62
  -2  -2   8  102.67    1.84
   2   2   8   97.51    1.93
   2   2   8  101.05    1.73
  -2  -2   8  100.16    1.93
   3  -2   8    0.58    0.31
   3  -2   8    0.38    0.24
  -3   2   8    0.47    0.23
  -3   2   8    0.14    0.26
  -3  -2   8    0.10    0.30
   3   2   8    0.73    0.29
   3   2   8    1.03    0.30
   3  -2  -8    0.43    0.25
  -3  -2   8    0.60    0.25
   4  -2   8   78.47    1.80
   4   2  -8   77.04    1.77
  -4   2   8   78.32    1.71
   4  -2   8   75.86    1.66
  -4   2   8   73.35    1.65
   4   2   8   78.00    1.83
  -4  -2   8   75.97    1.78
   4  -2  -8   75.09    1.67
   4   2   8   78.51    1.77
   5   2  -8   19.29    0.95
  -5   2   8   19.47    0.90
   5  -2   8   19.23    0.96
  -5   2   8   21.26    0.93
   5  -2   8   20.21    0.84
   5  -2  -8   21.00    0.95
   5   2   8   19.04    0.93
  -5  -2   8   19.10    0.94
   5   2   8   18.47    0.95
  -6   2   8    3.08    0.50
   6  -2   8    3.71    0.52
   6   2  -8    4.28    0.63
   6  -2   8    3.80    0.62
   6   2   8    4.08    0.61
  -6  -2   8    3.86    0.57
   6   2   8    4.33    0.62
   6  -2  -8    3.50    0.59
   7  -2   8   21.12    1.04
   7  -2   8   21.03    1.21
  -7   2   8   23.24    1.11
   7   2  -8   24.53    1.22
   7   2   8   21.13    1.16
   7  -2  -8   20.04    1.14
  -7  -2   8   25.28    1.17
   7   2   8   20.87    1.10
   8   2  -8    2.10    0.65
   8  -2   8    1.93    0.68
   8  -2  -8    1.74    0.66
   8   2   8    1.61    0.53
   8   2   8    2.85    0.71
   9   2  -8    8.00    1.07
   9   2   8    6.84    0.97
   9   2   8    6.57    0.88
   0  -3   8    0.39    0.24
   0   3   8    0.15    0.19
   0  -3   8    0.01    0.18
   1  -3   8  117.32    2.07
  -1   3   8  117.90    2.06
  -1   3   8  118.20    2.20
   1  -3   8  114.99    2.02
   1   3   8  116.80    2.12
   1   3   8  110.58    1.75
  -1  -3   8  114.64    2.04
  -1  -3   8  111.75    2.08
   2  -3   8   15.84    0.61
  -2   3   8   14.34    0.64
  -2   3   8   15.49    0.67
   2  -3   8   14.06    0.65
  -2  -3   8   16.36    0.73
   2  -3  -8   15.26    0.45
   2   3   8   14.94    0.55
  -2  -3   8   15.09    0.62
   2   3   8   14.55    0.65
   3  -3   8   22.41    0.77
   3  -3   8   23.68    0.91
  -3   3   8   23.93    0.88
  -3   3   8   24.47    0.84
  -3  -3   8   23.56    0.91
   3   3   8   24.28    0.82
   3  -3  -8   22.44    0.72
   3   3   8   23.67    0.92
  -3  -3   8   23.22    0.84
   4  -3   8   17.90    0.85
  -4   3   8   18.35    0.83
  -4   3   8   16.57    0.75
   4  -3   8   16.32    0.72
  -4  -3   8   15.46    0.86
   4   3   8   17.20    0.82
   4  -3  -8   17.15    0.77
  -4  -3   8   16.90    0.79
   4   3   8   16.98    0.87
   5  -3   8   33.08    1.24
  -5   3   8   35.94    1.22
   5  -3   8   32.63    1.05
  -5   3   8   34.83    1.14
   5   3  -8   32.33    1.20
   5   3   8   34.70    1.23
  -5  -3   8   31.99    1.21
   5  -3  -8   33.05    1.15
   5   3   8   31.03    1.20
   6  -3   8   12.27    0.75
   6   3  -8   13.58    0.92
  -6   3   8   11.45    0.77
  -6   3   8   10.98    0.88
   6  -3   8   11.58    0.86
  -6  -3   8   12.79    0.86
   6   3   8   11.56    0.94
   6  -3  -8   12.57    0.87
   6   3   8   13.83    0.92
   7  -3   8   26.71    1.30
  -7   3   8   28.58    1.18
   7   3  -8   29.99    1.38
   7   3   8   28.03    1.32
   7   3   8   26.77    1.25
   8  -3   8   -0.06    0.56
   8   3  -8   -0.76    0.47
   8   3   8   -0.22    0.55
   8   3   8    0.10    0.42
   9   3   8   -0.44    0.57
   0   4   8    1.60    0.29
   0  -4   8    1.62    0.28
   0  -4   8    1.38    0.30
  -1   4   8   17.96    0.67
   1  -4   8   16.80    0.66
  -1   4   8   17.14    0.74
   1  -4   8   18.99    0.70
  -1  -4   8   17.84    0.71
   1   4   8   16.97    0.70
  -1  -4   8   16.08    0.66
   1   4   8   16.52    0.48
  -2   4   8   36.52    1.12
   2  -4   8   36.65    1.09
  -2   4   8   36.16    0.98
   2  -4   8   38.85    0.95
   2   4   8   36.70    0.90
   2   4   8   37.95    1.08
  -2  -4   8   34.48    1.04
  -2  -4   8   36.32    1.05
  -3   4   8    2.35    0.37
  -3   4   8    2.19    0.40
   3  -4   8    2.02    0.43
   3  -4   8    2.05    0.33
   3   4   8    1.66    0.36
  -3  -4   8    1.66    0.39
   3   4   8    2.55    0.37
  -3  -4   8    2.76    0.39
   4  -4   8   60.50    1.63
  -4   4   8   60.54    1.45
   4  -4   8   61.75    1.39
  -4   4   8   63.41    1.64
   4   4   8   60.75    1.64
   4   4   8   63.12    1.58
  -4  -4   8   62.86    1.61
  -4  -4   8   61.41    1.65
   5  -4   8    4.94    0.62
  -5   4   8    3.49    0.54
  -5   4   8    4.83    0.53
   5   4  -8    3.85    0.55
  -5  -4   8    4.31    0.57
   5   4   8    4.45    0.58
   5   4   8    4.71    0.60
  -6   4   8   17.91    1.05
   6   4  -8   19.80    1.04
   6  -4   8   19.68    1.10
   6   4   8   17.22    1.00
  -6  -4   8   18.65    1.02
   6   4   8   19.30    1.05
   7   4  -8   16.49    1.11
   7  -4   8   15.48    1.05
   7   4   8   13.00    0.94
   7   4   8   13.91    1.04
   8   4  -8    2.31    0.70
   8  -4   8    2.62    0.74
   8   4   8    2.53    0.64
   8   4   8    2.42    0.71
   0   5   8   -0.01    0.24
   0  -5   8    0.26    0.25
   0   5   8    0.19    0.23
   0  -5   8   -0.08    0.25
   1  -5   8   50.97    1.34
  -1   5   8   53.32    1.43
   1  -5   8   55.75    1.19
  -1   5   8   52.90    1.20
  -1  -5   8   52.98    1.33
   1   5   8   51.51    1.27
  -1  -5   8   51.80    1.26
  -2   5   8   12.57    0.71
   2  -5   8   12.06    0.67
  -2   5   8   12.59    0.61
  -2  -5   8   13.18    0.71
   2   5   8   12.90    0.55
   2   5   8   12.31    0.65
  -2  -5   8   10.93    0.64
  -3   5   8    2.18    0.43
   3  -5   8    2.42    0.45
  -3   5   8    2.68    0.39
   3   5   8    3.15    0.44
   3   5   8    1.99    0.35
  -3  -5   8    2.60    0.45
  -3  -5   8    2.94    0.43
   4  -5   8    6.47    0.67
  -4   5   8    6.41    0.64
  -4  -5   8    5.52    0.58
  -4  -5   8    5.76    0.62
   4   5   8    7.15    0.67
   4   5   8    4.91    0.54
  -5   5   8   19.35    1.07
   5  -5   8   19.54    1.04
   5   5   8   18.66    0.96
   5   5   8   19.67    1.01
  -5  -5   8   19.78    0.98
  -5  -5   8   20.26    1.00
   6  -5   8   13.29    0.97
  -6   5   8   12.42    1.03
   6   5  -8   11.32    0.95
   6   5   8   11.18    0.94
   6   5   8   12.43    1.00
  -7   5   8   22.81    1.41
   7  -5   8   23.15    1.29
   7   5  -8   21.45    1.22
   7   5   8   23.82    1.24
   7   5   8   24.67    1.28
   8   5  -8   -0.19    0.52
   8  -5   8    0.34    0.61
   8   5   8   -1.48    0.48
   8   5   8   -0.22    0.45
   0  -6   8    0.26    0.28
   0   6   8    0.08    0.23
   0   6   8    0.15    0.27
   0  -6   8    0.37    0.28
   1  -6   8   60.21    1.54
  -1   6   8   60.40    1.62
  -1   6   8   59.62    1.32
   1   6   8   59.54    1.41
  -1  -6   8   59.91    1.41
  -1  -6   8   60.53    1.51
  -2   6   8   48.16    1.45
   2  -6   8   47.30    1.37
   2   6   8   47.45    1.30
  -2  -6   8   47.67    1.30
  -2  -6   8   49.71    1.37
  -3   6   8    7.20    0.69
   3  -6   8    6.32    0.64
   3   6   8    7.08    0.62
  -3  -6   8    6.89    0.63
  -3  -6   8    7.16    0.65
   4  -6   8   66.39    1.82
  -4   6   8   66.38    1.84
  -4  -6   8   68.78    1.79
  -4  -6   8   64.10    1.75
   4   6   8   64.93    1.78
   5  -6   8   27.66    1.23
  -5   6   8   27.92    1.30
   5   6   8   29.29    1.22
  -5  -6   8   27.12    1.20
   5   6   8   28.27    1.16
  -5  -6   8   24.50    1.12
   6   6  -8   -0.62    0.36
  -6   6   8    0.07    0.52
   6  -6   8   -0.27    0.41
   6   6   8   -0.26    0.37
   6   6   8   -0.40    0.40
   7  -6   8   10.61    1.02
  -7   6   8   11.14    1.10
   7   6  -8   11.68    1.07
   7   6   8   12.45    1.08
   8   6   8    1.98    0.66
   0  -7   8   -0.11    0.29
   0   7   8   -0.04    0.30
  -1   7   8   27.43    1.12
   1  -7   8   27.46    1.03
   1   7   8   25.93    1.13
  -1  -7   8   27.14    1.04
   1   7   8   27.83    0.93
  -2   7   8    5.01    0.63
   2  -7   8    5.78    0.61
  -2  -7   8    5.76    0.58
   2   7   8    5.86    0.55
  -2  -7   8    6.24    0.57
   3  -7   8    0.38    0.36
  -3   7   8   -0.36    0.33
  -3  -7   8    0.01    0.33
   3   7   8    0.08    0.32
  -3  -7   8    0.18    0.30
  -4   7   8   13.26    0.92
   4  -7   8   12.23    0.87
   4   7   8   14.33    0.88
  -4  -7   8   13.62    0.86
  -4  -7   8   12.72    0.85
  -5   7   8    9.15    0.90
   5  -7   8    9.55    0.85
   5   7   8    9.18    0.85
  -5  -7   8   11.13    0.81
   6   7  -8    2.61    0.60
   6  -7   8    3.10    0.67
  -6   7   8    2.74    0.76
   6   7   8    4.36    0.68
   7  -7   8    9.51    0.99
  -7   7   8    9.82    1.16
   7   7  -8   11.63    1.08
   7   7   8    9.62    0.98
   0  -8   8   -0.22    0.29
   0   8   8    0.00    0.33
  -1   8   8   20.42    1.03
   1  -8   8   18.47    0.90
   1   8   8   18.72    1.02
  -1  -8   8   20.71    0.97
  -2   8   8   24.08    1.14
   2  -8   8   25.09    1.09
   2   8   8   23.32    1.11
   2   8   8   25.35    0.96
  -2  -8   8   24.99    1.05
   3  -8   8    0.63    0.39
  -3   8   8    0.11    0.39
  -3  -8   8   -0.10    0.32
   3   8   8    0.14    0.33
   4  -8   8   29.81    1.26
  -4   8   8   32.29    1.40
  -4  -8   8   32.28    1.30
   4   8   8   31.78    1.23
  -5   8   8    4.93    0.81
   5  -8   8    6.04    0.76
  -5  -8   8    5.57    0.69
   5   8   8    5.52    0.72
  -6   8   8    2.35    0.75
   6  -8   8    2.46    0.66
   6   8  -8    3.20    0.65
  -6  -8   8    2.17    0.59
   6   8   8    2.06    0.58
  -7   8   8    4.96    1.03
   0   9   8   -0.08    0.35
   0  -9   8    0.19    0.35
   1  -9   8   27.25    1.14
  -1   9   8   29.12    1.32
  -1  -9   8   27.17    1.16
   1   9   8   29.76    1.29
  -2   9   8   10.27    0.91
   2  -9   8    8.89    0.78
   2   9   8    7.70    0.78
  -2  -9   8    8.48    0.79
  -3   9   8    5.11    0.72
   3  -9   8    6.61    0.75
  -3  -9   8    6.22    0.73
   3   9   8    6.14    0.70
  -4   9   8    4.01    0.70
   4  -9   8    4.84    0.71
   4   9   8    4.93    0.66
  -4  -9   8    4.87    0.68
   4   9   8    3.74    0.59
   5  -9   8   11.56    1.02
  -5   9   8   12.04    1.15
  -5  -9   8   12.28    1.03
   5   9   8   10.84    0.96
  -6   9   8    2.26    0.78
   6   9   8    3.59    0.70
   0  10   8    3.67    0.64
   0 -10   8    3.89    0.60
  -1  10   8   15.18    1.02
   1 -10   8   13.23    0.89
  -1 -10   8   13.94    0.91
   1  10   8   16.94    1.04
  -2  10   8   10.06    0.98
   2 -10   8   11.40    0.93
  -2 -10   8   10.57    0.90
   2  10   8   11.24    0.96
  -3  10   8    1.12    0.54
   3 -10   8    0.50    0.47
   3  10   8    1.49    0.47
  -3 -10   8    0.06    0.45
  -4  10   8   17.84    1.21
   4 -10   8   16.58    1.10
  -4 -10   8   17.41    1.05
  -5  10   8    0.37    0.66
   0  11   8   -0.14    0.43
   0 -11   8   -0.13    0.43
  -1  11   8   12.09    1.07
   1 -11   8   11.75    0.98
  -1 -11   8   14.03    0.96
   1  11   8   13.48    1.13
  -2  11   8    1.26    0.57
   2 -11   8    1.33    0.49
   2  11   8    1.25    0.54
  -2 -11   8    0.91    0.51
  -3  11   8   -0.32    0.55
   3  11   8   -0.01    0.43
   0  12   8    0.68    0.56
  -1  12   8    7.40    0.97
   1  12   8    5.56    0.86
   0   0   9   -0.01    0.11
   0   0   9   -0.15    0.22
  -1   0   9   39.62    1.04
   1   0   9   39.46    1.03
   1   0   9   39.17    0.81
  -1   0   9   38.10    0.77
  -2   0   9  107.15    2.06
   2   0  -9  108.40    1.84
   2   0   9  107.31    2.05
  -2   0   9  105.20    1.87
   2   0   9  110.76    1.88
  -3   0   9   46.13    1.24
   3   0   9   46.81    1.17
  -3   0   9   46.88    1.02
   3   0  -9   46.11    1.13
   4   0  -9    2.23    0.39
   4   0   9    2.10    0.44
  -4   0   9    1.87    0.42
   4   0   9    1.70    0.39
  -5   0   9   17.98    0.89
   5   0  -9   16.63    0.88
   5   0   9   17.40    0.86
   5   0   9   16.62    0.93
   6   0  -9   11.90    0.87
   6   0   9   12.41    0.81
  -6   0   9   11.12    0.78
   6   0   9    9.99    0.87
   7   0  -9    1.70    0.55
  -7   0   9    0.97    0.43
   7   0   9    1.01    0.53
   7   0   9    1.10    0.44
   8   0  -9   30.97    1.52
   8   0   9   34.65    1.46
   8   0   9   34.03    1.58
   9   0   9    4.65    0.75
   9   0   9    2.32    0.73
   9   0  -9    3.31    0.86
   0   1   9  288.90    3.99
   0  -1   9  294.86    4.22
   0  -1   9  295.56    4.51
   0   1   9  296.42    4.52
  -1   1   9   11.37    0.59
   1  -1   9   10.96    0.46
   1  -1   9   10.85    0.55
   1   1   9   11.22    0.36
   1  -1  -9   10.22    0.31
  -1  -1   9   10.88    0.42
   2  -1   9   12.13    0.54
   2  -1   9   10.75    0.57
  -2   1   9   11.49    0.52
  -2   1   9   12.03    0.63
   2   1   9   11.73    0.60
  -2  -1   9   11.39    0.48
   2  -1  -9   11.35    0.45
   2   1   9   11.18    0.50
  -2  -1   9   12.51    0.67
   3  -1   9    8.64    0.55
   3   1  -9    8.48    0.52
  -3   1   9    7.04    0.48
  -3   1   9    8.73    0.64
   3  -1   9    8.91    0.58
   3   1   9    8.21    0.55
   3   1   9    9.47    0.63
   3  -1  -9    6.99    0.47
   4   1  -9    0.31    0.28
   4  -1   9   -0.24    0.32
   4  -1   9    0.10    0.28
  -4   1   9    0.09    0.25
  -4   1   9    0.31    0.36
   4  -1  -9   -0.18    0.27
   4   1   9    0.50    0.35
  -4  -1   9   -0.03    0.31
   4   1   9   -0.29    0.25
   5  -1   9    1.21    0.45
   5  -1   9    2.67    0.47
  -5   1   9    1.46    0.44
   5   1  -9    1.00    0.41
   5  -1  -9    1.30    0.43
   5   1   9    2.13    0.48
  -5  -1   9    1.19    0.43
   5   1   9    1.87    0.45
  -6   1   9   53.15    1.60
   6  -1   9   53.91    1.59
   6   1  -9   55.63    1.69
   6  -1   9   50.48    1.65
   6   1   9   52.98    1.66
   6   1   9   54.76    1.65
   6  -1  -9   54.00    1.65
  -6  -1   9   54.14    1.65
   7  -1   9    4.11    0.72
   7  -1   9    4.65    0.63
  -7   1   9    4.12    0.61
   7   1  -9    3.22    0.63
   7  -1  -9    3.91    0.67
   7   1   9    3.62    0.70
  -7  -1   9    3.07    0.59
   7   1   9    4.11    0.65
   8  -1   9   13.53    0.95
   8   1  -9   17.53    1.21
   8  -1   9   18.96    1.23
   8   1   9   15.32    1.08
   8   1   9   17.74    1.17
   9   1  -9    4.82    0.87
   9  -1   9    5.28    0.79
   9   1   9    3.75    0.88
   9   1   9    6.54    0.90
   0  -2   9    0.02    0.15
   0  -2   9    0.39    0.26
   0   2   9   -0.01    0.23
   1  -2   9   33.26    0.95
   1  -2   9   33.00    0.84
  -1   2   9   34.00    0.97
   1   2   9   32.64    0.62
  -1  -2   9   32.03    0.81
  -1  -2   9   31.78    0.95
   1   2   9   32.25    0.96
   2  -2   9   50.57    1.19
  -2   2   9   50.77    1.24
  -2   2   9   51.20    1.22
   2  -2   9   48.64    1.20
  -2  -2   9   52.22    1.16
  -2  -2   9   50.63    1.27
   2  -2  -9   50.34    0.95
   2   2   9   51.40    1.06
   2   2   9   52.41    1.30
   3  -2   9    3.39    0.45
   3  -2   9    4.62    0.44
  -3   2   9    4.70    0.43
  -3   2   9    4.52    0.47
  -3  -2   9    3.88    0.42
  -3  -2   9    4.56    0.52
   3   2   9    4.35    0.43
   3  -2  -9    4.49    0.40
   3   2   9    3.83    0.46
   4  -2   9   23.77    0.90
   4   2  -9   20.87    0.89
   4  -2   9   21.84    0.92
  -4   2   9   23.12    0.90
  -4   2   9   22.79    0.86
   4   2   9   23.46    0.92
   4  -2  -9   22.45    0.85
   4   2   9   23.56    0.97
  -4  -2   9   23.70    1.01
  -5   2   9   29.46    1.08
  -5   2   9   31.11    1.09
   5  -2   9   30.03    1.17
   5   2  -9   31.15    1.17
   5  -2   9   30.53    1.06
   5   2   9   29.05    1.16
  -5  -2   9   31.73    1.20
   5   2   9   30.96    1.17
   5  -2  -9   30.20    1.14
   6  -2   9    0.08    0.47
   6   2  -9    1.39    0.47
   6  -2   9    1.50    0.42
  -6   2   9    1.20    0.42
  -6  -2   9    1.17    0.46
   6   2   9    0.65    0.39
   6   2   9    1.46    0.51
   7  -2   9   21.14    1.04
  -7   2   9   20.67    1.05
   7  -2   9   19.01    1.17
   7   2  -9   19.69    1.17
   7   2   9   20.34    1.17
   7   2   9   20.76    1.15
  -7  -2   9   20.35    1.09
   8   2  -9   14.70    1.25
   8  -2   9   14.63    1.10
   8   2   9   15.47    1.11
   8   2   9   16.03    1.06
   9   2   9    1.51    0.74
   0   3   9  677.64    9.64
   0  -3   9  677.91    9.60
   0  -3   9  679.00    9.53
  -1   3   9    2.71    0.36
   1  -3   9    2.52    0.35
  -1   3   9    2.13    0.33
   1  -3   9    2.50    0.32
  -1  -3   9    3.05    0.41
   1   3   9    2.17    0.34
   1   3   9    2.79    0.20
  -1  -3   9    2.55    0.30
  -2   3   9   13.78    0.67
   2  -3   9   10.67    0.58
   2  -3   9   11.70    0.62
  -2   3   9   11.07    0.63
  -2  -3   9   12.25    0.58
  -2  -3   9   11.32    0.65
   2   3   9   12.03    0.49
   2   3   9   10.88    0.62
   3  -3   9    1.17    0.31
   3  -3   9    1.08    0.35
  -3   3   9    0.68    0.29
  -3   3   9    0.52    0.33
   3   3   9    0.87    0.32
  -3  -3   9    1.15    0.37
   3   3   9    1.15    0.31
  -3  -3   9    0.78    0.28
   4  -3   9    0.69    0.32
  -4   3   9    0.10    0.34
  -4   3   9    0.50    0.30
   4  -3   9    0.69    0.39
  -4  -3   9    0.34    0.39
  -4  -3   9    0.75    0.33
   4   3   9    0.79    0.37
   4   3   9    0.41    0.35
  -5   3   9    0.24    0.35
   5  -3   9    0.32    0.32
  -5   3   9    0.19    0.37
   5  -3   9   -0.47    0.38
   5   3  -9    0.19    0.35
   5   3   9    0.11    0.35
  -5  -3   9   -0.02    0.35
   5   3   9    0.16    0.38
   6  -3   9  103.40    2.52
   6   3  -9  108.64    2.57
  -6   3   9  106.54    2.34
   6   3   9  101.27    2.47
   6   3   9  102.13    2.50
  -6  -3   9  102.17    2.48
   7  -3   9    3.54    0.68
  -7   3   9    4.37    0.61
   7   3  -9    3.30    0.64
  -7  -3   9    5.74    0.72
   7   3   9    4.36    0.69
   7   3   9    3.92    0.72
   8   3  -9    3.55    0.77
   8  -3   9    4.38    0.78
   8   3   9    5.38    0.77
   8   3   9    4.11    0.79
   0  -4   9   -0.21    0.21
   0   4   9    0.22    0.24
   0  -4   9   -0.02    0.27
   1  -4   9   50.58    1.20
   1  -4   9   50.90    1.25
  -1   4   9   50.66    1.35
  -1   4   9   50.59    1.23
  -1  -4   9   50.59    1.27
   1   4   9   52.92    1.30
  -1  -4   9   49.01    1.23
   2  -4   9  110.47    2.17
  -2   4   9  110.37    2.25
  -2   4   9  107.43    2.04
   2  -4   9  107.94    2.00
  -2  -4   9  103.24    2.09
   2   4   9  107.20    2.18
  -2  -4   9  108.82    2.16
   3  -4   9   10.18    0.70
  -3   4   9   10.98    0.65
  -3   4   9    9.15    0.64
   3  -4   9    9.23    0.57
  -3  -4   9    9.67    0.62
   3   4   9   10.18    0.67
   3   4   9   10.04    0.61
  -3  -4   9    9.67    0.68
  -4   4   9   20.01    0.85
  -4   4   9   20.15    0.91
   4  -4   9   20.03    0.94
  -4  -4   9   18.60    0.93
   4   4   9   20.18    0.96
  -4  -4   9   20.19    0.88
   4   4   9   21.51    0.91
  -5   4   9   13.31    0.90
  -5   4   9   13.49    0.76
   5   4  -9   12.68    0.84
   5  -4   9   11.36    0.81
   5   4   9   14.00    0.91
  -5  -4   9   13.39    0.88
   5   4   9   12.83    0.82
  -6   4   9    0.25    0.48
   6   4  -9    0.06    0.40
   6  -4   9   -0.11    0.43
   6   4   9    0.02    0.43
   6   4   9    0.24    0.41
  -6  -4   9    0.05    0.37
   7   4  -9    6.44    0.80
   7  -4   9    5.25    0.80
   7   4   9    5.22    0.76
   7   4   9    5.71    0.76
   8   4  -9   14.76    1.23
   8  -4   9   17.38    1.23
   8   4   9   15.09    1.11
   8   4   9   12.69    1.12
   0   5   9  209.23    3.79
   0  -5   9  209.15    3.53
   0  -5   9  212.43    3.41
   0   5   9  212.68    3.46
   1  -5   9    7.85    0.55
   1  -5   9    9.64    0.59
  -1   5   9    8.45    0.64
  -1   5   9    8.77    0.57
  -1  -5   9    9.00    0.59
  -1  -5   9    7.13    0.56
   1   5   9    8.02    0.54
  -2   5   9    5.33    0.49
  -2   5   9    3.69    0.48
   2  -5   9    5.16    0.52
  -2  -5   9    4.18    0.49
  -2  -5   9    4.50    0.47
   2   5   9    5.04    0.52
   3  -5   9    3.72    0.51
  -3   5   9    3.46    0.50
  -3   5   9    4.20    0.47
  -3  -5   9    4.89    0.57
  -3  -5   9    3.48    0.47
   3   5   9    4.94    0.55
   4  -5   9   -0.25    0.34
  -4   5   9    0.06    0.33
  -4  -5   9    0.23    0.33
  -4  -5   9   -0.24    0.32
   4   5   9   -0.15    0.34
   5  -5   9    1.03    0.45
  -5   5   9    0.17    0.43
  -5  -5   9    1.02    0.45
   5   5   9    0.79    0.41
  -5  -5   9    0.72    0.37
   6  -5   9   42.92    1.57
  -6   5   9   48.35    1.70
   6   5  -9   43.52    1.61
   6   5   9   42.43    1.57
  -6  -5   9   44.86    1.61
   7   5  -9    3.02    0.67
  -7   5   9    1.84    0.69
   7  -5   9    1.35    0.58
   7   5   9    2.06    0.56
   8   5  -9    8.32    1.03
   8   5   9    7.31    0.92
   0  -6   9    0.28    0.30
   0   6   9   -0.02    0.27
   0   6   9    0.14    0.26
   0  -6   9   -0.22    0.26
  -1   6   9   12.41    0.64
  -1   6   9   11.72    0.76
   1  -6   9   11.82    0.72
  -1  -6   9   11.66    0.67
  -1  -6   9   12.49    0.69
   1   6   9   12.40    0.69
   2  -6   9   19.05    0.91
  -2   6   9   22.24    1.03
   2   6   9   21.85    0.92
  -2  -6   9   20.52    0.88
  -2  -6   9   21.28    0.89
   3  -6   9   10.07    0.72
  -3   6   9   10.41    0.81
  -3  -6   9   10.57    0.68
  -3  -6   9   10.16    0.75
   3   6   9   10.49    0.74
  -4   6   9    0.92    0.46
   4  -6   9    0.91    0.45
  -4  -6   9    0.96    0.43
  -4  -6   9    1.49    0.43
   4   6   9    0.39    0.35
   5  -6   9   16.22    0.99
  -5   6   9   14.48    0.97
  -5  -6   9   14.32    0.91
  -5  -6   9   14.95    0.93
   5   6   9   15.60    0.99
   6  -6   9    2.67    0.60
  -6   6   9    4.21    0.77
   6   6  -9    3.29    0.62
   6   6   9    3.93    0.65
   7  -6   9    7.35    0.90
  -7   6   9    5.82    0.93
   7   6  -9    7.41    0.87
   7   6   9    7.75    0.91
   0   7   9   73.53    1.60
   0   7   9   72.38    1.92
   0  -7   9   71.14    1.78
  -1   7   9    2.41    0.47
   1  -7   9    2.68    0.45
   1   7   9    2.89    0.43
   1   7   9    2.66    0.50
  -1  -7   9    3.18    0.47
  -2   7   9    6.14    0.66
   2  -7   9    6.41    0.65
  -2  -7   9    6.37    0.60
  -2  -7   9    6.53    0.63
   2   7   9    6.20    0.59
  -3   7   9    0.84    0.45
   3  -7   9    0.57    0.37
  -3  -7   9    0.77    0.37
   3   7   9    1.20    0.39
  -3  -7   9    0.93    0.40
   4  -7   9    0.29    0.39
  -4   7   9    0.56    0.43
  -4  -7   9    0.41    0.38
   4   7   9    0.62    0.38
  -4  -7   9    0.51    0.40
  -5   7   9    0.07    0.47
   5  -7   9    0.03    0.44
  -5  -7   9    0.66    0.43
   5   7   9    0.55    0.41
  -5  -7   9    0.31    0.40
   6   7  -9   29.97    1.39
  -6   7   9   29.49    1.53
   6  -7   9   27.82    1.33
   6   7   9   27.52    1.33
   7   7  -9    1.91    0.66
  -7   7   9    0.90    0.77
   7   7   9    1.88    0.60
   0   8   9   -0.07    0.35
   0  -8   9    0.53    0.34
   1  -8   9   16.48    0.86
  -1   8   9   15.62    0.94
   1   8   9   16.55    0.96
  -1  -8   9   15.30    0.85
  -2   8   9   47.68    1.64
   2  -8   9   45.43    1.48
  -2  -8   9   44.64    1.47
   2   8   9   46.13    1.59
   2   8   9   48.99    1.38
  -3   8   9    7.25    0.80
   3  -8   9    7.77    0.74
   3   8   9    6.71    0.65
  -3  -8   9    7.78    0.75
   4  -8   9    7.06    0.78
  -4   8   9    8.03    0.87
  -4  -8   9    7.31    0.76
  -4  -8   9    9.05    0.81
   4   8   9    8.97    0.82
  -5   8   9    3.42    0.76
   5  -8   9    5.64    0.74
   5   8   9    5.27    0.69
  -5  -8   9    5.11    0.69
  -6   8   9    0.65    0.63
   6  -8   9    0.44    0.53
  -6  -8   9    0.88    0.53
   6   8   9    0.55    0.46
   0   9   9  125.90    2.96
   0  -9   9  125.10    2.78
   1  -9   9    3.59    0.57
  -1   9   9    3.87    0.65
  -1  -9   9    2.38    0.54
   1   9   9    2.02    0.51
  -2   9   9    0.20    0.41
   2  -9   9    0.29    0.39
   2   9   9    0.12    0.40
  -2  -9   9    0.23    0.37
   3  -9   9    0.60    0.43
  -3   9   9    1.24    0.51
  -3  -9   9    0.35    0.40
   3   9   9    0.38    0.39
   4  -9   9   -0.45    0.41
  -4   9   9    0.07    0.47
  -4  -9   9    0.05    0.42
   4   9   9   -0.04    0.38
  -5   9   9   -0.80    0.55
   5  -9   9    0.67    0.50
  -5  -9   9    0.17    0.42
   5   9   9    0.36    0.43
   0 -10   9    0.41    0.40
   0  10   9   -0.31    0.38
  -1  10   9    8.43    0.88
   1 -10   9    8.10    0.81
   1  10   9    7.33    0.84
  -1 -10   9    9.48    0.88
   2 -10   9   13.84    0.92
  -2  10   9   14.47    1.09
   2  10   9   15.67    1.02
  -2 -10   9   14.96    0.99
   3 -10   9    0.70    0.45
  -3  10   9    0.78    0.52
  -3 -10   9    1.20    0.53
   3  10   9    0.91    0.48
   4 -10   9    5.58    0.76
  -4  10   9    4.49    0.79
   4  10   9    5.25    0.72
  -4 -10   9    4.49    0.70
   0 -11   9   44.91    1.66
   0  11   9   46.02    1.82
  -1  11   9    0.53    0.53
   1 -11   9    1.09    0.49
   1  11   9   -0.06    0.41
  -1 -11   9    0.62    0.50
   2 -11   9    0.48    0.46
  -2  11   9    0.50    0.55
   2  11   9    0.29    0.43
  -2 -11   9    0.07    0.47
  -3  11   9   -0.73    0.47
   3  11   9   -0.42    0.40
   0   0  10   21.70    0.52
   0   0  10   22.59    0.83
  -1   0  10   19.65    0.76
  -1   0  10   18.03    0.50
   1   0  10   18.11    0.74
   1   0  10   19.08    0.53
   2   0 -10   18.28    0.59
   2   0  10   18.28    0.75
   2   0  10   18.78    0.62
  -2   0  10   18.28    0.61
  -2   0  10   17.84    0.77
   3   0  10    0.08    0.29
   3   0 -10    0.17    0.26
  -3   0  10    0.16    0.19
  -3   0  10   -0.05    0.34
   3   0  10    0.09    0.29
   4   0  10   54.31    1.43
  -4   0  10   54.17    1.48
   4   0 -10   55.19    1.39
   4   0  10   51.81    1.46
  -5   0  10   32.26    1.18
   5   0  10   32.45    1.18
   5   0 -10   31.57    1.16
   5   0  10   32.32    1.17
  -6   0  10   13.01    0.89
   6   0 -10   12.02    0.87
   6   0  10   12.22    0.86
   6   0  10   10.36    0.89
  -7   0  10    1.13    0.46
   7   0 -10    1.18    0.56
   7   0  10    1.21    0.47
   7   0  10    0.23    0.49
   8   0  10    3.44    0.67
  -8   0  10    3.21    0.64
   8   0  10    4.79    0.79
   0   1  10    0.01    0.08
   0  -1  10   -0.08    0.25
   0   1  10    0.30    0.27
   0  -1  10   -0.09    0.14
  -1   1  10    2.08    0.38
   1  -1  10    2.38    0.37
   1  -1  10    2.29    0.27
  -1  -1  10    1.96    0.24
   1   1  10    2.24    0.35
   1   1  10    2.19    0.20
  -1  -1  10    2.57    0.39
  -2   1  10    4.65    0.48
  -2   1  10    6.06    0.43
   2  -1  10    5.12    0.41
   2  -1  10    6.13    0.52
  -2  -1  10    5.50    0.52
  -2  -1  10    5.77    0.38
   2   1  10    5.41    0.39
   2   1  10    5.76    0.50
   3  -1  10  168.29    2.99
  -3   1  10  168.79    3.00
  -3   1  10  166.46    2.85
   3  -1  10  169.90    2.91
   3   1 -10  167.41    2.87
   3   1  10  170.71    2.83
   3  -1 -10  165.36    2.78
   3   1  10  167.84    3.06
  -3  -1  10  168.16    3.04
   4   1 -10    5.79    0.55
   4  -1  10    5.81    0.56
  -4   1  10    5.03    0.58
   4  -1  10    4.97    0.56
   4  -1 -10    4.79    0.51
   4   1  10    4.45    0.53
   4   1  10    4.88    0.55
  -4  -1  10    4.95    0.58
   5  -1  10    8.74    0.70
   5   1 -10    6.70    0.66
   5  -1  10    8.49    0.74
  -5   1  10    8.67    0.73
  -5  -1  10    8.18    0.73
   5   1  10    8.37    0.74
   5   1  10    8.28    0.72
  -6   1  10    5.25    0.65
   6   1 -10    5.59    0.70
   6  -1  10    5.35    0.62
   6  -1  10    5.26    0.68
   6   1  10    6.48    0.73
   6   1  10    5.52    0.67
  -6  -1  10    5.88    0.68
   7  -1  10   -0.72    0.48
   7   1 -10    0.06    0.47
   7  -1  10   -0.06    0.38
  -7   1  10    0.79    0.42
   7   1  10    0.00    0.39
  -7  -1  10    0.25    0.40
   7   1  10   -0.82    0.47
   8  -1  10    0.52    0.48
   8   1 -10    1.14    0.63
   8  -1  10    0.25    0.60
  -8   1  10    0.75    0.46
   8   1  10   -0.86    0.50
   8   1  10    0.02    0.45
   0  -2  10   11.85    0.62
   0   2  10   11.27    0.61
   0  -2  10   12.13    0.49
   1  -2  10   23.64    0.85
  -1   2  10   25.40    0.86
   1  -2  10   25.60    0.75
  -1  -2  10   24.16    0.70
   1   2  10   23.95    0.85
  -2   2  10   30.93    1.00
  -2   2  10   32.54    0.95
   2  -2  10   32.13    0.93
   2  -2  10   32.49    0.97
   2   2  10   30.54    0.78
  -2  -2  10   31.89    0.89
   2   2  10   33.03    1.05
  -2  -2  10   31.75    1.03
   3  -2  10    7.84    0.60
  -3   2  10    6.90    0.52
  -3   2  10    8.39    0.64
   3  -2  10    7.10    0.56
  -3  -2  10    7.46    0.52
   3   2  10    7.95    0.55
   3   2  10    8.38    0.66
  -3  -2  10    7.59    0.64
   4  -2  10   37.41    1.15
  -4   2  10   37.37    1.19
  -4   2  10   40.34    1.14
   4  -2  10   36.20    1.20
   4   2 -10   39.95    1.21
   4   2  10   36.60    1.15
   4   2  10   36.21    1.25
  -4  -2  10   37.03    1.26
  -5   2  10   42.94    1.37
   5  -2  10   43.84    1.34
   5   2 -10   46.65    1.44
   5  -2  10   44.75    1.43
   5   2  10   44.27    1.46
   5   2  10   43.10    1.38
  -5  -2  10   41.97    1.42
   6  -2  10   12.36    0.91
   6  -2  10   12.22    0.81
  -6   2  10   11.62    0.79
   6   2 -10   11.95    0.89
  -6  -2  10   12.72    0.86
   6   2  10   14.34    0.95
   6   2  10   10.71    0.89
  -7   2  10    2.58    0.55
   7  -2  10    1.65    0.59
   7  -2  10    1.82    0.52
   7   2 -10    2.56    0.62
   7   2  10    2.11    0.56
   7   2  10    1.49    0.60
  -7  -2  10    2.17    0.56
   8  -2  10    0.75    0.57
  -8   2  10    2.87    0.58
   8   2 -10    1.65    0.69
   8   2  10    2.51    0.72
   8   2  10    3.69    0.69
   0   3  10    0.05    0.25
   0  -3  10    0.17    0.28
   0  -3  10    0.06    0.19
   1  -3  10    8.65    0.51
   1  -3  10    8.93    0.59
  -1   3  10    8.48    0.61
   1   3  10    7.90    0.56
  -1  -3  10    7.82    0.59
  -1  -3  10    8.31    0.49
  -2   3  10    8.91    0.65
   2  -3  10    9.89    0.62
  -2   3  10    9.08    0.61
   2  -3  10    9.11    0.60
  -2  -3  10    9.51    0.55
   2   3  10    8.93    0.66
  -2  -3  10    8.99    0.65
   3  -3  10  120.78    2.38
  -3   3  10  121.80    2.41
   3  -3  10  124.99    2.32
  -3   3  10  124.91    2.35
  -3  -3  10  121.82    2.47
  -3  -3  10  121.56    2.34
   3   3  10  120.79    2.22
   3   3  10  119.44    2.46
  -4   3  10    5.24    0.58
   4  -3  10    4.56    0.56
  -4   3  10    5.97    0.57
   4  -3  10    6.09    0.56
  -4  -3  10    5.71    0.55
  -4  -3  10    5.00    0.60
   4   3  10    4.74    0.58
   4   3  10    5.26    0.56
   5  -3  10    3.35    0.49
   5   3 -10    3.69    0.57
  -5   3  10    4.33    0.56
  -5   3  10    4.47    0.54
   5  -3  10    3.65    0.58
   5   3  10    3.13    0.54
   5   3  10    3.61    0.56
  -5  -3  10    3.25    0.55
   6  -3  10    8.58    0.84
   6   3 -10    8.44    0.84
  -6   3  10    7.66    0.73
   6   3  10    7.67    0.81
  -6  -3  10    8.18    0.79
   6   3  10    8.69    0.85
   7   3 -10    1.31    0.54
   7  -3  10    0.10    0.51
  -7   3  10    1.25    0.47
   7   3  10    1.70    0.53
   7   3  10    1.37    0.55
  -7  -3  10    1.84    0.55
   8   3 -10    1.04    0.58
   8  -3  10    0.79    0.63
   8   3  10    0.50    0.48
   8   3  10    0.24    0.58
   0   4  10   45.50    1.23
   0  -4  10   46.87    1.23
   0  -4  10   46.44    1.17
  -1   4  10   27.88    0.91
  -1   4  10   28.21    1.04
   1  -4  10   29.10    0.94
   1  -4  10   27.43    0.91
  -1  -4  10   27.76    0.90
  -1  -4  10   26.15    0.93
   1   4  10   27.72    0.97
   2  -4  10   15.34    0.73
  -2   4  10   13.88    0.73
   2  -4  10   14.53    0.73
  -2   4  10   13.80    0.73
  -2  -4  10   14.56    0.76
  -2  -4  10   15.37    0.69
   2   4  10   13.57    0.72
   3  -4  10    0.37    0.30
   3  -4  10    0.34    0.32
  -3   4  10    0.34    0.35
  -3   4  10   -0.19    0.29
   3   4  10   -0.04    0.29
  -3  -4  10    0.26    0.35
  -3  -4  10    0.39    0.28
  -4   4  10    9.04    0.69
  -4   4  10    9.87    0.69
   4  -4  10   11.42    0.74
  -4  -4  10   10.23    0.66
   4   4  10   11.26    0.77
  -4  -4  10   10.60    0.81
  -5   4  10   24.79    1.01
   5   4 -10   25.41    1.12
  -5   4  10   25.12    1.10
   5  -4  10   23.71    1.09
  -5  -4  10   25.13    1.12
   5   4  10   26.49    1.20
   6   4 -10   26.51    1.22
   6  -4  10   23.11    1.17
  -6   4  10   26.89    1.27
  -6  -4  10   27.60    1.26
   6   4  10   27.76    1.25
   7  -4  10   -0.79    0.42
   7   4 -10   -0.88    0.39
  -7  -4  10   -0.16    0.39
   7   4  10   -0.10    0.42
   8  -4  10    3.13    0.74
   8   4 -10    3.39    0.78
   8   4  10    2.71    0.69
   0  -5  10    0.14    0.26
   0  -5  10   -0.30    0.30
   0   5  10    0.27    0.29
   1  -5  10    1.42    0.37
   1  -5  10    1.26    0.35
  -1   5  10    0.84    0.33
  -1   5  10    1.25    0.38
  -1  -5  10    1.31    0.32
   1   5  10    1.19    0.34
  -1  -5  10    0.99    0.37
  -2   5  10    5.42    0.52
   2  -5  10    4.67    0.52
  -2   5  10    5.86    0.59
  -2  -5  10    5.61    0.52
   2   5  10    6.14    0.59
  -2  -5  10    5.31    0.57
  -3   5  10   96.42    1.97
  -3   5  10   94.92    2.21
   3  -5  10   94.22    2.13
  -3  -5  10   91.19    2.12
   3   5  10  100.71    2.19
  -3  -5  10   91.45    2.06
   4  -5  10    1.95    0.46
  -4   5  10    1.07    0.40
  -4  -5  10    2.37    0.47
   4   5  10    3.10    0.54
  -4  -5  10    2.80    0.54
  -5   5  10    6.96    0.72
   5  -5  10    8.53    0.79
  -5  -5  10    8.16    0.74
  -5  -5  10    9.17    0.82
   5   5  10    8.11    0.80
   6   5 -10    7.15    0.80
  -6   5  10    7.62    0.87
   6  -5  10    8.67    0.88
  -6  -5  10    8.71    0.87
   6   5  10    6.91    0.79
   7  -5  10    0.06    0.48
   7   5 -10    0.39    0.52
   7   5  10   -0.15    0.47
   8   5  10   -0.35    0.51
   0  -6  10    1.76    0.38
   0   6  10    1.39    0.36
   0  -6  10    1.49    0.39
   0   6  10    0.96    0.38
  -1   6  10    8.18    0.71
  -1   6  10   10.07    0.65
   1  -6  10    9.30    0.64
  -1  -6  10   10.47    0.68
  -1  -6  10    9.61    0.66
   1   6  10   10.49    0.69
   2  -6  10   17.72    0.87
  -2   6  10   18.99    0.97
  -2  -6  10   16.78    0.81
   2   6  10   17.27    0.87
  -2  -6  10   16.24    0.81
   3  -6  10    1.53    0.42
  -3   6  10    2.06    0.49
  -3  -6  10    1.57    0.41
   3   6  10    1.31    0.42
  -3  -6  10    1.40    0.43
  -4   6  10   39.33    1.41
   4  -6  10   38.36    1.39
   4   6  10   40.07    1.40
  -4  -6  10   40.00    1.37
  -4  -6  10   37.16    1.31
   5  -6  10   23.76    1.14
  -5   6  10   26.96    1.27
  -5  -6  10   24.75    1.16
  -5  -6  10   24.66    1.18
   5   6  10   23.87    1.15
   6  -6  10    0.87    0.53
   6   6 -10    1.28    0.53
  -6   6  10    0.81    0.60
  -6  -6  10    1.92    0.54
   6   6  10    1.30    0.52
   7   6 -10    0.74    0.52
  -7   6  10    0.95    0.68
   7  -6  10    0.98    0.55
   7   6  10    0.28    0.53
   0  -7  10    0.15    0.30
   0   7  10   -0.24    0.31
   0   7  10   -0.28    0.27
  -1   7  10    1.34    0.42
   1  -7  10    2.03    0.42
   1   7  10    1.58    0.39
  -1  -7  10    1.74    0.42
   1   7  10    1.45    0.45
  -2   7  10    0.87    0.40
   2  -7  10    0.51    0.36
  -2  -7  10    0.45    0.33
   2   7  10    0.40    0.34
  -2  -7  10    1.42    0.40
   3  -7  10   72.99    1.97
  -3   7  10   78.53    2.14
  -3  -7  10   80.58    1.97
   3   7  10   79.23    1.98
  -3  -7  10   78.23    1.99
  -4   7  10    1.46    0.50
   4  -7  10    2.47    0.54
   4   7  10    2.71    0.52
  -4  -7  10    3.70    0.58
  -4  -7  10    3.39    0.57
   5  -7  10    3.59    0.66
  -5   7  10    2.61    0.61
   5   7  10    2.44    0.57
  -5  -7  10    2.64    0.59
  -5  -7  10    2.55    0.57
   6   7 -10    2.19    0.61
  -6   7  10    1.82    0.71
   6  -7  10    2.38    0.61
   6   7  10    2.63    0.62
  -7   7  10    1.29    0.78
   7   7  10    1.25    0.58
   0   8  10    6.27    0.70
   0  -8  10    6.17    0.65
   1  -8  10   25.75    1.08
  -1   8  10   25.95    1.19
   1   8  10   24.85    1.17
  -1  -8  10   23.28    1.05
  -2   8  10   11.50    0.87
   2  -8  10   13.63    0.84
  -2  -8  10   12.27    0.83
   2   8  10   11.18    0.76
   2   8  10   12.19    0.86
   3  -8  10    0.24    0.37
  -3   8  10   -0.62    0.38
   3   8  10   -0.07    0.36
  -3  -8  10   -0.22    0.35
  -4   8  10    7.41    0.86
   4  -8  10    7.53    0.79
  -4  -8  10    8.31    0.79
  -4  -8  10    8.54    0.83
   4   8  10    7.20    0.75
   5  -8  10   15.07    1.05
  -5   8  10   12.78    1.11
  -5  -8  10   12.88    0.92
   5   8  10   11.02    0.95
  -6   8  10    5.76    0.96
   6   8  10    7.04    0.87
  -6  -8  10    7.13    0.86
   0  -9  10    0.17    0.36
   0   9  10    0.04    0.37
  -1   9  10    0.21    0.41
   1  -9  10    0.54    0.40
  -1  -9  10    0.11    0.40
   1   9  10    0.48    0.41
   2  -9  10    6.75    0.74
  -2   9  10    6.05    0.78
   2   9  10    6.09    0.75
  -2  -9  10    5.79    0.70
  -3   9  10   34.19    1.49
   3  -9  10   34.92    1.40
  -3  -9  10   34.37    1.39
   3   9  10   36.58    1.50
  -4   9  10    1.63    0.60
   4  -9  10    2.51    0.60
   4   9  10    1.81    0.51
  -4  -9  10    2.93    0.63
  -5   9  10    3.17    0.75
   5  -9  10    3.38    0.70
  -5  -9  10    2.46    0.62
   5   9  10    2.09    0.58
   0 -10  10    4.05    0.64
   0  10  10    3.36    0.66
  -1  10  10   10.66    1.00
   1 -10  10   10.60    0.91
   1  10  10    9.84    0.95
  -1 -10  10   11.07    0.92
   2 -10  10    5.91    0.74
  -2  10  10    5.13    0.76
  -2 -10  10    6.26    0.76
   2  10  10    6.59    0.80
  -3  10  10   -0.22    0.51
   3 -10  10    0.33    0.43
   3  10  10    0.24    0.44
  -3 -10  10   -0.17    0.44
  -4  10  10    3.49    0.81
   4  10  10    5.48    0.74
   0 -11  10   -0.38    0.40
   0  11  10    0.33    0.47
   1 -11  10    0.73    0.48
  -1  11  10    2.02    0.62
  -1 -11  10    1.31    0.54
   1  11  10    1.87    0.60
  -2  11  10    0.54    0.58
   2  11  10   -0.26    0.42
  -3  11  10   19.84    1.36
   3  11  10   20.64    1.23
   0   0  11    0.17    0.27
   0   0  11    0.15    0.13
   1   0  11  130.76    2.45
   1   0  11  130.20    2.05
  -1   0  11  128.25    2.02
  -1   0  11  130.20    2.44
  -2   0  11   12.54    0.72
   2   0  11   12.26    0.69
   2   0  11   12.85    0.55
   3   0  11    9.13    0.70
  -3   0  11   10.38    0.70
   3   0  11    9.50    0.60
  -4   0  11   11.33    0.77
   4   0  11   12.84    0.75
   4   0  11   13.37    0.83
  -5   0  11    0.91    0.42
   5   0  11   -0.02    0.40
   5   0  11    0.75    0.39
   6   0  11    1.46    0.45
   6   0  11    1.42    0.51
  -6   0  11    1.85    0.48
  -7   0  11   33.47    1.41
   7   0  11   34.93    1.43
   7   0  11   34.12    1.45
  -8   0  11    1.13    0.53
   8   0  11    1.04    0.63
   8   0  11    0.67    0.49
   0  -1  11    3.42    0.45
   0   1  11    3.23    0.43
   0  -1  11    3.24    0.28
   1  -1  11    1.55    0.34
  -1   1  11    1.63    0.37
   1  -1  11    2.91    0.30
  -1  -1  11    1.74    0.40
  -1  -1  11    1.47    0.23
   1   1  11    2.30    0.38
   2  -1  11   66.40    1.38
   2  -1  11   63.69    1.53
  -2   1  11   65.29    1.44
  -2   1  11   64.15    1.56
   2   1  11   66.68    1.28
  -2  -1  11   65.00    1.61
  -2  -1  11   66.66    1.34
   2   1  11   63.98    1.57
   3  -1  11   16.12    0.72
   3  -1  11   16.30    0.78
  -3   1  11   14.70    0.66
   3   1 -11   14.36    0.65
  -3   1  11   12.70    0.80
   3   1  11   14.34    0.68
  -3  -1  11   14.20    0.80
   3   1  11   15.56    0.79
   4   1 -11   37.07    1.17
  -4   1  11   38.33    1.25
   4  -1  11   35.21    1.21
   4  -1  11   37.82    1.20
   4   1  11   39.86    1.29
   4   1  11   37.41    1.16
  -4  -1  11   36.46    1.30
   5  -1  11    2.19    0.49
   5   1 -11    1.72    0.45
  -5   1  11    2.16    0.51
   5  -1  11    2.82    0.49
  -5  -1  11    2.25    0.49
   5   1  11    1.68    0.44
   5   1  11    2.31    0.51
  -6   1  11    1.18    0.45
   6  -1  11    1.78    0.54
   6  -1  11    1.01    0.41
   6   1 -11    2.24    0.55
   6   1  11    0.20    0.46
  -6  -1  11    1.03    0.45
   6   1  11    1.09    0.45
   7  -1  11    2.35    0.64
  -7   1  11    3.16    0.60
   7  -1  11    3.00    0.61
  -7  -1  11    2.68    0.59
   7   1  11    2.47    0.60
   7   1  11    3.00    0.66
  -8   1  11    2.65    0.60
   8  -1  11    2.45    0.69
   8  -1  11    2.48    0.64
   8   1  11    2.82    0.65
  -8  -1  11    2.24    0.61
   8   1  11    2.09    0.67
   0  -2  11    0.16    0.19
   0   2  11    0.03    0.30
   0  -2  11   -0.09    0.30
   1  -2  11   85.28    1.62
  -1   2  11   86.30    1.83
   1  -2  11   84.50    1.80
  -1  -2  11   83.39    1.82
  -1  -2  11   83.36    1.59
   1   2  11   82.15    1.81
  -2   2  11   29.59    1.03
   2  -2  11   30.31    1.00
  -2   2  11   31.77    0.98
   2  -2  11   32.08    0.96
   2   2  11   32.03    1.06
  -2  -2  11   31.04    0.89
  -2  -2  11   30.41    1.06
  -3   2  11    0.27    0.26
   3  -2  11    0.36    0.31
  -3   2  11    0.77    0.38
   3  -2  11    0.65    0.34
   3   2  11    1.04    0.36
  -3  -2  11   -0.16    0.36
  -3  -2  11    0.47    0.28
   4  -2  11   22.51    0.97
   4   2 -11   19.20    0.88
  -4   2  11   19.51    0.95
  -4   2  11   19.87    0.85
   4  -2  11   20.35    0.92
   4   2  11   20.86    0.97
  -4  -2  11   20.65    1.02
   4   2  11   20.89    0.90
   5  -2  11   30.60    1.15
   5   2 -11   31.65    1.20
  -5   2  11   33.54    1.22
   5  -2  11   30.38    1.20
  -5  -2  11   31.74    1.23
   5   2  11   30.52    1.26
   5   2  11   30.28    1.16
   6  -2  11   16.14    0.94
   6   2 -11   14.37    0.96
   6  -2  11   15.31    0.95
  -6   2  11   15.81    0.91
   6   2  11   14.48    0.95
   6   2  11   14.68    0.98
  -6  -2  11   15.75    1.00
   7  -2  11   28.54    1.24
  -7   2  11   27.64    1.25
   7   2 -11   29.18    1.38
   7  -2  11   26.87    1.33
   7   2  11   26.95    1.32
  -7  -2  11   26.12    1.27
   7   2  11   29.04    1.36
   8  -2  11    1.45    0.62
   8   2 -11    0.77    0.64
  -8   2  11    1.41    0.55
   8   2  11    2.48    0.70
  -8  -2  11    1.12    0.52
   8   2  11    1.76    0.60
   0  -3  11   15.79    0.63
   0   3  11   13.03    0.70
   0  -3  11   14.66    0.73
   1  -3  11   29.49    0.97
   1  -3  11   28.60    0.89
  -1   3  11   29.31    0.99
  -1  -3  11   30.52    1.02
   1   3  11   28.36    1.00
  -1  -3  11   28.58    0.87
   2  -3  11   28.53    0.98
  -2   3  11   28.48    1.02
   2  -3  11   28.34    0.94
  -2   3  11   28.93    1.01
   2   3  11   26.74    1.00
  -2  -3  11   27.57    0.89
  -2  -3  11   26.52    1.01
   3  -3  11    0.82    0.37
   3  -3  11    0.89    0.33
  -3   3  11    0.58    0.30
  -3   3  11    0.60    0.39
  -3  -3  11    0.99    0.42
  -3  -3  11    0.77    0.32
   3   3  11    1.74    0.40
  -4   3  11   12.71    0.77
  -4   3  11   13.34    0.77
   4  -3  11   13.34    0.76
   4  -3  11   13.30    0.78
   4   3  11   12.99    0.81
  -4  -3  11   13.80    0.75
  -4  -3  11   12.22    0.81
  -5   3  11    2.88    0.48
   5   3 -11    2.83    0.52
  -5   3  11    2.49    0.49
   5  -3  11    2.49    0.46
   5  -3  11    2.15    0.52
   5   3  11    2.16    0.49
  -5  -3  11    2.70    0.53
   6   3 -11   10.52    0.92
   6  -3  11    8.73    0.86
  -6   3  11   10.44    0.77
  -6  -3  11    8.16    0.82
   6   3  11    7.80    0.81
   7   3 -11   10.37    0.96
   7  -3  11   10.30    0.96
  -7   3  11   10.67    0.90
  -7  -3  11    9.31    0.90
   7   3  11   11.20    1.00
   8   3 -11    2.71    0.72
   8  -3  11    3.07    0.76
   8   3  11    3.12    0.69
   0  -4  11   -0.34    0.22
   0  -4  11    0.19    0.35
   0   4  11    0.19    0.31
   1  -4  11  143.92    2.60
  -1   4  11  143.16    2.65
  -1   4  11  144.81    2.84
   1  -4  11  141.36    2.60
  -1  -4  11  138.74    2.65
   1   4  11  143.56    2.70
  -1  -4  11  141.22    2.59
   2  -4  11   16.17    0.76
   2  -4  11   14.73    0.72
  -2   4  11   14.64    0.74
  -2   4  11   14.70    0.82
  -2  -4  11   14.59    0.79
   2   4  11   14.41    0.82
  -2  -4  11   14.48    0.69
  -3   4  11    6.53    0.60
  -3   4  11    8.70    0.68
   3  -4  11    6.64    0.63
   3  -4  11    6.58    0.58
   3   4  11    6.43    0.64
  -3  -4  11    7.20    0.61
  -3  -4  11    7.12    0.69
  -4   4  11    5.34    0.59
   4  -4  11    5.64    0.64
  -4   4  11    5.75    0.63
  -4  -4  11    6.50    0.62
   4   4  11    5.32    0.63
  -4  -4  11    5.73    0.66
  -5   4  11   19.05    0.93
   5   4 -11   17.16    0.96
   5  -4  11   17.03    0.99
  -5   4  11   18.28    1.00
   5   4  11   16.68    0.98
  -5  -4  11   18.16    1.00
   6  -4  11    8.23    0.83
   6   4 -11    8.76    0.84
   6   4  11    9.54    0.90
  -6  -4  11    9.67    0.89
   7  -4  11   21.33    1.21
   7   4 -11   21.28    1.22
   7   4  11   20.21    1.19
  -7  -4  11   20.94    1.18
   8   4 -11   -0.29    0.57
   8   4  11    0.02    0.47
   0  -5  11    0.22    0.33
   0  -5  11    0.38    0.31
   0   5  11   -0.02    0.31
   1  -5  11    7.01    0.58
   1  -5  11    6.49    0.57
  -1   5  11    5.57    0.61
  -1   5  11    6.67    0.58
   1   5  11    7.89    0.65
  -1  -5  11    6.22    0.55
  -1  -5  11    6.62    0.61
   2  -5  11   33.65    1.14
  -2   5  11   35.82    1.13
  -2   5  11   34.61    1.25
  -2  -5  11   34.78    1.19
  -2  -5  11   36.21    1.13
   2   5  11   34.32    1.18
  -3   5  11   11.76    0.82
   3  -5  11   10.99    0.76
  -3   5  11   11.41    0.72
  -3  -5  11    9.55    0.65
  -3  -5  11   10.89    0.79
   3   5  11   11.58    0.77
   4  -5  11   23.14    1.06
  -4   5  11   22.16    1.04
  -4   5  11   21.68    0.93
  -4  -5  11   23.64    1.10
  -4  -5  11   23.33    0.99
   4   5  11   24.39    1.12
  -5   5  11    2.77    0.56
   5  -5  11    1.66    0.53
   5   5  11    1.84    0.53
  -5  -5  11    1.88    0.51
  -5  -5  11    1.75    0.46
   6   5 -11    1.31    0.52
   6  -5  11    0.89    0.49
  -6   5  11    1.21    0.58
   6   5  11    0.61    0.45
  -6  -5  11    0.76    0.48
   7  -5  11    1.78    0.65
   7   5 -11    0.75    0.56
   7   5  11    2.33    0.62
  -7  -5  11    2.51    0.64
   0   6  11    0.25    0.31
   0   6  11    0.05    0.34
   0  -6  11    0.03    0.33
   0  -6  11   -0.13    0.27
  -1   6  11   29.41    1.02
   1  -6  11   29.39    1.07
  -1   6  11   28.88    1.17
  -1  -6  11   28.42    1.04
   1   6  11   29.23    1.05
  -1  -6  11   30.59    1.07
   2  -6  11   11.69    0.76
  -2   6  11   11.12    0.74
  -2   6  11   13.34    0.84
  -2  -6  11   13.11    0.73
   2   6  11   11.88    0.78
  -2  -6  11   11.74    0.77
  -3   6  11    8.25    0.77
   3  -6  11    7.65    0.70
  -3  -6  11    7.70    0.67
   3   6  11    7.67    0.71
  -3  -6  11    7.03    0.69
  -4   6  11   16.23    1.01
   4  -6  11   12.53    0.85
  -4  -6  11   15.49    0.92
  -4  -6  11   15.05    0.86
   4   6  11   17.42    0.99
   5  -6  11    2.83    0.58
  -5   6  11    4.86    0.72
   5   6  11    4.68    0.69
  -5  -6  11    4.83    0.69
  -5  -6  11    4.60    0.66
   6  -6  11    2.87    0.64
   6   6 -11    3.13    0.63
  -6   6  11    2.24    0.66
   6   6  11    3.22    0.64
  -6  -6  11    2.95    0.65
   7   6 -11   25.74    1.36
   7  -6  11   25.13    1.35
   7   6  11   22.84    1.35
   0   7  11    0.41    0.36
   0   7  11    0.71    0.35
   0  -7  11    0.51    0.36
   1  -7  11    3.07    0.50
  -1   7  11    2.56    0.50
   1   7  11    2.15    0.44
   1   7  11    2.04    0.48
  -1  -7  11    2.28    0.45
   2  -7  11   25.34    1.09
  -2   7  11   24.93    1.15
  -2  -7  11   25.66    1.04
  -2  -7  11   23.64    1.02
   2   7  11   25.35    1.06
   3  -7  11    3.72    0.61
  -3   7  11    5.93    0.70
  -3  -7  11    4.55    0.62
   3   7  11    4.57    0.61
  -3  -7  11    4.52    0.60
   4  -7  11   19.21    1.02
  -4   7  11   19.11    1.08
  -4  -7  11   17.02    0.97
  -4  -7  11   19.07    0.99
   4   7  11   17.77    1.03
  -5   7  11    2.41    0.61
   5  -7  11    1.76    0.56
  -5  -7  11    2.02    0.51
   5   7  11    2.27    0.58
  -5  -7  11    2.87    0.60
  -6   7  11   -0.68    0.50
   6   7 -11    0.52    0.50
   6  -7  11   -0.58    0.44
   6   7  11   -0.13    0.44
   0   8  11    0.09    0.35
   0  -8  11    0.10    0.34
   1  -8  11   44.21    1.46
  -1   8  11   43.76    1.58
   1   8  11   45.43    1.61
  -1  -8  11   45.20    1.50
  -2   8  11    7.16    0.80
   2  -8  11    6.47    0.71
   2   8  11    6.44    0.66
   2   8  11    7.00    0.78
  -2  -8  11    7.25    0.71
   3  -8  11    0.22    0.42
  -3   8  11    0.39    0.44
   3   8  11    0.41    0.42
  -3  -8  11    0.13    0.37
   4  -8  11    4.59    0.69
  -4   8  11    4.30    0.70
   4   8  11    5.11    0.67
  -4  -8  11    4.11    0.63
  -4  -8  11    4.50    0.64
   5  -8  11    5.49    0.77
  -5   8  11    5.84    0.82
  -5  -8  11    7.86    0.82
  -5  -8  11    6.07    0.75
   5   8  11    6.16    0.77
  -6   8  11    1.21    0.69
   6   8  11    1.24    0.59
   0  -9  11    2.61    0.56
   0   9  11    2.64    0.57
   1  -9  11   10.70    0.88
  -1   9  11   11.89    0.92
   1   9  11   11.83    0.92
  -1  -9  11   12.55    0.89
   2  -9  11    7.51    0.79
  -2   9  11    6.40    0.80
  -2  -9  11    7.85    0.78
   2   9  11    5.98    0.74
   3  -9  11    1.88    0.52
  -3   9  11    1.66    0.56
   3   9  11    2.20    0.53
  -3  -9  11    1.77    0.53
  -4   9  11    8.19    0.96
   4  -9  11    7.90    0.84
   4   9  11    8.34    0.85
  -4  -9  11    8.41    0.85
  -5   9  11    0.25    0.62
   5   9  11    0.02    0.44
   0  10  11    0.23    0.47
   0 -10  11    0.14    0.43
  -1  10  11   19.38    1.23
   1 -10  11   21.30    1.16
  -1 -10  11   19.70    1.09
   1  10  11   21.21    1.25
  -2  10  11    7.24    0.89
   2 -10  11    6.02    0.75
  -2 -10  11    5.77    0.75
   2  10  11    5.17    0.74
  -3  10  11    0.64    0.58
   3 -10  11    1.06    0.50
   3  10  11    0.69    0.46
  -3 -10  11    0.47    0.45
  -4  10  11    4.27    0.84
   4  10  11    4.24    0.73
   0  11  11    1.16    0.55
  -1  11  11    2.54    0.67
   1  11  11    3.25    0.70
  -2  11  11    5.59    0.87
   2  11  11    4.99    0.77
   0   0  12  138.18    2.61
  -1   0  12    1.24    0.39
   1   0  12    1.19    0.36
   2   0  12   18.30    0.64
   2   0  12   19.16    0.86
  -2   0  12   19.92    0.90
  -3   0  12   -0.55    0.32
   3   0  12    0.03    0.29
   3   0  12   -0.24    0.30
   4   0  12    3.70    0.51
  -4   0  12    3.78    0.59
   4   0  12    3.81    0.54
  -5   0  12    3.82    0.58
   5   0  12    3.73    0.57
   5   0  12    3.66    0.57
  -6   0  12   14.10    0.96
   6   0  12   13.09    0.89
   6   0  12   13.35    0.93
  -7   0  12    2.36    0.57
   7   0  12    2.67    0.65
   7   0  12    1.27    0.49
   8   0  12    9.51    1.03
  -8   0  12    7.90    0.91
   8   0  12    8.12    0.91
   0   1  12    0.25    0.33
   0  -1  12    0.34    0.32
   0  -1  12   -0.01    0.17
   1  -1  12   51.64    1.09
   1  -1  12   49.40    1.35
  -1   1  12   49.90    1.37
   1   1  12   49.91    1.37
  -1  -1  12   49.34    1.40
  -1  -1  12   52.24    1.07
  -2   1  12   79.90    1.84
   2  -1  12   80.84    1.82
   2  -1  12   82.41    1.61
  -2   1  12   80.30    1.70
  -2  -1  12   79.79    1.54
  -2  -1  12   80.94    1.87
   2   1  12   77.05    1.84
   3  -1  12   12.63    0.67
  -3   1  12   14.89    0.66
  -3   1  12   15.53    0.88
   3  -1  12   13.60    0.77
   3   1  12   12.89    0.78
  -3  -1  12   13.41    0.81
   4  -1  12    3.51    0.53
  -4   1  12    3.22    0.54
   4  -1  12    3.47    0.52
   4   1  12    3.89    0.54
  -4  -1  12    3.56    0.58
  -5   1  12   20.25    1.01
   5  -1  12   19.59    0.99
   5  -1  12   21.72    1.00
   5   1  12   19.39    0.95
  -5  -1  12   22.07    1.06
   5   1  12   21.42    1.04
   6  -1  12    5.07    0.68
  -6   1  12    6.06    0.72
   6  -1  12    6.37    0.73
   6   1  12    5.55    0.71
   6   1  12    7.78    0.82
  -6  -1  12    4.99    0.68
   7  -1  12   10.94    0.99
   7  -1  12   11.22    0.93
  -7   1  12   11.46    0.97
  -7  -1  12   10.14    0.94
   7   1  12    9.00    0.91
   7   1  12    9.98    0.94
   8  -1  12   17.62    1.15
   8  -1  12   19.37    1.26
  -8   1  12   19.43    1.17
   8   1  12   17.70    1.16
  -8  -1  12   17.64    1.15
   0  -2  12  210.75    3.59
   0  -2  12  212.81    3.28
   0   2  12  199.46    3.56
   1  -2  12    0.82    0.26
  -1   2  12    0.64    0.35
   1  -2  12    0.63    0.33
  -1  -2  12    0.84    0.38
   1   2  12    1.25    0.37
  -1  -2  12    0.70    0.24
   2  -2  12    1.01    0.31
  -2   2  12    1.49    0.45
   2  -2  12    0.71    0.35
  -2   2  12    0.53    0.28
  -2  -2  12    1.58    0.44
   2   2  12    0.47    0.33
  -2  -2  12    0.69    0.25
  -3   2  12    1.95    0.46
   3  -2  12    2.27    0.45
   3  -2  12    2.55    0.44
  -3   2  12    2.96    0.41
  -3  -2  12    3.02    0.41
   3   2  12    3.28    0.50
  -3  -2  12    3.40    0.56
   4   2 -12    3.95    0.50
   4  -2  12    3.71    0.52
  -4   2  12    5.03    0.62
   4  -2  12    4.29    0.56
  -4  -2  12    5.02    0.64
   4   2  12    4.65    0.60
   5  -2  12   10.26    0.82
   5   2 -12   11.12    0.78
  -5   2  12   10.67    0.85
   5  -2  12    9.51    0.79
  -5  -2  12    9.62    0.82
   5   2  12   10.82    0.87
  -6   2  12   34.62    1.35
   6  -2  12   35.74    1.40
   6  -2  12   36.20    1.36
   6   2  12   36.59    1.45
  -6  -2  12   39.46    1.49
  -7   2  12    1.49    0.50
   7  -2  12    1.30    0.53
   7  -2  12    0.45    0.48
   7   2  12    0.68    0.51
  -7  -2  12    0.50    0.49
   8  -2  12    7.39    0.95
  -8   2  12    7.37    0.84
   8   2  12    6.45    0.86
  -8  -2  12    6.41    0.85
   0  -3  12   -0.02    0.34
   0  -3  12    0.03    0.22
   0   3  12   -0.12    0.33
   1  -3  12   64.56    1.45
  -1   3  12   65.50    1.61
   1  -3  12   63.31    1.56
  -1  -3  12   65.24    1.43
   1   3  12   64.22    1.63
  -1  -3  12   65.93    1.62
   2  -3  12   46.58    1.30
  -2   3  12   48.46    1.38
  -2   3  12   46.53    1.36
   2  -3  12   49.78    1.27
   2   3  12   50.01    1.43
  -2  -3  12   47.54    1.42
  -2  -3  12   48.10    1.23
   3  -3  12    5.31    0.54
   3  -3  12    4.21    0.53
  -3   3  12    4.67    0.52
  -3   3  12    5.07    0.58
  -3  -3  12    4.56    0.60
   3   3  12    4.19    0.56
  -3  -3  12    4.60    0.49
  -4   3  12    6.03    0.60
  -4   3  12    3.88    0.55
   4  -3  12    4.85    0.59
   4  -3  12    5.81    0.61
  -4  -3  12    4.60    0.62
  -4  -3  12    5.04    0.54
   4   3  12    4.22    0.59
   5  -3  12   17.05    0.92
   5  -3  12   17.89    0.98
   5   3 -12   15.65    0.93
  -5   3  12   17.53    0.95
  -5  -3  12   17.74    1.02
   5   3  12   16.94    1.01
   6  -3  12   -0.23    0.45
   6   3 -12    0.46    0.46
  -6   3  12    0.34    0.41
   6   3  12   -0.04    0.43
  -6  -3  12   -0.12    0.40
   7   3 -12   14.88    1.09
  -7   3  12   17.79    1.04
   7  -3  12   16.00    1.11
   7   3  12   15.42    1.10
  -7  -3  12   17.14    1.08
   8  -3  12    8.45    1.01
  -8  -3  12    8.97    0.98
   8   3  12    7.10    0.93
   0   4  12  224.35    3.87
   0  -4  12  225.39    3.83
   0  -4  12  230.90    3.75
   1  -4  12    2.24    0.45
  -1   4  12    1.46    0.38
  -1   4  12    1.96    0.45
   1  -4  12    1.71    0.37
   1   4  12    1.55    0.41
  -1  -4  12    1.37    0.34
  -1  -4  12    1.58    0.46
  -2   4  12    2.12    0.44
   2  -4  12    2.39    0.43
  -2   4  12    2.39    0.45
   2  -4  12    1.65    0.43
   2   4  12    1.43    0.45
  -2  -4  12    1.52    0.45
  -2  -4  12    2.00    0.38
  -3   4  12    0.13    0.32
  -3   4  12   -0.42    0.33
   3  -4  12    0.89    0.35
   3  -4  12   -0.01    0.31
  -3  -4  12    0.35    0.39
  -3  -4  12    0.05    0.29
   3   4  12    0.27    0.34
  -4   4  12    9.73    0.78
   4  -4  12    9.32    0.70
  -4   4  12    9.99    0.75
   4   4  12    9.84    0.84
  -4  -4  12    8.96    0.79
  -4  -4  12   10.42    0.71
  -5   4  12   -0.42    0.38
   5  -4  12    0.38    0.40
  -5   4  12    0.17    0.39
   5   4 -12    0.48    0.39
  -5  -4  12    0.99    0.45
   5   4  12    0.02    0.37
   6   4 -12   25.79    1.26
   6  -4  12   28.91    1.31
  -6  -4  12   28.05    1.33
   6   4  12   24.72    1.27
   7  -4  12    4.17    0.73
   7   4 -12    4.24    0.77
   7   4  12    3.20    0.68
  -7  -4  12    3.31    0.69
   0  -5  12   -0.07    0.29
   0  -5  12   -0.14    0.36
   0   5  12    0.04    0.35
   1  -5  12   29.01    1.04
  -1   5  12   33.36    1.21
   1  -5  12   33.10    1.09
  -1   5  12   30.00    1.10
   1   5  12   31.89    1.15
  -1  -5  12   31.52    1.05
  -1  -5  12   30.56    1.08
   2  -5  12   45.27    1.34
  -2   5  12   45.61    1.32
  -2   5  12   43.24    1.41
  -2  -5  12   44.32    1.38
   2   5  12   45.58    1.40
  -2  -5  12   44.65    1.31
   3  -5  12    7.10    0.67
  -3   5  12    6.11    0.61
  -3   5  12    6.26    0.66
   3   5  12    7.65    0.74
  -3  -5  12    6.88    0.68
  -3  -5  12    6.69    0.61
  -4   5  12    1.61    0.44
  -4   5  12    1.15    0.46
   4  -5  12    1.43    0.46
   4   5  12    1.22    0.45
  -4  -5  12    0.58    0.38
  -4  -5  12    1.49    0.48
   5  -5  12   18.35    1.04
  -5   5  12   19.40    1.10
  -5  -5  12   19.27    1.07
  -5  -5  12   18.51    1.00
   5   5  12   18.87    1.07
   6   5 -12    3.24    0.65
   6  -5  12    2.44    0.62
  -6  -5  12    3.50    0.66
   6   5  12    2.44    0.60
   7  -5  12    8.52    0.92
   7   5 -12    9.79    1.03
   7   5  12    7.27    0.90
  -7  -5  12    7.34    0.89
   0  -6  12   43.97    1.27
   0   6  12   43.77    1.31
   0   6  12   39.72    1.46
   0  -6  12   44.76    1.32
   1  -6  12    0.13    0.32
  -1   6  12   -0.07    0.32
  -1   6  12   -0.02    0.34
   1   6  12    0.06    0.32
  -1  -6  12    0.18    0.36
  -1  -6  12    0.29    0.33
  -2   6  12    6.24    0.60
  -2   6  12    5.89    0.66
   2  -6  12    6.63    0.65
  -2  -6  12    6.66    0.63
   2   6  12    6.72    0.68
  -2  -6  12    5.51    0.60
   3  -6  12    0.27    0.35
  -3   6  12    0.57    0.42
   3   6  12    0.28    0.36
  -3  -6  12    0.99    0.44
  -3  -6  12    0.52    0.34
  -4   6  12    0.45    0.44
   4  -6  12    0.84    0.47
  -4  -6  12    0.62    0.46
  -4  -6  12    0.16    0.36
   4   6  12    0.55    0.43
  -5   6  12    9.44    0.91
   5  -6  12   10.27    0.91
  -5  -6  12    8.88    0.85
  -5  -6  12   10.03    0.87
   5   6  12    9.01    0.89
   6  -6  12   15.02    1.02
   6   6 -12   12.91    1.07
  -6   6  12   16.56    1.20
   6   6  12   13.28    1.11
  -6  -6  12   13.18    0.98
   7   6 -12    0.90    0.57
   7   6  12   -0.03    0.49
   0   7  12   -0.03    0.32
   0   7  12    0.26    0.35
   0  -7  12   -0.10    0.34
  -1   7  12   28.16    1.27
   1  -7  12   26.19    1.08
   1   7  12   31.09    1.14
   1   7  12   29.28    1.26
  -1  -7  12   28.14    1.14
  -2   7  12   37.86    1.43
   2  -7  12   37.73    1.36
   2   7  12   40.60    1.34
  -2  -7  12   39.77    1.36
  -2  -7  12   39.60    1.32
   3  -7  12    7.40    0.74
  -3   7  12    5.54    0.74
   3   7  12    5.90    0.69
  -3  -7  12    6.61    0.69
  -3  -7  12    6.15    0.67
  -4   7  12    3.33    0.65
   4  -7  12    3.39    0.59
   4   7  12    3.68    0.63
  -4  -7  12    3.75    0.63
  -4  -7  12    4.28    0.61
   5  -7  12    7.68    0.85
  -5   7  12    5.71    0.81
  -5  -7  12    4.90    0.70
  -5  -7  12    6.15    0.76
   5   7  12    7.97    0.89
   6  -7  12    3.27    0.68
   6   7 -12    4.39    0.70
  -6   7  12    2.78    0.77
  -6  -7  12    4.83    0.77
   6   7  12    4.34    0.78
   0  -8  12   69.53    1.91
   0   8  12   66.49    2.03
   1  -8  12    0.37    0.37
  -1   8  12    0.12    0.38
  -1  -8  12    0.19    0.37
   1   8  12   -0.06    0.35
   2  -8  12    1.60    0.47
  -2   8  12    1.81    0.54
   2   8  12    1.37    0.46
   2   8  12    1.54    0.52
  -2  -8  12    2.61    0.52
   3  -8  12    0.59    0.42
  -3   8  12    0.19    0.43
   3   8  12    0.04    0.41
  -3  -8  12    0.22    0.40
   4  -8  12    1.16    0.50
  -4   8  12    1.12    0.55
  -4  -8  12    1.48    0.51
  -4  -8  12    2.51    0.57
   4   8  12    2.02    0.55
   5  -8  12    1.55    0.54
  -5   8  12   -0.37    0.52
   5   8  12    1.29    0.54
  -5  -8  12    0.89    0.53
  -5  -8  12    0.60    0.49
   0   9  12    0.21    0.45
   0  -9  12    0.19    0.39
  -1   9  12   10.93    0.97
   1  -9  12   11.90    0.89
  -1  -9  12   12.04    0.86
   1   9  12   11.70    1.02
   2  -9  12   18.54    1.06
  -2   9  12   18.25    1.14
  -2  -9  12   16.34    0.98
   2   9  12   15.72    1.05
  -3   9  12    3.46    0.71
   3  -9  12    4.59    0.69
  -3  -9  12    3.98    0.67
   3   9  12    4.13    0.67
   4  -9  12    1.61    0.54
  -4   9  12    0.38    0.59
   4   9  12    1.48    0.53
  -4  -9  12    1.56    0.56
   0  10  12   37.77    1.63
   0 -10  12   43.30    1.62
   1 -10  12   -0.38    0.38
  -1  10  12    0.14    0.50
   1  10  12    0.06    0.42
  -1 -10  12    0.34    0.46
   2 -10  12    1.21    0.52
  -2  10  12   -0.27    0.48
  -2 -10  12    0.08    0.47
   2  10  12   -0.09    0.42
  -3  10  12    0.01    0.54
   3  10  12    0.28    0.46
   0  11  12   -0.62    0.44
   0   0  13   -0.11    0.31
   1   0  13    7.58    0.66
  -1   0  13    7.35    0.65
   2   0  13    3.41    0.50
  -2   0  13    2.79    0.50
   3   0  13  114.83    2.42
  -3   0  13  108.76    2.40
  -4   0  13    2.76    0.54
   4   0  13    2.82    0.53
  -5   0  13    5.14    0.66
   5   0  13    5.90    0.67
   6   0  13    3.66    0.62
  -6   0  13    2.67    0.60
   7   0  13    1.42    0.53
  -7   0  13    2.29    0.57
  -8   0  13    0.11    0.49
   8   0  13    0.16    0.50
   0   1  13    0.12    0.32
   0  -1  13    0.58    0.36
  -1   1  13   52.61    1.47
   1  -1  13   50.21    1.41
   1   1  13   50.27    1.43
  -2   1  13   13.51    0.68
   2  -1  13   12.16    0.61
  -2   1  13   14.27    0.83
   2  -1  13   14.26    0.80
  -2  -1  13   12.87    0.82
   2   1  13   14.58    0.83
   3  -1  13    1.93    0.46
  -3   1  13    0.44    0.43
   3  -1  13    1.45    0.38
   3   1  13    1.59    0.45
  -3  -1  13    1.65    0.47
  -4   1  13   37.87    1.32
   4  -1  13   39.31    1.24
   4  -1  13   36.33    1.28
  -4  -1  13   37.77    1.35
   4   1  13   38.93    1.39
   5  -1  13   61.79    1.78
  -5   1  13   65.03    1.84
   5  -1  13   61.51    1.71
  -5  -1  13   62.20    1.84
   5   1  13   63.81    1.88
  -6   1  13    0.14    0.41
   6  -1  13    0.22    0.47
   6  -1  13    0.43    0.44
   6   1  13   -0.04    0.40
  -6  -1  13    0.40    0.44
  -7   1  13    1.83    0.54
   7  -1  13   -0.16    0.47
   7  -1  13    0.89    0.56
   7   1  13    1.08    0.51
  -7  -1  13    0.43    0.47
  -8   1  13    1.67    0.58
   8  -1  13    0.39    0.59
   8  -1  13    0.81    0.55
  -8  -1  13   -0.28    0.43
   8   1  13   -0.01    0.49
   0  -2  13   -0.03    0.20
   0   2  13    0.27    0.34
   0  -2  13   -0.01    0.35
   1  -2  13    1.91    0.32
  -1   2  13    1.21    0.44
   1  -2  13    1.51    0.41
   1   2  13    0.89    0.38
  -1  -2  13    1.53    0.45
  -1  -2  13    1.19    0.27
  -2   2  13    0.55    0.30
  -2   2  13    0.74    0.45
   2  -2  13    0.40    0.30
   2  -2  13    0.91    0.41
  -2  -2  13    0.50    0.40
   2   2  13    0.71    0.39
  -2  -2  13    0.59    0.27
  -3   2  13  111.44    2.27
   3  -2  13  112.01    2.24
   3  -2  13  111.48    2.35
  -3   2  13  111.55    2.39
  -3  -2  13  111.30    2.18
  -3  -2  13  109.60    2.45
   3   2  13  113.57    2.48
   4  -2  13    4.89    0.59
  -4   2  13    5.93    0.68
   4  -2  13    6.04    0.61
  -4  -2  13    5.44    0.67
   4   2  13    6.06    0.68
  -5   2  13   21.83    1.07
   5  -2  13   19.20    0.99
   5  -2  13   22.23    1.06
   5   2  13   21.38    1.10
  -5  -2  13   22.27    1.11
   6  -2  13    1.69    0.51
  -6   2  13    2.62    0.57
   6  -2  13    0.97    0.52
   6   2  13    2.52    0.57
  -6  -2  13    2.21    0.57
   7  -2  13   -0.48    0.43
  -7   2  13    0.94    0.46
   7  -2  13    0.23    0.50
  -7  -2  13    1.00    0.52
   7   2  13   -0.33    0.40
   8  -2  13   -0.84    0.47
  -8   2  13    0.50    0.49
   8   2  13   -0.27    0.48
  -8  -2  13    0.08    0.48
   0  -3  13    0.73    0.42
   0  -3  13    0.70    0.28
   0   3  13    0.25    0.35
   1  -3  13    8.88    0.56
   1  -3  13    8.22    0.67
  -1   3  13   10.30    0.77
  -1  -3  13    8.28    0.71
   1   3  13    8.21    0.69
  -1  -3  13    8.87    0.53
  -2   3  13   22.46    0.94
  -2   3  13   22.91    0.99
   2  -3  13   24.46    0.91
   2  -3  13   24.23    1.02
  -2  -3  13   24.92    1.06
  -2  -3  13   23.70    0.85
   2   3  13   23.87    1.03
  -3   3  13    4.15    0.57
   3  -3  13    4.92    0.55
  -3   3  13    4.60    0.54
   3  -3  13    4.94    0.59
  -3  -3  13    4.64    0.49
  -3  -3  13    4.05    0.59
   3   3  13    4.55    0.59
  -4   3  13   10.08    0.74
   4  -3  13    9.60    0.76
   4  -3  13   11.37    0.75
  -4   3  13   10.37    0.75
  -4  -3  13    9.63    0.82
  -4  -3  13   10.28    0.71
   4   3  13    9.01    0.81
  -5   3  13   36.07    1.30
   5  -3  13   33.57    1.23
   5  -3  13   35.50    1.32
   5   3  13   30.84    1.33
  -5  -3  13   33.74    1.35
  -6   3  13    0.08    0.42
   6  -3  13    0.59    0.50
   6   3  13   -0.18    0.39
  -6  -3  13    0.61    0.47
  -7   3  13    1.27    0.52
   7  -3  13    0.89    0.53
  -7  -3  13    1.01    0.52
   7   3  13    1.21    0.55
   0  -4  13    0.03    0.27
   0   4  13    0.43    0.37
   0  -4  13   -0.05    0.39
   1  -4  13    9.12    0.61
  -1   4  13    9.16    0.73
   1  -4  13    9.56    0.74
  -1   4  13    9.56    0.75
  -1  -4  13    9.91    0.60
   1   4  13    9.14    0.73
  -1  -4  13    8.33    0.71
  -2   4  13    5.47    0.61
   2  -4  13    6.52    0.57
  -2   4  13    5.93    0.60
   2  -4  13    6.68    0.61
   2   4  13    5.83    0.63
  -2  -4  13    5.24    0.62
  -2  -4  13    5.84    0.55
   3  -4  13   57.77    1.54
  -3   4  13   59.06    1.59
   3  -4  13   54.77    1.54
  -3   4  13   56.56    1.61
  -3  -4  13   55.08    1.47
  -3  -4  13   57.08    1.64
   3   4  13   56.27    1.67
   4  -4  13    3.38    0.53
  -4   4  13    4.30    0.59
  -4   4  13    2.43    0.47
  -4  -4  13    3.20    0.60
  -4  -4  13    2.31    0.46
   4   4  13    2.40    0.53
   5   4 -13   17.15    0.95
   5  -4  13   17.28    1.00
  -5   4  13   17.24    0.92
  -5  -4  13   16.55    1.01
   5   4  13   18.10    1.05
   6  -4  13    1.81    0.59
   6   4 -13    1.62    0.53
  -6  -4  13    1.61    0.54
   6   4  13    1.93    0.56
   7  -4  13   -0.08    0.49
  -7  -4  13    0.53    0.49
   7   4  13    0.17    0.53
   0   5  13    0.43    0.37
   0  -5  13    0.41    0.41
   0  -5  13    0.24    0.30
  -1   5  13   24.45    1.03
   1  -5  13   24.88    1.01
   1  -5  13   26.71    0.99
  -1   5  13   25.64    1.10
   1   5  13   25.61    1.08
  -1  -5  13   27.88    1.01
  -1  -5  13   26.86    1.05
  -2   5  13    7.15    0.71
  -2   5  13    7.75    0.68
   2  -5  13    7.43    0.65
   2   5  13    8.82    0.77
  -2  -5  13    7.70    0.65
  -2  -5  13    7.48    0.72
  -3   5  13    0.85    0.38
  -3   5  13    1.21    0.43
   3  -5  13    1.43    0.42
  -3  -5  13    1.23    0.47
  -3  -5  13    1.09    0.38
   3   5  13    0.91    0.45
  -4   5  13   22.85    1.03
   4  -5  13   21.62    1.06
  -4   5  13   21.49    1.07
  -4  -5  13   24.19    1.05
  -4  -5  13   24.18    1.13
   4   5  13   21.97    1.11
  -5   5  13   41.42    1.53
   5  -5  13   41.05    1.50
   5   5  13   39.18    1.53
  -5  -5  13   39.56    1.43
  -5  -5  13   39.59    1.52
   6   5 -13    0.42    0.48
   6  -5  13    0.41    0.50
  -6  -5  13   -0.51    0.40
   6   5  13    0.03    0.45
   7   5 -13   -0.29    0.51
   7  -5  13   -0.48    0.46
  -7  -5  13    0.18    0.50
   7   5  13    0.10    0.49
   0  -6  13    0.14    0.32
   0  -6  13    0.33    0.39
   0   6  13   -0.32    0.33
   0   6  13    0.02    0.36
  -1   6  13    0.69    0.40
   1  -6  13    0.91    0.38
  -1   6  13    0.11    0.36
  -1  -6  13    0.69    0.34
  -1  -6  13    0.70    0.42
   1   6  13    0.51    0.38
   2  -6  13    7.14    0.67
  -2   6  13    6.47    0.72
  -2   6  13    6.92    0.66
  -2  -6  13    7.73    0.67
   2   6  13    6.74    0.69
  -2  -6  13    7.17    0.70
  -3   6  13   92.40    2.34
   3  -6  13   84.11    2.16
   3   6  13   90.82    2.25
  -3  -6  13   92.20    2.23
  -3  -6  13   84.43    2.11
   4  -6  13   -0.18    0.37
  -4   6  13   -0.56    0.40
   4   6  13    0.57    0.45
  -4  -6  13    0.39    0.45
  -4  -6  13    0.49    0.38
  -5   6  13    5.81    0.76
   5  -6  13    5.86    0.77
  -5  -6  13    6.76    0.74
   5   6  13    6.32    0.80
  -5  -6  13    6.11    0.76
   6  -6  13    2.20    0.63
  -6   6  13    2.36    0.71
   6   6 -13    2.67    0.65
   6   6  13    2.22    0.62
  -6  -6  13    1.61    0.58
   0   7  13    0.67    0.40
   0  -7  13    0.43    0.37
   0   7  13    0.75    0.40
   1  -7  13   32.15    1.21
  -1   7  13   31.58    1.33
  -1  -7  13   30.24    1.19
   1   7  13   29.31    1.33
   1   7  13   28.04    1.15
  -2   7  13    6.58    0.75
   2  -7  13    7.14    0.71
   2   7  13    8.18    0.78
  -2  -7  13    8.76    0.75
  -2  -7  13    8.26    0.75
   3  -7  13    0.25    0.41
  -3   7  13    0.59    0.46
   3   7  13    0.67    0.46
  -3  -7  13    0.64    0.44
  -3  -7  13    0.65    0.40
   4  -7  13   15.84    1.00
  -4   7  13   16.09    1.11
  -4  -7  13   16.18    0.98
  -4  -7  13   15.76    0.98
   4   7  13   13.58    0.94
  -5   7  13   29.67    1.47
   5  -7  13   28.21    1.32
   5   7  13   26.87    1.37
  -5  -7  13   28.85    1.34
  -5  -7  13   27.08    1.27
  -6   7  13   -1.30    0.54
   6   7 -13   -0.21    0.46
   6   7  13    0.51    0.53
  -6  -7  13    0.08    0.52
   0   8  13    0.45    0.44
   0  -8  13    0.61    0.41
   1  -8  13    3.07    0.56
  -1   8  13    2.77    0.57
   1   8  13    2.07    0.52
  -1  -8  13    2.97    0.56
   2  -8  13    0.97    0.47
  -2   8  13    0.98    0.47
   2   8  13    0.41    0.42
   2   8  13    0.88    0.45
  -2  -8  13    1.36    0.45
  -3   8  13   33.89    1.48
   3  -8  13   36.28    1.41
   3   8  13   31.99    1.34
  -3  -8  13   32.17    1.33
   4  -8  13    0.68    0.45
  -4   8  13    0.75    0.53
  -4  -8  13    1.12    0.51
   4   8  13    0.63    0.50
   5  -8  13    5.01    0.75
  -5   8  13    5.47    0.85
   5   8  13    7.62    0.91
  -5  -8  13    5.85    0.79
  -5  -8  13    5.80    0.81
   0  -9  13   -0.30    0.34
   0   9  13    0.37    0.43
  -1   9  13    6.98    0.84
   1  -9  13    7.17    0.79
   1   9  13    7.13    0.86
  -1  -9  13    8.71    0.84
  -2   9  13    6.70    0.86
   2  -9  13    6.55    0.76
  -2  -9  13    7.38    0.81
   2   9  13    6.01    0.78
   3  -9  13    0.90    0.47
  -3   9  13    0.49    0.53
  -3  -9  13    1.10    0.52
   3   9  13    1.03    0.52
  -4   9  13    2.97    0.75
   4   9  13    3.59    0.68
   0  10  13    0.06    0.49
   0 -10  13   -0.17    0.41
  -1  10  13    0.22    0.49
   1 -10  13    0.74    0.49
   1  10  13    0.83    0.54
  -1 -10  13    2.10    0.55
  -2  10  13    0.25    0.51
   2  10  13    0.37    0.46
   0   0  14   29.82    1.13
  -1   0  14    1.56    0.45
   1   0  14    0.56    0.39
   2   0  14   39.69    1.31
  -2   0  14   36.34    1.28
   3   0  14    5.62    0.64
  -3   0  14    5.41    0.64
  -4   0  14   51.59    1.61
   4   0  14   46.56    1.56
  -5   0  14    0.90    0.46
   5   0  14    1.56    0.50
  -6   0  14    6.45    0.77
   6   0  14    7.21    0.79
  -7   0  14    3.92    0.71
   7   0  14    3.26    0.67
   0  -1  14    0.01    0.37
   0   1  14    0.43    0.38
  -1   1  14   47.76    1.45
   1  -1  14   50.52    1.49
   1   1  14   52.16    1.49
  -1  -1  14   49.65    1.51
  -2   1  14    5.06    0.62
  -2   1  14    5.46    0.52
   2  -1  14    4.59    0.58
   2   1  14    4.52    0.58
  -2  -1  14    5.84    0.66
   3  -1  14    8.51    0.74
  -3   1  14    8.79    0.76
  -3  -1  14    7.66    0.76
   3   1  14    7.85    0.74
  -4   1  14    3.80    0.58
   4  -1  14    3.17    0.54
  -4  -1  14    2.37    0.54
   4   1  14    3.11    0.58
   5  -1  14   14.93    0.91
  -5   1  14   14.78    0.93
  -5  -1  14   11.79    0.89
   5   1  14   14.84    1.00
  -6   1  14    3.34    0.60
   6  -1  14    3.47    0.65
   6   1  14    2.76    0.61
  -6  -1  14    3.79    0.63
   7  -1  14   30.48    1.41
  -7   1  14   27.54    1.34
  -7  -1  14   28.59    1.41
   7   1  14   29.45    1.41
   0  -2  14    6.94    0.67
   0   2  14    7.12    0.66
   1  -2  14    8.76    0.73
  -1   2  14    9.04    0.74
   1   2  14   10.72    0.77
  -1  -2  14   10.84    0.78
  -2   2  14    7.03    0.58
  -2   2  14    6.87    0.69
   2  -2  14    7.46    0.70
   2   2  14    6.27    0.69
  -2  -2  14    6.35    0.69
  -3   2  14    1.72    0.38
   3  -2  14    1.12    0.37
  -3   2  14    1.37    0.45
   3  -2  14    1.17    0.45
   3   2  14    1.45    0.45
  -3  -2  14    1.24    0.47
   4  -2  14   35.95    1.32
   4  -2  14   36.55    1.22
  -4   2  14   37.75    1.33
   4   2  14   36.93    1.38
  -4  -2  14   34.87    1.34
   5  -2  14    2.98    0.56
  -5   2  14    2.37    0.57
   5  -2  14    2.69    0.54
   5   2  14    2.53    0.55
  -5  -2  14    2.37    0.56
   6  -2  14   -0.05    0.42
  -6   2  14    0.27    0.41
   6  -2  14    0.88    0.49
  -6  -2  14   -0.11    0.42
   6   2  14   -0.16    0.41
  -7   2  14    8.49    0.90
   7  -2  14    6.71    0.85
   7  -2  14    8.24    0.91
  -7  -2  14    7.32    0.86
   7   2  14    9.08    0.98
   0  -3  14    0.04    0.26
   0  -3  14   -0.33    0.39
   0   3  14    0.17    0.37
   1  -3  14   48.78    1.44
   1  -3  14   51.23    1.27
  -1   3  14   53.11    1.53
  -1  -3  14   51.36    1.27
   1   3  14   52.74    1.56
  -1  -3  14   49.53    1.49
  -2   3  14   15.39    0.92
   2  -3  14   13.97    0.71
   2  -3  14   14.60    0.82
  -2   3  14   14.69    0.80
  -2  -3  14   15.15    0.70
  -2  -3  14   15.44    0.89
   2   3  14   13.72    0.86
  -3   3  14    1.19    0.47
  -3   3  14    1.26    0.38
   3  -3  14    0.84    0.40
   3  -3  14    0.80    0.37
  -3  -3  14    1.40    0.47
   3   3  14    1.52    0.46
   4  -3  14    2.00    0.49
   4  -3  14    2.42    0.48
  -4   3  14    2.64    0.56
  -4  -3  14    1.73    0.52
   4   3  14    2.47    0.54
   5  -3  14   28.31    1.20
   5  -3  14   27.93    1.21
  -5   3  14   28.54    1.23
  -5  -3  14   28.96    1.32
   5   3  14   26.01    1.25
   6  -3  14   11.35    0.96
  -6   3  14   11.42    0.94
  -6  -3  14   11.98    1.02
   6   3  14   10.42    1.01
  -7   3  14   19.58    1.17
   7  -3  14   17.74    1.16
  -7  -3  14   18.68    1.22
   7   3  14   19.17    1.22
   0   4  14    3.67    0.57
   0  -4  14    5.38    0.52
   0  -4  14    4.51    0.61
  -1   4  14   18.52    0.95
   1  -4  14   19.82    0.92
  -1   4  14   18.50    0.97
   1  -4  14   19.89    0.83
  -1  -4  14   19.08    0.99
   1   4  14   22.00    0.99
  -1  -4  14   21.02    0.82
  -2   4  14   17.29    0.94
  -2   4  14   15.27    0.86
   2  -4  14   15.79    0.80
   2  -4  14   17.77    0.93
   2   4  14   17.69    0.99
  -2  -4  14   16.81    0.78
  -2  -4  14   16.14    0.95
  -3   4  14    3.61    0.55
  -3   4  14    2.81    0.53
   3  -4  14    3.76    0.52
   3  -4  14    3.09    0.54
  -3  -4  14    3.29    0.60
  -3  -4  14    3.53    0.48
   3   4  14    2.50    0.55
  -4   4  14   31.46    1.21
   4  -4  14   31.49    1.23
  -4   4  14   34.01    1.29
  -4  -4  14   33.13    1.34
  -4  -4  14   33.65    1.21
   4   4  14   32.07    1.34
   5  -4  14    6.55    0.72
  -5   4  14    6.13    0.72
  -5  -4  14    6.15    0.79
   5   4  14    5.07    0.72
   6  -4  14    4.65    0.68
   6   4  14    4.91    0.75
  -6  -4  14    3.70    0.66
   7  -4  14    7.96    0.91
  -7  -4  14    7.44    0.90
   7   4  14    7.17    0.94
   0   5  14    0.04    0.38
   0  -5  14    0.09    0.31
   0  -5  14   -0.28    0.39
  -1   5  14   31.91    1.16
   1  -5  14   29.47    1.07
  -1   5  14   34.36    1.29
   1  -5  14   30.29    1.16
  -1  -5  14   30.21    1.05
  -1  -5  14   31.44    1.20
   1   5  14   31.15    1.19
   2  -5  14    3.65    0.53
  -2   5  14    4.49    0.59
  -2   5  14    5.26    0.65
   2   5  14    5.26    0.64
  -2  -5  14    4.49    0.61
  -2  -5  14    4.23    0.52
  -3   5  14    5.76    0.68
   3  -5  14    6.10    0.63
  -3   5  14    5.60    0.64
  -3  -5  14    5.59    0.67
  -3  -5  14    5.00    0.58
   3   5  14    6.22    0.71
  -4   5  14    4.98    0.63
  -4   5  14    4.25    0.61
   4  -5  14    4.65    0.63
  -4  -5  14    4.61    0.69
  -4  -5  14    4.18    0.58
   4   5  14    3.86    0.64
   5   5 -14   12.14    0.90
  -5   5  14   12.39    0.98
   5  -5  14   12.64    0.92
   5   5  14   11.99    1.04
  -5  -5  14   11.47    0.85
  -5  -5  14   11.91    1.00
   6  -5  14    1.09    0.53
  -6  -5  14    1.66    0.57
   6   5  14    1.22    0.56
   0   6  14   12.10    0.85
   0  -6  14   13.28    0.79
   0   6  14   13.78    0.91
   1  -6  14    0.62    0.37
  -1   6  14    0.15    0.39
  -1   6  14    0.28    0.39
   1   6  14    0.78    0.42
  -1  -6  14    1.00    0.47
  -1  -6  14    0.67    0.36
   2  -6  14   10.33    0.76
  -2   6  14    9.84    0.73
  -2   6  14   11.84    0.87
  -2  -6  14   10.70    0.79
  -2  -6  14    9.76    0.73
   2   6  14   11.23    0.82
  -3   6  14    2.15    0.55
   3  -6  14    1.65    0.45
   3   6  14    2.68    0.57
  -3  -6  14    1.57    0.42
  -3  -6  14    3.03    0.57
   4  -6  14   24.59    1.13
  -4   6  14   24.36    1.21
   4   6  14   23.19    1.24
  -4  -6  14   22.06    1.06
  -4  -6  14   25.42    1.24
   5  -6  14    0.27    0.46
  -5   6  14    0.77    0.49
   5   6  14    0.11    0.51
  -5  -6  14    0.45    0.51
  -5  -6  14    0.31    0.39
   6  -6  14    0.08    0.50
   6   6 -14    0.15    0.48
   6   6  14    0.02    0.53
  -6  -6  14    0.35    0.53
   0   7  14    0.10    0.37
   0  -7  14   -0.14    0.35
   0   7  14   -0.17    0.38
  -1   7  14   27.17    1.27
   1  -7  14   26.33    1.13
   1   7  14   27.51    1.17
   1   7  14   24.76    1.23
  -1  -7  14   26.34    1.12
  -2   7  14    4.08    0.65
   2  -7  14    4.95    0.63
  -2  -7  14    4.26    0.62
   2   7  14    5.13    0.69
  -3   7  14    2.40    0.57
   3  -7  14    2.65    0.53
  -3  -7  14    2.54    0.56
   3   7  14    1.62    0.52
  -3  -7  14    3.28    0.56
   4  -7  14    1.03    0.50
  -4   7  14    1.00    0.52
  -4  -7  14    0.56    0.44
  -4  -7  14    1.70    0.57
   4   7  14    0.86    0.50
  -5   7  14    6.54    0.86
   5  -7  14    6.31    0.79
   5   7  14    5.72    0.81
  -5  -7  14    7.13    0.84
  -5  -7  14    5.11    0.73
   0  -8  14    0.39    0.39
   0   8  14    0.78    0.48
   1  -8  14    4.97    0.65
  -1   8  14    4.89    0.73
  -1  -8  14    6.02    0.70
   1   8  14    4.69    0.71
   2  -8  14    4.66    0.66
  -2   8  14    5.45    0.77
  -2  -8  14    4.55    0.66
   2   8  14    5.58    0.71
   2   8  14    5.19    0.75
  -3   8  14    1.49    0.60
   3  -8  14    2.45    0.55
  -3  -8  14    3.03    0.59
   3   8  14    1.69    0.52
   4  -8  14   19.48    1.12
  -4   8  14   20.24    1.30
  -4  -8  14   22.70    1.20
   4   8  14   18.55    1.13
   0  -9  14    0.15    0.40
   0   9  14    0.12    0.43
  -1   9  14   16.95    1.13
   1  -9  14   16.53    1.01
   1   9  14   14.57    1.07
  -1  -9  14   16.48    1.03
  -2   9  14    2.32    0.63
   2  -9  14    1.84    0.52
  -2  -9  14    1.18    0.50
   2   9  14    2.61    0.64
   3  -9  14    1.33    0.53
  -3   9  14    0.06    0.55
  -3  -9  14    0.00    0.41
   3   9  14   -0.39    0.43
   0  10  14   -0.09    0.49
  -1  10  14    5.39    0.83
   1  10  14    5.74    0.82
   0   0  15    0.76    0.46
   1   0  15   25.08    1.08
  -1   0  15   25.31    1.11
  -2   0  15   29.37    1.18
   2   0  15   27.12    1.18
  -3   0  15   24.10    1.10
   3   0  15   24.50    1.10
  -4   0  15   17.19    1.00
   4   0  15   20.19    1.05
   5   0  15   16.37    1.00
  -5   0  15   15.94    1.00
   6   0  15    0.43    0.48
  -6   0  15    0.68    0.47
  -7   0  15   11.16    1.02
   7   0  15   11.96    1.08
   0  -1  15   46.56    1.46
   0   1  15   48.63    1.49
   1  -1  15    1.22    0.46
  -1   1  15    1.59    0.49
  -1  -1  15    0.43    0.46
   1   1  15    1.37    0.46
  -2   1  15   -0.40    0.37
   2  -1  15   -0.02    0.36
  -2   1  15    0.17    0.26
  -2  -1  15   -0.60    0.37
   2   1  15   -0.59    0.34
   3  -1  15    3.13    0.54
  -3   1  15    3.44    0.58
   3   1  15    2.89    0.55
  -3  -1  15    3.45    0.57
   4  -1  15    0.42    0.41
  -4   1  15    1.44    0.50
  -4  -1  15    0.53    0.46
   4   1  15    0.55    0.43
   5  -1  15   -0.52    0.38
  -5   1  15    0.41    0.49
   5   1  15   -0.30    0.43
  -5  -1  15    0.38    0.45
  -6   1  15   15.14    1.01
   6  -1  15   13.79    1.09
  -6  -1  15   14.00    1.03
   6   1  15   14.82    1.08
  -7   1  15    2.64    0.61
   7  -1  15    2.87    0.68
   7   1  15    2.94    0.74
  -7  -1  15    2.98    0.67
   0   2  15   -0.17    0.37
   0  -2  15   -0.22    0.38
   1  -2  15   29.24    1.20
  -1   2  15   29.01    1.16
  -1  -2  15   27.86    1.16
   1   2  15   30.57    1.22
  -2   2  15   35.29    1.19
  -2   2  15   33.73    1.31
   2  -2  15   35.96    1.28
  -2  -2  15   33.30    1.31
   2   2  15   35.27    1.32
  -3   2  15   31.51    1.23
   3  -2  15   31.73    1.25
  -3  -2  15   28.69    1.22
   3   2  15   30.33    1.26
   4  -2  15    2.59    0.57
  -4   2  15    2.77    0.55
   4   2  15    2.91    0.58
  -4  -2  15    2.61    0.57
   5  -2  15   11.52    0.95
  -5   2  15   10.63    0.90
  -5  -2  15    9.87    0.91
   5   2  15   11.26    0.99
  -6   2  15    3.26    0.63
   6  -2  15    3.16    0.63
   6   2  15    3.48    0.68
  -6  -2  15    3.56    0.65
  -7   2  15    8.24    0.88
   7  -2  15    8.17    0.89
  -7  -2  15    7.13    0.89
   7   2  15    7.78    0.94
   0   3  15   31.07    1.23
   0  -3  15   31.65    1.25
   1  -3  15    2.69    0.54
  -1   3  15    2.23    0.53
  -1  -3  15    1.91    0.51
   1   3  15    2.50    0.52
  -2   3  15    3.40    0.55
  -2   3  15    3.58    0.51
   2  -3  15    3.63    0.55
   2   3  15    3.62    0.57
  -2  -3  15    3.04    0.56
   3  -3  15    9.29    0.77
  -3   3  15    9.65    0.76
  -3   3  15    8.18    0.76
   3   3  15    9.75    0.87
  -3  -3  15    9.81    0.88
   4  -3  15    3.57    0.58
  -4   3  15    4.84    0.67
  -4  -3  15    2.95    0.63
   4   3  15    3.70    0.62
  -5   3  15    2.40    0.54
   5  -3  15    1.81    0.54
  -5  -3  15    1.64    0.57
   5   3  15    1.66    0.55
  -6   3  15    9.49    0.90
  -6  -3  15    8.89    0.93
   6   3  15    9.82    0.99
  -7   3  15    4.30    0.70
  -7  -3  15    3.58    0.72
   7   3  15    3.39    0.78
   0  -4  15   -0.04    0.39
   0   4  15    0.13    0.40
   0  -4  15   -0.27    0.26
   1  -4  15   15.54    0.92
  -1   4  15   14.84    0.93
   1  -4  15   15.42    0.77
  -1   4  15   14.71    0.92
  -1  -4  15   14.90    0.90
  -1  -4  15   15.42    0.74
   1   4  15   16.00    0.92
  -2   4  15    5.74    0.63
   2  -4  15    4.61    0.62
   2  -4  15    5.42    0.56
  -2   4  15    5.05    0.65
  -2  -4  15    5.77    0.70
   2   4  15    6.19    0.72
   3  -4  15   27.80    1.08
  -3   4  15   25.86    1.13
   3  -4  15   26.90    1.15
  -3   4  15   25.61    1.15
  -3  -4  15   25.06    1.17
   3   4  15   26.94    1.22
  -4   4  15    1.43    0.49
  -4   4  15    1.36    0.50
   4  -4  15    1.73    0.49
  -4  -4  15    1.82    0.55
   4   4  15    0.72    0.46
   5  -4  15   14.35    0.93
  -5   4  15   14.49    0.95
   5   4  15   11.58    1.03
  -5  -4  15   14.04    1.03
   6  -4  15    1.36    0.54
  -6  -4  15    0.72    0.53
   6   4  15    1.38    0.61
   0  -5  15   27.60    1.16
   0   5  15   23.87    1.07
   0  -5  15   24.73    0.99
  -1   5  15    3.28    0.56
  -1   5  15    2.02    0.48
   1  -5  15    2.31    0.44
   1  -5  15    3.19    0.57
  -1  -5  15    2.64    0.45
  -1  -5  15    1.95    0.53
   1   5  15    2.55    0.54
  -2   5  15    0.57    0.43
  -2   5  15   -0.62    0.34
   2  -5  15    0.01    0.34
  -2  -5  15    0.01    0.31
  -2  -5  15    0.30    0.45
   2   5  15    0.48    0.41
  -3   5  15    2.06    0.51
   3  -5  15    1.69    0.47
  -3   5  15    1.10    0.46
   3   5  15    2.64    0.60
  -3  -5  15    1.68    0.53
  -3  -5  15    1.90    0.43
  -4   5  15    0.37    0.45
   4  -5  15    0.13    0.40
  -4   5  15    0.45    0.44
  -4  -5  15    0.33    0.50
   4   5  15    1.87    0.58
  -4  -5  15    1.23    0.44
   5  -5  15    0.22    0.42
   5   5  15   -0.18    0.49
  -5  -5  15    0.61    0.51
   6  -5  15   10.79    0.97
  -6  -5  15   10.93    1.04
   6   5  15   12.73    1.15
   0  -6  15   -0.12    0.32
   0   6  15    0.59    0.40
   0   6  15    0.32    0.39
  -1   6  15   21.54    1.17
  -1   6  15   23.40    1.08
   1  -6  15   22.70    0.99
   1   6  15   21.37    1.09
  -1  -6  15   22.28    0.99
  -1  -6  15   23.35    1.10
  -2   6  15   43.72    1.58
  -2   6  15   42.32    1.43
   2  -6  15   43.37    1.41
  -2  -6  15   43.58    1.40
   2   6  15   44.63    1.54
  -2  -6  15   44.88    1.50
   3  -6  15   12.67    0.83
  -3   6  15   12.76    0.99
   3   6  15   12.14    0.91
  -3  -6  15   12.00    0.81
  -3  -6  15   12.03    0.89
   4  -6  15    9.33    0.83
  -4   6  15    9.61    0.93
  -4  -6  15    8.55    0.80
   4   6  15    8.40    0.89
  -4  -6  15    9.82    0.92
  -5   6  15    7.93    0.91
   5  -6  15    7.89    0.84
  -5  -6  15    8.48    0.83
   5   6  15    7.21    0.89
  -5  -6  15    7.54    0.88
   0   7  15   25.41    1.15
   0   7  15   25.06    1.27
   0  -7  15   24.15    1.10
  -1   7  15    0.02    0.41
   1  -7  15    1.59    0.46
   1   7  15    0.73    0.46
   1   7  15    1.12    0.46
  -1  -7  15    0.62    0.39
  -2   7  15    0.51    0.44
   2  -7  15   -0.29    0.36
  -2  -7  15   -0.13    0.37
   2   7  15   -0.58    0.40
  -3   7  15    1.30    0.54
   3  -7  15    1.58    0.50
  -3  -7  15    1.74    0.49
  -3  -7  15    1.13    0.50
   3   7  15    1.61    0.53
   4  -7  15    0.88    0.49
  -4   7  15    0.22    0.52
  -4  -7  15    0.41    0.47
   4   7  15    0.57    0.48
  -4  -7  15    0.33    0.45
  -5   7  15   -0.30    0.54
   5  -7  15    0.68    0.53
  -5  -7  15    0.75    0.54
  -5  -7  15    0.77    0.51
   5   7  15    0.19    0.54
   0  -8  15    0.12    0.39
   0   8  15   -0.23    0.39
  -1   8  15    7.52    0.86
   1  -8  15    6.95    0.76
  -1  -8  15    7.70    0.77
   1   8  15    8.32    0.89
  -2   8  15    5.67    0.82
   2  -8  15    6.58    0.74
   2   8  15    6.47    0.84
   2   8  15    6.93    0.80
  -2  -8  15    8.70    0.84
   3  -8  15   14.51    0.97
  -3   8  15   12.26    1.12
   3   8  15   13.07    1.07
  -3  -8  15   14.69    0.98
  -4   8  15    2.37    0.68
   4  -8  15    2.29    0.60
   4   8  15    2.34    0.64
  -4  -8  15    1.47    0.52
   0   9  15    9.55    1.01
   0  -9  15   12.73    0.91
  -1   9  15    0.70    0.53
   1  -9  15    1.52    0.55
   1   9  15    1.18    0.54
  -1  -9  15    0.36    0.45
  -2   9  15   -0.54    0.44
   2  -9  15   -0.35    0.40
  -2  -9  15    0.19    0.46
   2   9  15    0.75    0.48
   0   0  16    1.50    0.47
  -1   0  16   27.17    1.21
   1   0  16   27.03    1.15
  -2   0  16    3.82    0.60
   2   0  16    3.71    0.59
  -3   0  16    1.53    0.52
   3   0  16    1.37    0.49
   4   0  16   10.84    0.95
  -4   0  16    7.66    0.80
  -5   0  16   37.08    1.50
   5   0  16   35.46    1.49
   6   0  16    0.05    0.50
  -6   0  16   -0.45    0.44
  -7   0  16    0.75    0.55
   7   0  16    0.65    0.59
   0  -1  16   -0.06    0.40
   0   1  16   -0.61    0.39
  -1   1  16    5.62    0.67
   1  -1  16    7.00    0.71
  -1  -1  16    7.39    0.77
   1   1  16    6.00    0.69
   2  -1  16    2.78    0.55
  -2   1  16    2.64    0.58
   2   1  16    3.52    0.61
  -2  -1  16    2.31    0.55
  -3   1  16   94.48    2.33
   3  -1  16   91.39    2.31
  -3  -1  16   94.46    2.34
   3   1  16   98.76    2.39
  -4   1  16    1.80    0.53
   4  -1  16    0.40    0.48
   4   1  16    1.81    0.57
  -4  -1  16    1.26    0.50
  -5   1  16    6.01    0.75
   5  -1  16    6.00    0.78
  -5  -1  16    4.96    0.74
   5   1  16    6.13    0.78
   6  -1  16    0.37    0.53
  -6   1  16    1.05    0.54
   6   1  16    0.74    0.53
  -6  -1  16    1.56    0.55
  -7   1  16   -0.09    0.46
   7  -1  16    1.17    0.61
   7   1  16   -0.17    0.53
  -7  -1  16    0.53    0.57
   0   2  16    1.66    0.49
   0  -2  16    3.46    0.59
  -1   2  16    0.96    0.47
   1  -2  16    1.81    0.51
   1   2  16    1.88    0.50
  -1  -2  16    2.10    0.56
  -2   2  16    4.53    0.55
   2  -2  16    4.97    0.65
  -2   2  16    5.06    0.68
   2   2  16    4.23    0.62
  -2  -2  16    5.60    0.72
   3  -2  16    0.33    0.44
  -3   2  16    0.05    0.43
  -3  -2  16   -0.03    0.45
   3   2  16    0.21    0.42
  -4   2  16    2.65    0.58
   4  -2  16    2.72    0.59
  -4  -2  16    3.02    0.62
   4   2  16    1.68    0.56
   5  -2  16   11.63    0.96
  -5   2  16   10.65    0.95
   5   2  16   10.69    0.97
  -5  -2  16   11.54    1.01
   6  -2  16    0.08    0.53
  -6   2  16    0.64    0.49
   6   2  16    0.42    0.56
  -6  -2  16    0.38    0.49
   0  -3  16    0.64    0.45
   0   3  16   -0.26    0.41
   1  -3  16    3.88    0.63
  -1   3  16    3.93    0.63
  -1  -3  16    4.27    0.63
   1   3  16    2.90    0.56
  -2   3  16   20.71    0.97
  -2   3  16   20.77    1.05
   2  -3  16   20.07    1.01
  -2  -3  16   19.67    1.10
   2   3  16   22.63    1.10
  -3   3  16   76.63    1.97
  -3   3  16   75.94    2.03
   3  -3  16   80.51    2.04
  -3  -3  16   76.88    2.12
   3   3  16   76.83    2.15
   4  -3  16   11.42    0.95
  -4   3  16   12.13    0.98
  -4  -3  16   10.99    0.96
   4   3  16   11.50    1.01
  -5   3  16   18.73    1.10
   5  -3  16   19.93    1.13
   5   3  16   17.19    1.10
  -5  -3  16   19.45    1.14
  -6   3  16    0.47    0.50
  -6  -3  16    0.51    0.51
   6   3  16    1.06    0.56
   0   4  16    2.97    0.56
   0  -4  16    3.19    0.58
  -1   4  16    2.35    0.48
  -1   4  16    2.11    0.52
   1  -4  16    3.10    0.55
  -1  -4  16    2.13    0.55
   1   4  16    1.65    0.49
  -2   4  16    9.28    0.81
   2  -4  16    8.96    0.79
  -2   4  16    8.23    0.79
   2   4  16    7.92    0.79
  -2  -4  16    8.27    0.83
  -3   4  16    0.34    0.44
  -3   4  16    0.20    0.38
   3  -4  16    0.13    0.46
   3   4  16   -0.28    0.40
  -3  -4  16    0.57    0.47
  -4   4  16    4.52    0.65
   4   4  16    4.32    0.69
  -4  -4  16    5.89    0.78
  -5   4  16   19.57    1.11
  -5  -4  16   18.51    1.18
   5   4  16   18.92    1.16
  -6  -4  16    0.76    0.56
   6   4  16    1.14    0.58
   0  -5  16   -0.04    0.44
   0   5  16   -0.20    0.38
   1  -5  16    3.83    0.52
  -1   5  16    3.61    0.62
   1  -5  16    4.80    0.67
  -1   5  16    4.07    0.64
  -1  -5  16    3.68    0.63
   1   5  16    3.88    0.64
  -2   5  16    2.00    0.51
   2  -5  16    2.21    0.44
  -2   5  16    2.22    0.55
   2   5  16    2.89    0.62
  -2  -5  16    2.89    0.61
   3  -5  16   64.75    1.83
  -3   5  16   68.44    1.99
  -3   5  16   71.48    1.91
   3   5  16   65.61    2.01
  -3  -5  16   68.34    1.99
  -4   5  16    2.20    0.56
   4  -5  16    1.61    0.47
  -4   5  16    1.99    0.56
  -4  -5  16    2.35    0.61
   4   5  16    1.52    0.57
   5  -5  16    5.33    0.74
   5   5  16    4.53    0.76
  -5  -5  16    5.49    0.79
   0   6  16    0.46    0.41
   0   6  16   -0.11    0.43
   0  -6  16    0.67    0.39
   1  -6  16   17.48    0.93
  -1   6  16   17.89    1.03
  -1   6  16   16.71    1.10
   1   6  16   16.03    1.03
  -1  -6  16   16.64    1.02
  -1  -6  16   16.02    0.89
  -2   6  16    2.24    0.53
  -2   6  16    1.87    0.56
   2  -6  16    1.96    0.46
   2   6  16    1.50    0.51
  -2  -6  16    2.80    0.50
  -2  -6  16    2.13    0.57
   3  -6  16   -0.10    0.35
  -3   6  16    0.18    0.45
  -3  -6  16    0.08    0.48
   3   6  16   -0.43    0.42
   4  -6  16    3.07    0.59
  -4   6  16    1.79    0.58
  -4  -6  16    3.50    0.69
   4   6  16    3.39    0.67
   5   6  16   13.12    1.17
  -5  -6  16   11.94    1.09
   0  -7  16   -0.30    0.32
   0   7  16    0.03    0.43
   0   7  16   -0.63    0.41
   1  -7  16    2.67    0.54
  -1   7  16    1.31    0.52
   1   7  16    1.55    0.53
   1   7  16    1.79    0.56
  -1  -7  16    2.28    0.51
   2  -7  16    2.54    0.52
  -2   7  16    1.65    0.55
  -2  -7  16    2.03    0.50
   2   7  16    2.15    0.56
  -3   7  16   46.52    1.76
   3  -7  16   45.38    1.60
   3   7  16   44.49    1.67
  -3  -7  16   47.15    1.70
  -3  -7  16   46.96    1.60
   4  -7  16    0.09    0.41
  -4   7  16   -0.07    0.52
   4   7  16    0.28    0.54
  -4  -7  16   -0.17    0.38
  -4  -7  16    0.25    0.52
   0  -8  16    1.01    0.45
   0   8  16    0.13    0.45
  -1   8  16    3.40    0.69
   1  -8  16    4.15    0.65
  -1  -8  16    3.62    0.59
   1   8  16    3.16    0.67
   2  -8  16    4.23    0.66
  -2   8  16    5.69    0.83
   2   8  16    3.37    0.66
  -2  -8  16    4.54    0.67
   2   8  16    3.53    0.66
   3  -8  16    0.41    0.47
  -3   8  16   -0.58    0.51
  -3  -8  16    0.53    0.48
   3   8  16   -0.89    0.40
   0  -9  16    0.66    0.49
   0   9  16    0.35    0.47
  -1   9  16    1.90    0.65
   1  -9  16    1.73    0.52
  -1  -9  16    2.23    0.59
   1   9  16    1.53    0.59
   0   0  17    0.11    0.45
  -1   0  17   54.75    1.69
   1   0  17   53.64    1.69
   2   0  17   13.43    0.93
  -2   0  17   16.64    1.00
   3   0  17    0.21    0.43
  -3   0  17    0.40    0.46
   4   0  17    5.11    0.75
  -4   0  17    6.18    0.78
  -5   0  17   23.18    1.27
   5   0  17   21.62    1.21
   6   0  17    3.79    0.75
  -6   0  17    3.23    0.69
   0  -1  17    5.71    0.74
   0   1  17    5.55    0.69
  -1   1  17   24.26    1.14
   1  -1  17   23.42    1.12
  -1  -1  17   25.76    1.18
   1   1  17   21.96    1.10
   2  -1  17    5.63    0.71
  -2   1  17    5.41    0.70
  -2  -1  17    5.27    0.73
   2   1  17    4.74    0.67
  -3   1  17    0.92    0.52
   3  -1  17    1.12    0.48
   3   1  17    0.86    0.48
  -3  -1  17    0.49    0.49
  -4   1  17    5.44    0.76
   4  -1  17    5.79    0.75
  -4  -1  17    6.10    0.77
   4   1  17    6.94    0.81
   5  -1  17    0.66    0.55
  -5   1  17    0.64    0.51
   5   1  17    1.08    0.52
  -5  -1  17    1.41    0.59
  -6   1  17    1.33    0.58
   6  -1  17    0.60    0.58
  -6  -1  17    0.31    0.54
   6   1  17    0.18    0.57
   0   2  17    0.03    0.41
   0  -2  17    0.00    0.46
   1  -2  17   71.22    1.95
  -1   2  17   73.47    1.97
   1   2  17   71.46    1.99
  -1  -2  17   69.75    1.98
   2  -2  17   17.95    1.00
  -2   2  17   16.18    1.04
  -2  -2  17   17.44    1.08
   2   2  17   17.35    1.06
  -3   2  17    1.01    0.50
   3  -2  17   -0.66    0.39
  -3  -2  17    0.83    0.54
   3   2  17    0.47    0.44
  -4   2  17    7.35    0.83
   4  -2  17    6.71    0.78
   4   2  17    8.00    0.87
  -4  -2  17    6.43    0.80
  -5   2  17    9.35    0.92
   5  -2  17    7.97    0.86
   5   2  17    9.27    0.98
  -5  -2  17    7.95    0.89
  -6   2  17    5.09    0.77
   6  -2  17    6.54    0.87
  -6  -2  17    4.83    0.81
   6   2  17    3.60    0.73
   0  -3  17    3.81    0.63
   0   3  17    4.39    0.68
   1  -3  17   23.29    1.12
  -1   3  17   24.72    1.19
  -1  -3  17   22.33    1.13
   1   3  17   23.06    1.17
  -2   3  17    5.20    0.72
  -2   3  17    5.33    0.63
   2  -3  17    4.27    0.67
  -2  -3  17    5.59    0.76
   2   3  17    5.47    0.72
   3  -3  17    4.45    0.66
  -3   3  17    4.34    0.69
   3   3  17    5.07    0.74
  -3  -3  17    3.53    0.66
  -4   3  17    6.39    0.75
   4  -3  17    7.36    0.80
   4   3  17    7.84    0.87
  -4  -3  17    7.63    0.86
  -5   3  17    3.98    0.69
   5  -3  17    4.08    0.72
   5   3  17    3.45    0.70
  -5  -3  17    2.61    0.67
  -6   3  17    2.29    0.65
   6   3  17    3.13    0.74
  -6  -3  17    3.40    0.71
   0  -4  17   -0.17    0.44
   0   4  17   -0.55    0.38
  -1   4  17   29.54    1.29
   1  -4  17   27.81    1.20
  -1   4  17   27.05    1.20
  -1  -4  17   27.35    1.24
   1   4  17   26.09    1.22
  -2   4  17   20.89    1.11
  -2   4  17   19.68    1.07
   2  -4  17   22.90    1.16
   2   4  17   20.76    1.12
  -2  -4  17   19.17    1.08
   3  -4  17    4.72    0.67
  -3   4  17    4.19    0.63
  -3   4  17    4.73    0.71
  -3  -4  17    4.31    0.70
   3   4  17    4.62    0.70
  -4   4  17    8.34    0.86
  -4  -4  17    8.00    0.89
   4   4  17    7.90    0.91
  -5   4  17   13.66    1.02
   5   4  17   11.60    1.11
  -5  -4  17   11.24    1.04
   0   5  17    5.71    0.75
   0  -5  17    6.44    0.78
   1  -5  17   16.97    1.01
  -1   5  17   18.93    1.07
  -1   5  17   18.87    1.09
  -1  -5  17   18.09    1.04
   1   5  17   17.53    1.08
  -2   5  17    4.60    0.69
  -2   5  17    3.60    0.61
   2   5  17    4.06    0.68
  -2  -5  17    3.74    0.70
  -3   5  17    1.02    0.52
  -3   5  17    1.03    0.47
  -3  -5  17    0.40    0.53
   3   5  17    0.38    0.51
  -4   5  17    4.86    0.69
   4   5  17    3.54    0.70
  -4  -5  17    5.52    0.82
  -5  -5  17    1.93    0.66
   5   5  17    1.22    0.59
   0   6  17    0.27    0.48
   0   6  17    0.47    0.45
  -1   6  17   51.11    1.65
  -1   6  17   51.62    1.84
  -1  -6  17   51.45    1.67
   1   6  17   50.36    1.73
  -2   6  17    8.54    0.89
  -2   6  17    8.50    0.85
   2   6  17    8.73    0.90
  -2  -6  17    9.70    0.92
  -3   6  17    0.14    0.44
  -3  -6  17    0.39    0.52
   3   6  17    1.04    0.55
  -4   6  17    3.61    0.71
   4   6  17    4.00    0.78
  -4  -6  17    3.32    0.69
   0   7  17    0.85    0.53
   0  -7  17    2.42    0.53
   0   7  17    1.66    0.56
  -1   7  17   10.68    1.03
   1  -7  17    9.89    0.86
   1   7  17    9.40    0.95
   1   7  17   10.88    0.98
   2  -7  17    2.46    0.55
  -2   7  17    1.54    0.60
   2   7  17    1.44    0.61
  -3   7  17    1.84    0.64
   3  -7  17    1.81    0.52
   3   7  17    1.38    0.57
  -3  -7  17    0.76    0.53
   0   8  17   -0.30    0.41
   0  -8  17   -0.49    0.39
  -1   8  17   19.15    1.23
   1  -8  17   20.35    1.12
  -1  -8  17   18.39    1.07
   1   8  17   17.69    1.22
   2  -8  17    6.36    0.78
  -2   8  17    5.08    0.81
  -2  -8  17    5.98    0.74
   2   8  17    5.15    0.80
   2   8  17    5.65    0.80
   0   0  18   79.83    2.15
   1   0  18    0.88    0.51
  -1   0  18    1.65    0.54
   2   0  18    7.64    0.82
  -2   0  18    7.33    0.81
   3   0  18    2.01    0.60
  -3   0  18    1.20    0.55
  -4   0  18    5.74    0.77
   4   0  18    5.23    0.78
  -5   0  18    2.30    0.61
   5   0  18    1.51    0.61
   6   0  18   11.99    1.12
  -6   0  18   12.17    1.10
   0   1  18   -0.24    0.42
   0  -1  18    0.50    0.45
  -1   1  18   36.95    1.44
   1  -1  18   37.76    1.44
  -1  -1  18   42.08    1.52
   1   1  18   39.51    1.47
   2  -1  18   27.78    1.26
  -2   1  18   29.07    1.32
   2   1  18   29.93    1.32
  -2  -1  18   28.33    1.29
  -3   1  18    0.93    0.52
   3  -1  18    1.35    0.53
   3   1  18    1.03    0.55
  -3  -1  18    3.02    0.64
  -4   1  18    6.54    0.83
   4  -1  18    7.84    0.86
   4   1  18    5.30    0.79
  -4  -1  18    7.59    0.88
   5  -1  18   14.85    1.17
  -5   1  18   13.24    1.10
   5   1  18   11.47    1.09
  -5  -1  18   12.19    1.08
  -6   1  18   -0.19    0.49
   6  -1  18    0.15    0.58
   6   1  18   -0.04    0.54
  -6  -1  18    0.51    0.58
   0   2  18   34.14    1.38
   0  -2  18   36.30    1.42
  -1   2  18    3.94    0.66
   1  -2  18    3.18    0.65
  -1  -2  18    4.39    0.72
   1   2  18    4.21    0.66
   2  -2  18   -0.04    0.49
  -2   2  18   -0.22    0.48
  -2  -2  18   -0.02    0.48
   2   2  18    0.48    0.47
   3  -2  18    1.67    0.55
  -3   2  18    1.61    0.58
  -3  -2  18    1.53    0.59
   3   2  18    1.41    0.57
  -4   2  18    7.22    0.85
   4  -2  18    6.71    0.83
  -4  -2  18    7.81    0.90
   4   2  18    7.07    0.86
  -5   2  18    0.86    0.53
   5  -2  18    0.68    0.57
   5   2  18    1.40    0.61
  -5  -2  18    1.34    0.57
   0  -3  18   -0.39    0.44
   0   3  18   -0.57    0.44
   1  -3  18   22.11    1.13
  -1   3  18   20.17    1.09
   1   3  18   23.02    1.21
  -1  -3  18   20.12    1.12
  -2   3  18   11.90    0.99
   2  -3  18   10.15    0.92
  -2   3  18   11.80    0.88
  -2  -3  18   10.02    0.93
   2   3  18   13.99    1.08
  -3   3  18    8.92    0.87
   3  -3  18   10.09    0.93
  -3  -3  18   10.63    0.98
   3   3  18    9.50    0.92
   4  -3  18   -0.78    0.45
  -4   3  18    1.04    0.52
  -4  -3  18    0.08    0.49
   4   3  18   -0.02    0.47
  -5   3  18   11.23    1.00
  -5  -3  18    9.89    1.03
   5   3  18    9.86    1.03
   0   4  18   24.00    1.21
   0  -4  18   24.55    1.20
  -1   4  18    2.22    0.60
   1  -4  18    2.38    0.64
  -1   4  18    2.85    0.56
   1   4  18    3.11    0.63
  -1  -4  18    3.23    0.66
   2  -4  18    0.50    0.48
  -2   4  18   -0.22    0.49
  -2   4  18   -0.01    0.40
  -2  -4  18    0.95    0.53
   2   4  18    0.56    0.50
   3  -4  18    2.23    0.64
  -3   4  18    2.33    0.61
   3   4  18    2.17    0.62
  -3  -4  18    4.12    0.74
  -4   4  18    6.71    0.84
   4   4  18    8.46    0.96
  -4  -4  18    4.92    0.82
  -5   4  18    0.68    0.54
  -5  -4  18    0.55    0.56
   5   4  18    0.21    0.54
   0  -5  18   -0.36    0.48
   0   5  18   -0.44    0.47
  -1   5  18   27.84    1.34
   1  -5  18   30.44    1.35
  -1   5  18   25.36    1.24
   1   5  18   27.72    1.30
  -1  -5  18   30.30    1.36
  -2   5  18   18.58    1.15
  -2   5  18   22.33    1.18
   2   5  18   22.23    1.25
  -2  -5  18   19.83    1.14
  -3   5  18    2.39    0.59
  -3   5  18    3.37    0.65
   3   5  18    2.47    0.68
  -3  -5  18    1.62    0.60
  -4   5  18    4.71    0.74
  -4  -5  18    4.31    0.79
   4   5  18    3.52    0.75
   0   6  18   40.70    1.64
   0   6  18   41.34    1.58
  -1   6  18    1.74    0.60
  -1   6  18    1.87    0.59
  -1  -6  18    2.37    0.63
   1   6  18    0.68    0.57
  -2   6  18    2.96    0.63
  -2   6  18    2.40    0.65
   2   6  18    2.78    0.68
  -2  -6  18    2.89    0.66
  -3   6  18   -0.01    0.49
  -3  -6  18    0.30    0.51
   3   6  18   -0.40    0.50
  -4  -6  18    3.26    0.76
   4   6  18    3.30    0.77
   0   7  18   -0.16    0.50
   0   7  18    0.19    0.45
  -1   7  18   16.69    1.15
   1   7  18   15.46    1.12
   1   7  18   16.38    1.17
  -2   7  18   17.38    1.23
   2   7  18   16.28    1.15
   0   0  19   -0.28    0.48
   1   0  19    2.47    0.62
  -1   0  19    3.79    0.71
  -2   0  19    0.89    0.55
   2   0  19    0.20    0.46
   3   0  19   41.77    1.66
  -3   0  19   43.53    1.66
  -4   0  19    0.90    0.55
   4   0  19    1.03    0.57
  -5   0  19    8.11    0.93
   5   0  19    8.33    0.97
   0   1  19   -0.08    0.48
   0  -1  19    0.44    0.51
   1  -1  19   16.65    1.04
  -1   1  19   16.89    1.05
  -1  -1  19   15.15    1.03
   1   1  19   12.57    1.02
   2  -1  19   -0.24    0.48
  -2   1  19   -0.50    0.47
   2   1  19    0.06    0.46
  -2  -1  19    0.26    0.51
  -3   1  19   -0.08    0.51
   3  -1  19   -0.22    0.47
   3   1  19   -0.68    0.44
  -3  -1  19    0.14    0.48
   4  -1  19    0.16    0.54
  -4   1  19    1.27    0.61
  -4  -1  19    0.31    0.52
   4   1  19   -0.58    0.51
   5  -1  19   15.46    1.13
  -5   1  19   14.26    1.07
  -5  -1  19   13.22    1.13
   5   1  19   15.34    1.25
   0   2  19    0.24    0.50
   0  -2  19    0.05    0.47
   1  -2  19    4.56    0.70
  -1   2  19    4.90    0.73
  -1  -2  19    5.13    0.75
   1   2  19    3.92    0.67
   2  -2  19    1.99    0.60
  -2   2  19    1.93    0.60
  -2  -2  19    2.16    0.61
   2   2  19    1.27    0.55
   3  -2  19   46.22    1.70
  -3   2  19   46.81    1.68
  -3  -2  19   43.94    1.70
   3   2  19   46.18    1.73
   4  -2  19    0.17    0.51
  -4   2  19    1.13    0.59
  -4  -2  19    0.94    0.56
   4   2  19    1.60    0.64
   5  -2  19    7.35    0.95
  -5   2  19    6.12    0.88
  -5  -2  19    6.71    0.92
   5   2  19    7.04    0.92
   0   3  19   -1.34    0.44
   0  -3  19   -0.31    0.53
   1  -3  19    8.21    0.90
  -1   3  19    7.06    0.82
  -1  -3  19    7.73    0.86
   1   3  19    7.40    0.84
   2  -3  19    0.46    0.55
  -2   3  19    0.15    0.48
   2   3  19    0.17    0.48
  -2  -3  19   -0.57    0.46
   3  -3  19   -0.25    0.51
  -3   3  19   -0.11    0.51
  -3  -3  19   -0.04    0.52
   3   3  19    0.63    0.53
  -4   3  19    1.59    0.61
   4  -3  19    1.75    0.64
  -4  -3  19    1.78    0.62
   4   3  19    2.03    0.67
   0  -4  19   -0.57    0.51
   0   4  19   -0.49    0.45
   1  -4  19    0.35    0.56
  -1   4  19    1.26    0.54
  -1   4  19    0.79    0.44
   1   4  19    0.64    0.56
  -1  -4  19    0.62    0.57
  -2   4  19    0.18    0.48
  -2   4  19    0.39    0.44
   2  -4  19    0.19    0.54
  -2  -4  19    0.11    0.55
   2   4  19    0.42    0.52
   3  -4  19   57.39    1.88
  -3   4  19   55.18    1.83
  -3  -4  19   55.55    1.91
   3   4  19   50.54    1.90
  -4   4  19    0.63    0.58
   4   4  19    0.36    0.59
  -4  -4  19    0.18    0.54
   0   5  19   -0.75    0.47
   0  -5  19    0.07    0.54
   1  -5  19   15.10    1.05
  -1   5  19   14.41    1.03
  -1   5  19   14.90    1.07
   1   5  19   14.57    1.05
  -1  -5  19   13.88    1.10
  -2   5  19   -0.04    0.48
  -2   5  19    0.43    0.49
  -2  -5  19   -0.82    0.47
   2   5  19   -0.57    0.47
  -3   5  19   -0.16    0.47
  -3  -5  19   -0.40    0.55
   3   5  19   -0.21    0.53
   0   6  19    0.01    0.53
   0   6  19    0.59    0.50
  -1   6  19    3.80    0.73
  -1   6  19    4.85    0.76
  -1  -6  19    5.22    0.80
   1   6  19    3.51    0.69
  -2   6  19    0.81    0.58
  -2   6  19    0.15    0.53
   2   6  19    1.13    0.58
  -2  -6  19    1.06    0.63
  -3   6  19   26.28    1.42
   3   6  19   26.95    1.47
  -3  -6  19   24.67    1.39
   0   7  19   -0.61    0.50
   0   7  19   -0.67    0.45
  -1   7  19    6.61    0.87
   1   7  19    6.83    0.88
   1   7  19    8.15    0.95
   0   0  20    7.75    0.86
  -1   0  20   12.18    1.06
   1   0  20   10.44    0.97
   2   0  20   -0.08    0.52
  -2   0  20   -0.02    0.49
   3   0  20   -0.43    0.49
  -3   0  20   -0.14    0.49
   4   0  20    0.50    0.61
  -4   0  20    0.44    0.55
   0  -1  20    0.48    0.52
   0   1  20   -0.68    0.43
   1  -1  20   30.09    1.44
  -1   1  20   32.64    1.43
  -1  -1  20   29.60    1.43
   1   1  20   28.82    1.42
  -2   1  20    8.61    0.91
   2  -1  20    7.77    0.89
   2   1  20    8.52    0.92
  -2  -1  20    7.50    0.87
  -3   1  20   -0.45    0.52
   3  -1  20   -0.96    0.45
   3   1  20   -0.19    0.50
  -3  -1  20    0.53    0.53
  -4   1  20    1.23    0.63
   4  -1  20    0.83    0.57
   4   1  20    2.41    0.68
  -4  -1  20    0.92    0.62
   0  -2  20   11.97    1.05
   0   2  20   14.48    1.13
  -1   2  20    2.81    0.65
   1  -2  20    2.68    0.66
   1   2  20    2.74    0.68
  -1  -2  20    2.37    0.68
  -2   2  20    2.75    0.68
   2  -2  20    2.10    0.62
  -2  -2  20    2.36    0.67
   2   2  20    2.34    0.66
   3  -2  20    1.16    0.63
  -3   2  20    2.00    0.62
   3   2  20    1.49    0.63
  -3  -2  20    1.82    0.64
   4  -2  20    2.43    0.68
  -4   2  20    3.24    0.71
  -4  -2  20    2.19    0.67
   4   2  20    2.52    0.72
   0   3  20   -0.82    0.48
   0  -3  20   -0.84    0.45
  -1   3  20   14.92    1.04
  -1   3  20   12.18    1.07
   1  -3  20   12.95    1.07
   1   3  20   12.20    1.08
  -1  -3  20   13.36    1.10
   2  -3  20    7.00    0.89
  -2   3  20    6.53    0.83
  -2  -3  20    6.19    0.83
   2   3  20    7.35    0.88
  -3   3  20    8.58    0.96
   3  -3  20    7.40    0.92
   3   3  20    8.64    0.99
  -3  -3  20    7.37    0.92
   4  -3  20    2.55    0.72
  -4   3  20    2.99    0.73
   4   3  20    1.85    0.70
  -4  -3  20    3.66    0.78
   0  -4  20   11.46    1.02
   0   4  20   10.34    0.98
  -1   4  20    2.90    0.63
  -1   4  20    2.41    0.64
   1  -4  20    1.87    0.64
  -1  -4  20    3.21    0.73
   1   4  20    3.44    0.70
  -2   4  20   -0.15    0.50
   2  -4  20    0.95    0.62
   2   4  20   -0.31    0.55
  -2  -4  20    0.90    0.58
  -3   4  20    3.25    0.70
  -3  -4  20    3.55    0.76
   3   4  20    2.10    0.69
   0   5  20   -0.46    0.52
   0  -5  20   -0.39    0.55
   0   5  20    0.01    0.47
   1  -5  20   23.64    1.33
  -1   5  20   24.45    1.29
  -1   5  20   23.77    1.32
  -1  -5  20   22.15    1.31
   1   5  20   19.24    1.26
  -2   5  20    7.03    0.84
  -2   5  20    7.25    0.91
   2   5  20    7.18    0.92
  -2  -5  20    8.15    0.96
   0   6  20    5.59    0.82
   0   6  20    5.12    0.80
  -1   6  20    4.27    0.75
  -1   6  20    5.88    0.84
  -1  -6  20    7.13    0.89
   1   6  20    5.21    0.80
   0   0  21   -0.58    0.53
  -1   0  21   24.77    1.31
   1   0  21   23.14    1.28
   2   0  21   11.10    1.06
  -2   0  21   12.36    1.13
  -3   0  21    1.01    0.60
   3   0  21    0.00    0.56
   0   1  21   11.27    1.03
   0  -1  21   12.74    1.11
  -1   1  21    0.76    0.57
   1  -1  21    1.43    0.64
   1   1  21    0.71    0.56
  -1  -1  21    0.95    0.59
   2  -1  21    2.78    0.73
  -2   1  21    5.17    0.85
   2   1  21    2.94    0.74
  -2  -1  21    2.28    0.68
  -3   1  21    0.59    0.60
   3  -1  21    0.80    0.61
   3   1  21    1.48    0.67
  -3  -1  21    1.19    0.63
   0   2  21   -0.49    0.51
   0  -2  21   -0.17    0.58
  -1   2  21   13.99    1.17
   1  -2  21   13.45    1.14
  -1  -2  21   13.23    1.14
   1   2  21   12.50    1.10
  -2   2  21    4.25    0.78
   2  -2  21    4.66    0.83
   2   2  21    4.14    0.77
  -2  -2  21    4.50    0.83
  -3   2  21    4.71    0.80
   3  -2  21    5.81    0.88
  -3  -2  21    4.44    0.84
   3   2  21    4.48    0.83
   0  -3  21    5.52    0.82
   0   3  21    4.50    0.82
   1  -3  21    2.34    0.74
  -1   3  21    2.90    0.73
   1   3  21    2.29    0.67
  -1  -3  21    2.34    0.72
  -2   3  21    1.09    0.64
   2  -3  21    1.13    0.65
  -2  -3  21    1.12    0.65
   2   3  21    0.76    0.57
  -3   3  21    0.41    0.55
   3  -3  21    0.23    0.61
  -3  -3  21    1.41    0.64
   3   3  21    0.88    0.65
   0   4  21   -0.90    0.49
   0  -4  21    0.77    0.67
   1  -4  21   14.04    1.17
  -1   4  21   17.71    1.17
  -1   4  21   13.92    1.18
  -1  -4  21   14.62    1.19
   1   4  21   12.78    1.13
   2  -4  21   16.26    1.15
  -2   4  21   11.91    1.12
   2   4  21   17.87    1.27
  -2  -4  21   15.92    1.26
   0   5  21   11.52    1.07
   0   5  21    9.52    1.03
   0  -5  21    9.37    1.04
   0   0  22    1.84    0.67
  -1   0  22    3.81    0.80
   1   0  22    2.50    0.76
  -2   0  22   -0.72    0.52
   2   0  22    0.62    0.65
   0   1  22    0.86    0.58
   0  -1  22   -0.73    0.52
   1  -1  22    4.45    0.84
  -1   1  22    3.01    0.74
   1   1  22    3.59    0.77
  -1  -1  22    3.48    0.75
   2  -1  22    1.85    0.67
  -2   1  22    2.27    0.70
   2   1  22    1.07    0.64
  -2  -1  22    0.64    0.66
   0   2  22   -0.87    0.49
   0  -2  22    0.04    0.63
  -1   2  22    6.58    0.90
   1  -2  22    8.46    1.01
   1   2  22    7.83    0.99
  -1  -2  22    9.77    1.08
   2  -2  22    2.09    0.77
  -2   2  22    1.17    0.64
  -2  -2  22    0.56    0.62
   2   2  22    0.89    0.66
   0  -3  22    0.27    0.60
   0   3  22   -0.17    0.58
  -1   3  22    1.81    0.68
   1  -3  22    0.34    0.63
   1   3  22    1.94    0.73
  -1  -3  22    1.98    0.69
   0   0   0    0.00    0.00
;
_shelx_hkl_checksum              62662
loop_
_space_group_symop_operation_xyz
'x, y, z'
'-x+1/2, -y, z+1/2'
'x+1/2, -y+1/2, -z+1/2'
'-x, y+1/2, -z'
'-x, -y, -z'
'x-1/2, y, -z-1/2'
'-x-1/2, y-1/2, z-1/2'
'x, -y-1/2, z'
loop_
_atom_site_label
_atom_site_type_symbol
_atom_site_fract_x
_atom_site_fract_y
_atom_site_fract_z
_atom_site_U_iso_or_equiv
_atom_site_adp_type
_atom_site_occupancy
_atom_site_site_symmetry_order
_atom_site_calc_flag
_atom_site_refinement_flags_posn
_atom_site_refinement_flags_adp
_atom_site_refinement_flags_occupancy
Zn1 Zn 0.01091(11) 0.2500 0.73721(5) 0.0156(3) Uani 1 2 d S T P
Zn2 Zn -0.15178(12) 0.7500 0.91918(5) 0.0191(3) Uani 1 2 d S T P
N3 N -0.1598(9) 0.2500 0.6420(4) 0.0236(14) Uani 1 2 d S T P
N4 N 0.1796(6) 0.0982(5) 0.6909(3) 0.0212(10) Uani 1 1 d . . .
N6 N -0.2106(10) 0.7500 1.0293(4) 0.0223(14) Uani 1 2 d S T P
N5 N -0.2051(6) 0.5830(5) 0.8614(3) 0.0221(10) Uani 1 1 d . . .
N1 N -0.1458(6) 0.4051(5) 0.7902(3) 0.0225(10) Uani 1 1 d . . .
N2 N 0.1617(8) 0.2500 0.8454(4) 0.0234(14) Uani 1 2 d S T P
C3 C -0.3634(12) 0.7500 1.0669(5) 0.0277(18) Uani 1 2 d S T P
C2 C -0.3499(8) 0.5097(6) 0.8511(3) 0.0265(12) Uani 1 1 d . . .
C1 C -0.0829(8) 0.5146(6) 0.8228(4) 0.0279(13) Uani 1 1 d . . .
C4 C 0.0905(11) 0.2500 0.9150(4) 0.0271(18) Uani 1 2 d S T P
N9 N 0.2475(13) 0.6603(15) 0.8977(17) 0.50(8) Uani 0.5 1 d G U P
C5 C 0.3844(13) 0.7287(14) 0.9179(7) 0.022(4) Uani 0.5 1 d G U P
N8 N 0.3307(18) 0.841(2) 0.947(2) 0.41(5) Uani 0.5 1 d G U P
C6 C 0.1607(19) 0.842(2) 0.945(2) 0.166(18) Uani 0.5 1 d G U P
N7 N 0.1111(15) 0.7213(11) 0.9135(11) 0.062(5) Uani 0.5 1 d G U P
loop_
_atom_site_aniso_label
_atom_site_aniso_U_11
_atom_site_aniso_U_22
_atom_site_aniso_U_33
_atom_site_aniso_U_23
_atom_site_aniso_U_13
_atom_site_aniso_U_12
Zn1 0.0117(4) 0.0187(5) 0.0165(5) 0.000 0.0002(3) 0.000
Zn2 0.0273(5) 0.0160(5) 0.0140(4) 0.000 0.0004(3) 0.000
N3 0.019(3) 0.034(4) 0.018(3) 0.000 0.000(2) 0.000
N4 0.014(2) 0.025(2) 0.024(2) -0.0055(19) -0.0008(17) 0.0007(18)
N6 0.024(3) 0.029(4) 0.014(3) 0.000 0.000(3) 0.000
N5 0.024(2) 0.022(2) 0.020(2) -0.0053(18) 0.0009(18) -0.0030(19)
N1 0.014(2) 0.025(2) 0.028(2) -0.006(2) 0.0022(17) -0.0004(18)
N2 0.013(3) 0.042(4) 0.015(3) 0.000 0.002(2) 0.000
C3 0.025(4) 0.044(5) 0.014(3) 0.000 -0.002(3) 0.000
C2 0.023(3) 0.026(3) 0.030(3) -0.008(2) 0.004(2) 0.001(2)
C1 0.023(3) 0.024(3) 0.037(3) -0.011(2) 0.002(2) -0.006(2)
C4 0.018(4) 0.047(5) 0.017(4) 0.000 0.002(3) 0.000
N9 0.50(8) 0.50(8) 0.50(8) -0.001(10) -0.001(10) 0.001(10)
C5 0.007(3) 0.016(10) 0.044(5) -0.004(4) -0.004(3) 0.006(4)
N8 0.41(5) 0.41(5) 0.41(5) 0.011(10) -0.002(10) 0.000(10)
C6 0.17(2) 0.18(2) 0.16(2) 0.033(10) 0.002(10) -0.012(10)
N7 0.020(5) 0.023(11) 0.145(15) -0.007(7) -0.003(7) -0.003(4)
loop_
_atom_type_symbol
_atom_type_description
_atom_type_scat_dispersion_real
_atom_type_scat_dispersion_imag
_atom_type_scat_source
C C 0.0033 0.0016 'International Tables Vol C Tables 4.2.6.8 and 6.1.1.4'
H H 0.0000 0.0000 'International Tables Vol C Tables 4.2.6.8 and 6.1.1.4'
N N 0.0061 0.0033 'International Tables Vol C Tables 4.2.6.8 and 6.1.1.4'
Zn Zn 0.2839 1.4301 'International Tables Vol C Tables 4.2.6.8 and 6.1.1.4'
O O 0.0106 0.0060 'International Tables Vol C Tables 4.2.6.8 and 6.1.1.4'
loop_
_geom_angle_atom_site_label_1
_geom_angle_atom_site_label_2
_geom_angle_atom_site_label_3
_geom_angle
_geom_angle_site_symmetry_1
_geom_angle_site_symmetry_3
N3 Zn1 N4 94.02(18) . 8_565
N3 Zn1 N4 94.02(18) . .
N4 Zn1 N4 89.9(3) 8_565 .
N3 Zn1 N1 89.95(18) . 8_565
N4 Zn1 N1 175.98(18) 8_565 8_565
N4 Zn1 N1 89.25(18) . 8_565
N3 Zn1 N1 89.95(18) . .
N4 Zn1 N1 89.25(18) 8_565 .
N4 Zn1 N1 175.98(18) . .
N1 Zn1 N1 91.4(3) 8_565 .
N3 Zn1 N2 173.3(3) . .
N4 Zn1 N2 90.75(17) 8_565 .
N4 Zn1 N2 90.74(17) . .
N1 Zn1 N2 85.35(17) 8_565 .
N1 Zn1 N2 85.35(17) . .
N6 Zn2 N5 116.64(16) . .
N6 Zn2 N5 116.64(16) . 8_575
N5 Zn2 N5 113.7(3) . 8_575
N6 Zn2 N7 105.8(6) . .
N5 Zn2 N7 93.3(4) . .
N5 Zn2 N7 107.2(4) 8_575 .
N6 Zn2 N7 105.8(6) . 8_575
N5 Zn2 N7 107.2(4) . 8_575
N5 Zn2 N7 93.3(4) 8_575 8_575
N7 Zn2 N7 16.3(6) . 8_575
N6 Zn2 C6 92.2(8) . 8_575
N5 Zn2 C6 88.8(3) . 8_575
N5 Zn2 C6 124.8(7) 8_575 8_575
N7 Zn2 C6 18.1(7) . 8_575
N7 Zn2 C6 31.8(8) 8_575 8_575
N6 Zn2 C6 92.2(9) . .
N5 Zn2 C6 124.8(4) . .
N5 Zn2 C6 88.8(8) 8_575 .
N7 Zn2 C6 31.8(4) . .
N7 Zn2 C6 18.1(5) 8_575 .
C6 Zn2 C6 41.4(9) 8_575 .
C3 N3 N2 106.8(7) 2_464 6_557
C3 N3 Zn1 134.4(6) 2_464 .
N2 N3 Zn1 118.7(5) 6_557 .
C2 N4 N1 106.2(5) 3_556 3_556
C2 N4 Zn1 133.1(4) 3_556 .
N1 N4 Zn1 120.5(3) 3_556 .
C3 N6 C4 103.7(6) . 5_567
C3 N6 Zn2 132.6(6) . .
C4 N6 Zn2 123.8(6) 5_567 .
C2 N5 C1 103.1(5) . .
C2 N5 Zn2 134.1(4) . .
C1 N5 Zn2 122.8(4) . .
C1 N1 N4 105.5(5) . 3_456
C1 N1 Zn1 125.2(4) . .
N4 N1 Zn1 128.4(4) 3_456 .
C4 N2 N3 104.8(6) . 6_657
C4 N2 Zn1 124.8(5) . .
N3 N2 Zn1 130.4(5) 6_657 .
N3 C3 N6 111.9(7) 2_465 .
N4 C2 N5 112.4(5) 3_456 .
N1 C1 N5 112.8(5) . .
N2 C4 N6 112.9(7) . 5_567
C6 N9 N8 75.02(6) 8_575 8_575
C6 N9 N7 46.2(17) 8_575 .
N8 N9 N7 108.8(13) 8_575 .
C6 N9 C5 107.5(13) 8_575 .
N8 N9 C5 46.3(19) 8_575 .
N7 N9 C5 110.8 . .
C6 N9 C5 104.7(18) 8_575 8_575
N8 N9 C5 55(2) 8_575 8_575
N7 N9 C5 99.3(7) . 8_575
C5 N9 C5 13.4(8) . 8_575
C6 N9 N7 58(2) 8_575 8_575
N8 N9 N7 104.6(19) 8_575 8_575
N7 N9 N7 18.2(5) . 8_575
C5 N9 N7 94.9(5) . 8_575
C5 N9 N7 82.5(9) 8_575 8_575
C6 N9 N9 91.0(12) 8_575 8_575
N8 N9 N9 90.6(13) 8_575 8_575
N7 N9 N9 60.5(8) . 8_575
C5 N9 N9 58.2(8) . 8_575
C5 N9 N9 44.8(8) 8_575 8_575
N7 N9 N9 42.3(8) 8_575 8_575
C5 C5 N8 136.7(19) 8_575 8_575
C5 C5 N8 30.3 8_575 .
N8 C5 N8 106.5(19) 8_575 .
C5 C5 N9 121.8 8_575 .
N8 C5 N9 54.3(4) 8_575 .
N8 C5 N9 108.0 . .
C5 C5 N9 44.8(13) 8_575 8_575
N8 C5 N9 110.6(9) 8_575 8_575
N8 C5 N9 43(2) . 8_575
N9 C5 N9 77.0(12) . 8_575
C5 C5 C6 111.7(13) 8_575 8_575
N8 C5 C6 38.2(5) 8_575 8_575
N8 C5 C6 86.5(12) . 8_575
N9 C5 C6 32.0(5) . 8_575
N9 C5 C6 73.7(8) 8_575 8_575
C5 N8 N9 79(3) 8_575 8_575
C5 N8 C5 13.0(12) 8_575 .
N9 N8 C5 82(2) 8_575 .
C5 N8 C6 114.7(6) 8_575 .
N9 N8 C6 52(2) 8_575 .
C5 N8 C6 108.0 . .
C5 N8 N8 43.3(12) 8_575 8_575
N9 N8 N8 89.4(16) 8_575 8_575
C5 N8 N8 30.3 . 8_575
C6 N8 N8 90.4 . 8_575
C5 N8 N7 88.6(8) 8_575 8_575
N9 N8 N7 38.5(13) 8_575 8_575
C5 N8 N7 82.7(6) . 8_575
C6 N8 N7 26.1(5) . 8_575
N8 N8 N7 70.7(7) 8_575 8_575
N7 C6 N9 77(2) 8_575 8_575
N7 C6 N8 115.2(5) 8_575 .
N9 C6 N8 53(2) 8_575 .
N7 C6 N7 17.7(10) 8_575 .
N9 C6 N7 81(2) 8_575 .
N8 C6 N7 106.3 . .
N7 C6 C6 46.7(10) 8_575 8_575
N9 C6 C6 89.0(16) 8_575 8_575
N8 C6 C6 89.6 . 8_575
N7 C6 C6 29.0 . 8_575
N7 C6 C5 88.2(8) 8_575 8_575
N9 C6 C5 40.5(12) 8_575 8_575
N8 C6 C5 27.1(6) . 8_575
N7 C6 C5 79.9(7) . 8_575
C6 C6 C5 68.3(8) 8_575 8_575
N7 C6 Zn2 43.5(6) 8_575 .
N9 C6 Zn2 116(3) 8_575 .
N8 C6 Zn2 157.2(6) . .
N7 C6 Zn2 50.9(6) . .
C6 C6 Zn2 69.3(6) 8_575 .
C5 C6 Zn2 130.6(8) 8_575 .
N7 N7 C6 133(2) 8_575 8_575
N7 N7 N9 119.5 8_575 .
C6 N7 N9 56.5(4) 8_575 .
N7 N7 C6 29.0 8_575 .
C6 N7 C6 104(2) 8_575 .
N9 N7 C6 106.8 . .
N7 N7 N9 42.3(13) 8_575 8_575
C6 N7 N9 110.0(9) 8_575 8_575
N9 N7 N9 77.2(13) . 8_575
C6 N7 N9 41(2) . 8_575
N7 N7 N8 109.3(13) 8_575 8_575
C6 N7 N8 38.6(5) 8_575 8_575
N9 N7 N8 32.7(6) . 8_575
C6 N7 N8 85.3(13) . 8_575
N9 N7 N8 73.7(8) 8_575 8_575
N7 N7 Zn2 81.9(7) 8_575 .
C6 N7 Zn2 118.4(12) 8_575 .
N9 N7 Zn2 155.8(8) . .
C6 N7 Zn2 97.4(8) . .
N9 N7 Zn2 123.1(8) 8_575 .
N8 N7 Zn2 155.8(11) 8_575 .
loop_
_geom_bond_atom_site_label_1
_geom_bond_atom_site_label_2
_geom_bond_distance
_geom_bond_site_symmetry_2
Zn1 N3 2.114(7) .
Zn1 N4 2.145(5) 8_565
Zn1 N4 2.145(5) .
Zn1 N1 2.164(5) 8_565
Zn1 N1 2.164(5) .
Zn1 N2 2.215(7) .
Zn2 N6 1.979(6) .
Zn2 N5 1.991(5) .
Zn2 N5 1.991(5) 8_575
Zn2 N7 2.024(12) .
Zn2 N7 2.024(13) 8_575
Zn2 C6 2.588(19) 8_575
Zn2 C6 2.588(15) .
N3 C3 1.327(10) 2_464
N3 N2 1.377(9) 6_557
N4 C2 1.325(7) 3_556
N4 N1 1.370(6) 3_556
N6 C3 1.336(11) .
N6 C4 1.337(11) 5_567
N5 C2 1.335(8) .
N5 C1 1.338(8) .
N1 C1 1.323(7) .
N1 N4 1.370(6) 3_456
N2 C4 1.332(10) .
N2 N3 1.377(9) 6_657
C3 N3 1.326(10) 2_465
C2 N4 1.325(7) 3_456
C4 N6 1.337(11) 5_567
N9 C6 1.057(8) 8_575
N9 N8 1.070(8) 8_575
N9 N7 1.235(9) .
N9 C5 1.295(10) .
N9 C5 1.56(2) 8_575
N9 N7 1.598(17) 8_575
N9 N9 1.79(3) 8_575
C5 C5 0.42(3) 8_575
C5 N8 0.95(3) 8_575
C5 N8 1.295(10) .
C5 N9 1.56(2) 8_575
C5 C6 1.901(18) 8_575
N8 C5 0.95(2) 8_575
N8 N9 1.07(5) 8_575
N8 C6 1.295(10) .
N8 N8 1.81(4) 8_575
N8 N7 1.877(18) 8_575
C6 N7 0.914(19) 8_575
C6 N9 1.06(6) 8_575
C6 N7 1.373(10) .
C6 C6 1.83(4) 8_575
C6 C5 1.90(2) 8_575
N7 N7 0.57(2) 8_575
N7 C6 0.91(3) 8_575
N7 N9 1.598(17) 8_575
N7 N8 1.877(17) 8_575
loop_
_geom_torsion_atom_site_label_1
_geom_torsion_atom_site_label_2
_geom_torsion_atom_site_label_3
_geom_torsion_atom_site_label_4
_geom_torsion
_geom_torsion_site_symmetry_1
_geom_torsion_site_symmetry_4
C4 N6 C3 N3 0.000(5) 5_567 2_465
Zn2 N6 C3 N3 180.000(4) . 2_465
C1 N5 C2 N4 0.4(7) . 3_456
Zn2 N5 C2 N4 -177.9(4) . 3_456
N4 N1 C1 N5 -0.2(7) 3_456 .
Zn1 N1 C1 N5 -170.1(4) . .
C2 N5 C1 N1 -0.1(7) . .
Zn2 N5 C1 N1 178.4(4) . .
N3 N2 C4 N6 0.000(4) 6_657 5_567
Zn1 N2 C4 N6 180.000(3) . 5_567
C6 N9 C5 C5 -80(2) 8_575 8_575
N8 N9 C5 C5 -128(2) 8_575 8_575
N7 N9 C5 C5 -31.0 . 8_575
N7 N9 C5 C5 -21.9(3) 8_575 8_575
N9 N9 C5 C5 0(2) 8_575 8_575
C6 N9 C5 N8 47.5(11) 8_575 8_575
N7 N9 C5 N8 97(2) . 8_575
C5 N9 C5 N8 128(2) 8_575 8_575
N7 N9 C5 N8 106(2) 8_575 8_575
N9 N9 C5 N8 127.5(15) 8_575 8_575
C6 N9 C5 N8 -50(2) 8_575 .
N8 N9 C5 N8 -98(2) 8_575 .
N7 N9 C5 N8 -1.1 . .
C5 N9 C5 N8 29.9 8_575 .
N7 N9 C5 N8 7.9(3) 8_575 .
N9 N9 C5 N8 30(2) 8_575 .
C6 N9 C5 N9 -80.0(11) 8_575 8_575
N8 N9 C5 N9 -127.5(15) 8_575 8_575
N7 N9 C5 N9 -31(2) . 8_575
C5 N9 C5 N9 0(2) 8_575 8_575
N7 N9 C5 N9 -22(2) 8_575 8_575
N8 N9 C5 C6 -47.5(11) 8_575 8_575
N7 N9 C5 C6 49(2) . 8_575
C5 N9 C5 C6 80(2) 8_575 8_575
N7 N9 C5 C6 58(2) 8_575 8_575
N9 N9 C5 C6 80.0(11) 8_575 8_575
N8 C5 N8 C5 179.99(7) 8_575 8_575
N9 C5 N8 C5 -122.9 . 8_575
N9 C5 N8 C5 -77.3(15) 8_575 8_575
C6 C5 N8 C5 -147.0(4) 8_575 8_575
C5 C5 N8 N9 77.3(14) 8_575 8_575
N8 C5 N8 N9 -102.7(15) 8_575 8_575
N9 C5 N8 N9 -45.7(15) . 8_575
C6 C5 N8 N9 -69.7(11) 8_575 8_575
C5 C5 N8 C6 122.9 8_575 .
N8 C5 N8 C6 -57.1 8_575 .
N9 C5 N8 C6 0.0 . .
N9 C5 N8 C6 45.7(15) 8_575 .
C6 C5 N8 C6 -24.1(4) 8_575 .
C5 C5 N8 N8 -180.0 8_575 8_575
N9 C5 N8 N8 57.1 . 8_575
N9 C5 N8 N8 102.7(15) 8_575 8_575
C6 C5 N8 N8 33.0(4) 8_575 8_575
C5 C5 N8 N7 116.2(3) 8_575 8_575
N8 C5 N8 N7 -63.8(3) 8_575 8_575
N9 C5 N8 N7 -6.8(3) . 8_575
N9 C5 N8 N7 38.9(14) 8_575 8_575
C6 C5 N8 N7 -30.8(4) 8_575 8_575
C5 N8 C6 N7 -3.4(15) 8_575 8_575
N9 N8 C6 N7 48.6(18) 8_575 8_575
C5 N8 C6 N7 -15.4(10) . 8_575
N8 N8 C6 N7 -40.4(10) 8_575 8_575
C5 N8 C6 N9 -52.0(17) 8_575 8_575
C5 N8 C6 N9 -64(2) . 8_575
N8 N8 C6 N9 -89(2) 8_575 8_575
N7 N8 C6 N9 -48.6(18) 8_575 8_575
C5 N8 C6 N7 13.0(12) 8_575 .
N9 N8 C6 N7 65(2) 8_575 .
C5 N8 C6 N7 1.0 . .
N8 N8 C6 N7 -24.0 8_575 .
N7 N8 C6 N7 16.4(10) 8_575 .
C5 N8 C6 C6 37.0(12) 8_575 8_575
N9 N8 C6 C6 89(2) 8_575 8_575
C5 N8 C6 C6 25.0 . 8_575
N8 N8 C6 C6 0.0 8_575 8_575
N7 N8 C6 C6 40.4(10) 8_575 8_575
N9 N8 C6 C5 52.0(17) 8_575 8_575
C5 N8 C6 C5 -12.0(12) . 8_575
N8 N8 C6 C5 -37.0(12) 8_575 8_575
N7 N8 C6 C5 3.4(15) 8_575 8_575
C5 N8 C6 Zn2 15(2) 8_575 .
N9 N8 C6 Zn2 67(3) 8_575 .
C5 N8 C6 Zn2 3(2) . .
N8 N8 C6 Zn2 -22(2) 8_575 .
N7 N8 C6 Zn2 18(2) 8_575 .
C6 N9 N7 N7 125(2) 8_575 8_575
N8 N9 N7 N7 80(2) 8_575 8_575
C5 N9 N7 N7 30.2 . 8_575
C5 N9 N7 N7 23.3(4) 8_575 8_575
N9 N9 N7 N7 0(2) 8_575 8_575
N8 N9 N7 C6 -45.2(12) 8_575 8_575
C5 N9 N7 C6 -95(2) . 8_575
C5 N9 N7 C6 -101(2) 8_575 8_575
N7 N9 N7 C6 -125(2) 8_575 8_575
N9 N9 N7 C6 -124.8(12) 8_575 8_575
C6 N9 N7 C6 96(2) 8_575 .
N8 N9 N7 C6 51(2) 8_575 .
C5 N9 N7 C6 1.7 . .
C5 N9 N7 C6 -5.2(4) 8_575 .
N7 N9 N7 C6 -28.5 8_575 .
N9 N9 N7 C6 -28(2) 8_575 .
C6 N9 N7 N9 124.8(12) 8_575 8_575
N8 N9 N7 N9 79.6(13) 8_575 8_575
C5 N9 N7 N9 30(2) . 8_575
C5 N9 N7 N9 23(2) 8_575 8_575
N7 N9 N7 N9 0(2) 8_575 8_575
C6 N9 N7 N8 45.2(12) 8_575 8_575
C5 N9 N7 N8 -49(2) . 8_575
C5 N9 N7 N8 -56(2) 8_575 8_575
N7 N9 N7 N8 -80(2) 8_575 8_575
N9 N9 N7 N8 -79.6(12) 8_575 8_575
C6 N9 N7 Zn2 -85(4) 8_575 .
N8 N9 N7 Zn2 -131(3) 8_575 .
C5 N9 N7 Zn2 180(2) . .
C5 N9 N7 Zn2 173(2) 8_575 .
N7 N9 N7 Zn2 150(2) 8_575 .
N9 N9 N7 Zn2 150(3) 8_575 .
N9 C6 N7 N7 -75.8(15) 8_575 8_575
N8 C6 N7 N7 -122.9 . 8_575
C6 C6 N7 N7 180.0 8_575 8_575
C5 C6 N7 N7 -116.9(4) 8_575 8_575
Zn2 C6 N7 N7 58.1(10) . 8_575
N7 C6 N7 C6 180.00(8) 8_575 8_575
N9 C6 N7 C6 104.2(15) 8_575 8_575
N8 C6 N7 C6 57.1 . 8_575
C5 C6 N7 C6 63.1(4) 8_575 8_575
Zn2 C6 N7 C6 -121.9(10) . 8_575
N7 C6 N7 N9 121.2 8_575 .
N9 C6 N7 N9 45.4(15) 8_575 .
N8 C6 N7 N9 -1.7 . .
C6 C6 N7 N9 -58.8 8_575 .
C5 C6 N7 N9 4.3(4) 8_575 .
Zn2 C6 N7 N9 179.3(10) . .
N7 C6 N7 N9 75.8(16) 8_575 8_575
N8 C6 N7 N9 -47.1(15) . 8_575
C6 C6 N7 N9 -104.2(15) 8_575 8_575
C5 C6 N7 N9 -41.1(14) 8_575 8_575
Zn2 C6 N7 N9 133.9(18) . 8_575
N7 C6 N7 N8 146.1(4) 8_575 8_575
N9 C6 N7 N8 70.3(12) 8_575 8_575
N8 C6 N7 N8 23.2(4) . 8_575
C6 C6 N7 N8 -33.9(4) 8_575 8_575
C5 C6 N7 N8 29.2(4) 8_575 8_575
Zn2 C6 N7 N8 -155.8(10) . 8_575
N7 C6 N7 Zn2 -58.1(10) 8_575 .
N9 C6 N7 Zn2 -133.9(18) 8_575 .
N8 C6 N7 Zn2 179.1(10) . .
C6 C6 N7 Zn2 121.9(10) 8_575 .
C5 C6 N7 Zn2 -175.0(10) 8_575 .
