#------------------------------------------------------------------------------
#$Date: 2019-11-17 05:05:20 +0200 (Sun, 17 Nov 2019) $
#$Revision: 228024 $
#$URL: file:///home/coder/svn-repositories/cod/cif/7/12/24/7122473.cif $
#------------------------------------------------------------------------------
#
# This file is available in the Crystallography Open Database (COD),
# http://www.crystallography.net/
#
# All data on this site have been placed in the public domain by the
# contributors.
#
data_7122473
loop_
_publ_author_name
'Chen, Cheng-Xia'
'Qiu, Qian-Feng'
'Pan, Mei'
'Cao, Chen-Chen'
'Zhu, Neng-Xiu'
'Wang, Hai-Ping'
'Jiang, Ji-Jun'
'Wei, Zhang-Wen'
'Su, Cheng-Yong'
_publ_section_title
;
 Tunability of fluorescent metal-organic frameworks through dynamic spacer
 installation with multivariate fluorophores.
;
_journal_issue                   97
_journal_name_full
'Chemical communications (Cambridge, England)'
_journal_page_first              13666
_journal_page_last               13669
_journal_paper_doi               10.1039/c8cc07441k
_journal_volume                  54
_journal_year                    2018
_chemical_formula_moiety         'C80 H32 F24 O34 Zr6'
_chemical_formula_sum            'C80 H32 F24 O34 Zr6'
_chemical_formula_weight         2540.37
_chemical_name_common            LIFM-51
_space_group_crystal_system      tetragonal
_space_group_IT_number           131
_space_group_name_Hall           '-P 4c 2'
_space_group_name_H-M_alt        'P 42/m m c'
_symmetry_space_group_name_Hall  '-P 4c 2'
_symmetry_space_group_name_H-M   'P 42/m m c'
_atom_sites_solution_hydrogens   mixed
_audit_creation_method           SHELXL-2014/7
_audit_update_record
;
2018-07-30 deposited with the CCDC.
2018-10-16 downloaded from the CCDC.
;
_cell_angle_alpha                90
_cell_angle_beta                 90
_cell_angle_gamma                90
_cell_formula_units_Z            2
_cell_length_a                   24.3839(2)
_cell_length_b                   24.3839(2)
_cell_length_c                   14.8719(5)
_cell_measurement_reflns_used    6076
_cell_measurement_temperature    150(2)
_cell_measurement_theta_max      65.1790
_cell_measurement_theta_min      4.0430
_cell_volume                     8842.5(3)
_computing_structure_refinement  'SHELXL-2014/7 (Sheldrick, 2014)'
_computing_structure_solution    'SHELXL-2014/7 (Sheldrick, 2014)'
_diffrn_ambient_temperature      150(2)
_diffrn_detector                 'CCD plate'
_diffrn_detector_area_resol_mean 10.6525
_diffrn_detector_type            Atlas
_diffrn_measured_fraction_theta_full 0.983
_diffrn_measured_fraction_theta_max 0.983
_diffrn_measurement_device       'four-circle diffractometer'
_diffrn_measurement_device_type  'SuperNova, Dual, Cu at zero, Atlas'
_diffrn_measurement_method       '\w scans'
_diffrn_radiation_monochromator  mirror
_diffrn_radiation_type           CuK\a
_diffrn_radiation_wavelength     1.54178
_diffrn_reflns_av_R_equivalents  0.0572
_diffrn_reflns_av_unetI/netI     0.0387
_diffrn_reflns_Laue_measured_fraction_full 0.983
_diffrn_reflns_Laue_measured_fraction_max 0.983
_diffrn_reflns_limit_h_max       27
_diffrn_reflns_limit_h_min       -28
_diffrn_reflns_limit_k_max       27
_diffrn_reflns_limit_k_min       -25
_diffrn_reflns_limit_l_max       17
_diffrn_reflns_limit_l_min       -11
_diffrn_reflns_number            16635
_diffrn_reflns_point_group_measured_fraction_full 0.983
_diffrn_reflns_point_group_measured_fraction_max 0.983
_diffrn_reflns_theta_full        65.254
_diffrn_reflns_theta_max         65.254
_diffrn_reflns_theta_min         3.481
_diffrn_source                   'micro-focus sealed X-ray tube'
_diffrn_source_type              'SuperNova (Cu) X-ray Source'
_exptl_absorpt_coefficient_mu    3.422
_exptl_absorpt_correction_T_max  1.00000
_exptl_absorpt_correction_T_min  0.67656
_exptl_absorpt_correction_type   multi-scan
_exptl_absorpt_process_details
;
CrysAlisPro 1.171.38.43 (Rigaku Oxford Diffraction, 2015)
Empirical absorption correction using spherical harmonics,
 implemented in SCALE3 ABSPACK scaling algorithm.
;
_exptl_crystal_colour            'Pale Yellow'
_exptl_crystal_density_diffrn    0.954
_exptl_crystal_description       Block
_exptl_crystal_F_000             2480
_refine_diff_density_max         2.003
_refine_diff_density_min         -1.009
_refine_diff_density_rms         0.162
_refine_ls_extinction_method     none
_refine_ls_goodness_of_fit_ref   1.109
_refine_ls_hydrogen_treatment    mixed
_refine_ls_matrix_type           full
_refine_ls_number_parameters     243
_refine_ls_number_reflns         4091
_refine_ls_number_restraints     282
_refine_ls_restrained_S_all      65.308
_refine_ls_R_factor_all          0.1168
_refine_ls_R_factor_gt           0.0968
_refine_ls_shift/su_max          0.000
_refine_ls_shift/su_mean         0.000
_refine_ls_structure_factor_coef Fsqd
_refine_ls_weighting_details
'w=1/[\s^2^(Fo^2^)+(0.1563P)^2^+59.5166P] where P=(Fo^2^+2Fc^2^)/3'
_refine_ls_weighting_scheme      calc
_refine_ls_wR_factor_gt          0.2707
_refine_ls_wR_factor_ref         0.2901
_reflns_Friedel_coverage         0.000
_reflns_number_gt                3110
_reflns_number_total             4091
_reflns_threshold_expression     'I > 2\s(I)'
_cod_data_source_file            c8cc07441k2.cif
_cod_data_source_block           LIFM-51
_cod_depositor_comments
'Adding full bibliography for 7122472--7122473.cif.'
_cod_database_code               7122473
_shelx_shelxl_version_number     2014/7
_shelx_space_group_comment
;
The symmetry employed for this shelxl refinement is uniquely defined
by the following loop, which should always be used as a source of
symmetry information in preference to the above space-group names.
They are only intended as comments.
;
_shelx_res_file
;

    F:\xray\ccx3\EXP-10~1\1_sq.res created by SHELXL-2014/7

REM  exp_1054-28-L41 in P4(2)/mmc
REM R1 =  0.1188 for    3110 Fo > 4sig(Fo)  and  0.1456 for all    4091 data
REM    213 parameters refined using    184 restraints
REM Highest difference peak  1.790,  deepest hole -1.238,  1-sigma level  0.218
TITL exp_1054-28-L41 in P4(2)/mmc
CELL 1.54178 24.3839 24.3839 14.8719 90.000 90.000 90.000
ZERR 2.0000 0.0002 0.0002 0.0005 0.000 0.000 0.000
LATT 1
SYMM -Y, X, 0.5+Z
SYMM -X, -Y, Z
SYMM Y, -X, 0.5+Z
SYMM X, -Y, -Z
SYMM -X, Y, -Z
SYMM Y, X, 0.5-Z
SYMM -Y, -X, 0.5-Z
SFAC C H O F ZR
UNIT 160 64 68 48 12
MERG 2
FMAP 2
GRID
PLAN 120
TEMP -123
EQIV $1 1-X,Y,Z
EQIV $2 X,Y,1-Z
EQIV $10 X, Y, 1-Z
EQIV $11 X, -Y, 1-Z
EQIV $12 1-X, Y, 1-Z
EQIV $13 X, -Y, Z
EQIV $14 1-X, -Y, 1-Z
EQIV $15 1-X, Y, Z
FLAT 0.01 C1 C2 C3 C4 C5 C6 C7 C8 C8A
DFIX 1.39 0.01 C1 C2 C2 C3 C3 C4 C4 C5 C5 C6 C6 C1
DFIX 2.40 0.01 C1 C3 C2 C4 C3 C5 C4 C6 C5 C1 C6 C2
DFIX 2.80 0.01 C1 C4 C2 C5 C3 C6
DFIX 1.50 0.01 C2 C8 C6 C8A
SADI C1 C8 C3 C8 C1 C8A C5 C8A
DFIX 1.31 0.01 C8 F1 C8 F2 C8 F3 C8A F1A C8A F2A C8A F3A
DFIX 2.38 0.01 C2 F1 C2 F2 C2 F3 C6 F1A C6 F2A C6 F3A
SADI F1 F2 F2 F3 F3 F1 F1A F2A F2A F3A F3A F1A
DFIX 1.50 0.01 C9 C10
DFIX 1.27 0.01 C9 O3 C9 O4
DFIX 1.98 0.01 O3 O4
FLAT 0.01 C10 C11 C12 C13 C13_$12 C12_$12 C11_$12 C11_$14 C11_$13 H12 H13
DFIX 1.39 0.01 C10 C11 C11 C12 C12 C13 C13 C13_$12
DFIX 1.39 0.01 C11 C11_$12
DFIX 2.40 0.01 C10 C11_$12 C11 C10_$12 C11 C11_$13
DFIX 2.40 0.01 C11 C13 C11 C12_$12 C12 C13_$12
DFIX 2.80 0.01 C10 C10_$12 C11 C11_$14 C11 C13_$12
DFIX 2.80 0.01 C12 C12_$12 C13 C11_$12
DFIX 1.50 0.001 C10 C10_$13 C12 C12_$15
DFIX 3.60 0.001 C9 C9_$13
DFIX 0.95 0.001 C12 H12 C13 H13
SADI C11 H12 C13 H12 C12 H13 C13_$12 H13
DELU 0.01 C1 C2 C3 C4 C5 C6 C8 C8A F1 F2 F3 F1A F2A F3A
SIMU 0.01 C1 C2 C3 C4 C5 C6 C8 C8A F1 F2 F3 F1A F2A F3A
DELU 0.005 C9 C10 C11 C12 C13 ZR1 O3 O7
SIMU 0.005 C9 C10 C11 C12 C13 ZR1 O3 O7
ISOR 0.01 O4 O3 O7 C2
ABIN
L.S. 20
ACTA
WGHT    0.156300   59.516598
FVAR       2.14963   0.71921
ZR1   5    0.427680    0.000000    0.118310    10.50000    0.04413    0.02477 =
         0.07451    0.00000    0.02827    0.00000
ZR2   5    0.500000    0.100359    0.000000    10.25000    0.01778    0.01498 =
         0.05419    0.00000    0.00000    0.00000
PART 1
F1    4    0.377259    0.327313    0.060507    21.00000    0.23481    0.10869 =
         0.33039    0.06781    0.14455    0.07857
F2    4    0.294243    0.337543    0.074791    21.00000    0.21793    0.19050 =
         0.31826    0.07879    0.06653    0.09307
F3    4    0.346320    0.365090    0.172444    21.00000    0.24564    0.07520 =
         0.35711   -0.00284    0.11908    0.01593
PART 2
F1A   4    0.206806    0.179457    0.323881   -21.00000    0.15402    0.14431 =
         0.30482   -0.00167    0.14030    0.00472
F2A   4    0.254841    0.220084    0.415979   -21.00000    0.19051    0.14106 =
         0.25208   -0.02456    0.14625    0.04838
F3A   4    0.269897    0.139873    0.386769   -21.00000    0.18771    0.12977 =
         0.25153    0.00269    0.15898    0.02431
PART 0
O1    3    0.445131    0.147792    0.088489    11.00000    0.03736    0.02982 =
         0.09273   -0.01103    0.01935    0.00227
O2    3    0.397982    0.083413    0.165835    11.00000    0.09199    0.03238 =
         0.14831   -0.01209    0.07148    0.00657
O3    3    0.429681    0.000000    0.265302    10.50000    0.17861    0.13042 =
         0.08022    0.00000    0.03293    0.00000
O5    3    0.500000    0.048952    0.117270    10.50000    0.04743    0.04160 =
         0.16836    0.04560    0.00000    0.00000
O6    3    0.427764    0.049209    0.000000    10.50000    0.10367    0.05234 =
         0.06952    0.00000    0.00000   -0.05154
O7    3    0.337277    0.000000    0.107518    10.50000    0.04667    0.04731 =
         0.18190    0.00000    0.04483    0.00000
C1    1    0.297373    0.255233    0.234784    11.00000    0.11337    0.07402 =
         0.22427   -0.03209    0.08882    0.02361
C2    1    0.334344    0.267531    0.166179    11.00000    0.12004    0.06871 =
         0.20628   -0.01518    0.07446    0.03717
PART 2
AFIX  43
H2    2    0.334904    0.303088    0.140086   -21.00000   -1.20000
PART 0
AFIX   0
C3    1    0.370557    0.227094    0.136152    11.00000    0.09004    0.04727 =
         0.21196   -0.01711    0.07841    0.01631
AFIX  43
H3    2    0.395891    0.235173    0.089465    11.00000   -1.20000
AFIX   0
C4    1    0.369650    0.175211    0.174256    11.00000    0.08133    0.04299 =
         0.21484   -0.01767    0.08701    0.00898
C5    1    0.333104    0.163147    0.242311    11.00000    0.11619    0.05979 =
         0.23054   -0.01458    0.10677    0.01871
AFIX  43
H5    2    0.332820    0.127592    0.268424    11.00000   -1.20000
AFIX   0
C6    1    0.296383    0.203279    0.272998    11.00000    0.13138    0.08677 =
         0.23502   -0.02063    0.11619    0.02084
PART 1
AFIX  43
H6    2    0.271034    0.194982    0.319560    21.00000   -1.20000
PART 0
AFIX   0
C7    1    0.407920    0.132315    0.142397    11.00000    0.06570    0.03090 =
         0.09866   -0.01313    0.03018    0.01066
PART 1
C8    1    0.337860    0.322625    0.121121    21.00000    0.17004    0.08625 =
         0.26590    0.01737    0.09289    0.06436
PART 0
C9    1    0.425277    0.000000    0.350261    10.25000    0.19327    0.14393 =
         0.08276    0.00000    0.02325    0.00000
C10   1    0.469129    0.000000    0.421073    10.25000    0.20682    0.15575 =
         0.09630    0.00000    0.01006    0.00000
C11   1    0.484589   -0.049435    0.460574    10.50000    0.22005    0.16126 =
         0.11102    0.00391   -0.00075    0.00172
C12   1    0.469238   -0.099022    0.421209    10.50000    0.22878    0.16095 =
         0.12284    0.00532   -0.00510    0.00028
H12   2    0.448215   -0.098978    0.367425    10.50000   -1.20000
C13   1    0.484477   -0.148619    0.460581    10.50000    0.23422    0.16434 =
         0.12820    0.00870   -0.00585   -0.00003
H13   2    0.474028   -0.182289    0.433384    10.50000   -1.20000
PART 2
C8A   1    0.257870    0.187104    0.347171   -21.00000    0.15347    0.11141 =
         0.25279   -0.01741    0.13385    0.02533
PART 0
O4    3    0.378184   -0.020813    0.362773    10.25000    0.23519    0.23845 =
         0.23709    0.00167    0.00355   -0.00334
HKLF 4

REM  exp_1054-28-L41 in P4(2)/mmc
REM R1 =  0.0968 for    3110 Fo > 4sig(Fo)  and  0.1168 for all    4091 data
REM    243 parameters refined using    282 restraints

END

WGHT      0.1563     59.5089

REM Highest difference peak  2.003,  deepest hole -1.009,  1-sigma level  0.162
Q1    1   0.5000  0.1005  0.0631  10.50000  0.05    2.00
Q2    1   0.4236  0.0000  0.1820  10.50000  0.05    1.28
Q3    1   0.4160  0.0000  0.2520  10.50000  0.05    1.06
Q4    1   0.4236  0.0000  0.0566  10.50000  0.05    1.02
Q5    1   0.4507  0.0000  0.2776  10.50000  0.05    0.92
Q6    1   0.4200 -0.1292  0.4537  11.00000  0.05    0.86
Q7    1   0.4542 -0.1862  0.3859  11.00000  0.05    0.84
Q8    1   0.5000 -0.1960  0.3849  10.50000  0.05    0.79
Q9    1   0.5000  0.0428  0.0315  10.50000  0.05    0.71
Q10   1   0.4301 -0.1896  0.4427  11.00000  0.05    0.63
Q11   1   0.3103  0.1508  0.4495  11.00000  0.05    0.61
Q12   1   0.4160  0.1389  0.0815  11.00000  0.05    0.53
Q13   1   0.4270 -0.0796  0.3663  11.00000  0.05    0.53
Q14   1   0.4004 -0.0909  0.4164  11.00000  0.05    0.51
Q15   1   0.4312  0.1582  0.0000  10.50000  0.05    0.51
Q16   1   0.3426  0.2626  0.1961  11.00000  0.05    0.51
Q17   1   0.3582  0.0000  0.1575  10.50000  0.05    0.50
Q18   1   0.4028 -0.1742  0.4056  11.00000  0.05    0.50
Q19   1   0.3223  0.0000  0.0496  10.50000  0.05    0.49
Q20   1   0.3710  0.3272  0.0000  10.50000  0.05    0.48
Q21   1   0.4211 -0.0846  0.5000  10.50000  0.05    0.47
Q22   1   0.4034 -0.0686  0.3646  11.00000  0.05    0.46
Q23   1   0.2924  0.0000  0.1505  10.50000  0.05    0.45
Q24   1   0.2335  0.1785  0.3839  11.00000  0.05    0.45
Q25   1   0.3777  0.3555  0.2385  11.00000  0.05    0.44
Q26   1   0.2775  0.1101  0.3976  11.00000  0.05    0.44
Q27   1   0.2994  0.2178  0.5000  10.50000  0.05    0.43
Q28   1   0.4041 -0.1068  0.3672  11.00000  0.05    0.43
Q29   1   0.5000  0.1618  0.0349  10.50000  0.05    0.43
Q30   1   0.3973  0.3359  0.1301  11.00000  0.05    0.42
Q31   1   0.4357 -0.1526  0.3186  11.00000  0.05    0.42
Q32   1   0.1907  0.2104  0.3940  11.00000  0.05    0.41
Q33   1   0.4328 -0.0927  0.3247  11.00000  0.05    0.41
Q34   1   0.4221 -0.0272  0.4826  11.00000  0.05    0.41
Q35   1   0.5000  0.0000  0.1766  10.25000  0.05    0.41
Q36   1   0.2502  0.1211  0.3501  11.00000  0.05    0.40
Q37   1   0.3382 -0.0225  0.3860  11.00000  0.05    0.40
Q38   1   0.5000  0.0000  0.2621  10.25000  0.05    0.39
Q39   1   0.2491  0.3052  0.5000  10.50000  0.05    0.39
Q40   1   0.2611  0.3733  0.0000  10.50000  0.05    0.38
Q41   1   0.4016  0.0000  0.4159  10.50000  0.05    0.38
Q42   1   0.3787  0.0615  0.2218  11.00000  0.05    0.37
Q43   1   0.4416  0.1336  0.1461  11.00000  0.05    0.37
Q44   1   0.5000  0.0000  0.3179  10.25000  0.05    0.37
Q45   1   0.5000 -0.1179  0.2550  10.50000  0.05    0.36
Q46   1   0.5000  0.0858  0.1473  10.50000  0.05    0.35
Q47   1   0.2593  0.3271  0.0000  10.50000  0.05    0.35
Q48   1   0.3171  0.2743  0.0000  10.50000  0.05    0.34
Q49   1   0.4291 -0.1368  0.3854  11.00000  0.05    0.34
Q50   1   0.2888  0.2939  0.0000  10.50000  0.05    0.34
Q51   1   0.3295 -0.0725  0.3791  11.00000  0.05    0.33
Q52   1   0.4676 -0.0164  0.5000  10.50000  0.05    0.33
Q53   1   0.3310  0.3135  0.0000  10.50000  0.05    0.33
Q54   1   0.3311  0.0781  0.2241  11.00000  0.05    0.33
Q55   1   0.4037 -0.0533  0.4732  11.00000  0.05    0.32
Q56   1   0.4715  0.0710  0.2169  11.00000  0.05    0.32
Q57   1   0.4789  0.0000  0.5000  10.25000  0.05    0.32
Q58   1   0.4441 -0.1166  0.2497  11.00000  0.05    0.31
Q59   1   0.3601  0.0000  0.5000  10.25000  0.05    0.31
Q60   1   0.3196  0.3641  0.1328  11.00000  0.05    0.31
Q61   1   0.3908  0.0906  0.1327  11.00000  0.05    0.30
Q62   1   0.4296  0.0592  0.0778  11.00000  0.05    0.30
Q63   1   0.3603  0.0000  0.0644  10.50000  0.05    0.29
Q64   1   0.4391  0.0909  0.0468  11.00000  0.05    0.28
Q65   1   0.4612 -0.2035  0.5000  10.50000  0.05    0.28
Q66   1   0.4547  0.1345  0.0379  11.00000  0.05    0.28
Q67   1   0.4202  0.0982  0.1803  11.00000  0.05    0.28
Q68   1   0.5000  0.2438  0.0121  10.50000  0.05    0.27
Q69   1   0.5000  0.1859  0.0000  10.25000  0.05    0.26
Q70   1   0.3685  0.0000  0.1083  10.50000  0.05    0.26
Q71   1   0.3398  0.0000  0.2776  10.50000  0.05    0.26
Q72   1   0.2200  0.2574  0.4435  11.00000  0.05    0.26
Q73   1   0.3274  0.2836  0.0636  11.00000  0.05    0.25
Q74   1   0.3581  0.2382  0.0000  10.50000  0.05    0.25
Q75   1   0.2424  0.1528  0.2897  11.00000  0.05    0.25
Q76   1   0.3022  0.0944  0.0000  10.50000  0.05    0.25
Q77   1   0.5000 -0.0332  0.3711  10.50000  0.05    0.24
Q78   1   0.5000 -0.2294  0.4604  10.50000  0.05    0.24
Q79   1   0.3227  0.4083  0.1525  11.00000  0.05    0.24
Q80   1   0.5000 -0.2297  0.3002  10.50000  0.05    0.24
Q81   1   0.4186  0.0576  0.1664  11.00000  0.05    0.24
Q82   1   0.3337  0.0896  0.2981  11.00000  0.05    0.24
Q83   1   0.3985  0.0563  0.0000  10.50000  0.05    0.23
Q84   1   0.2705  0.1404  0.2957  11.00000  0.05    0.23
Q85   1   0.2910  0.1189  0.3096  11.00000  0.05    0.23
Q86   1   0.4726  0.1977  0.0000  10.50000  0.05    0.23
Q87   1   0.3050  0.1682  0.1834  11.00000  0.05    0.22
Q88   1   0.4205 -0.0416  0.3290  11.00000  0.05    0.22
Q89   1   0.4279  0.0960  0.0000  10.50000  0.05    0.22
Q90   1   0.2948  0.0293  0.0929  11.00000  0.05    0.22
Q91   1   0.5000 -0.1765  0.2851  10.50000  0.05    0.22
Q92   1   0.2497  0.3762  0.0771  11.00000  0.05    0.22
Q93   1   0.3009  0.2391  0.0632  11.00000  0.05    0.22
Q94   1   0.4298  0.3264  0.0526  11.00000  0.05    0.21
Q95   1   0.4412  0.1028  0.2297  11.00000  0.05    0.21
Q96   1   0.3746  0.1625  0.0429  11.00000  0.05    0.21
Q97   1   0.2019  0.1713  0.2559  11.00000  0.05    0.21
Q98   1   0.3474  0.4100  0.1921  11.00000  0.05    0.20
Q99   1   0.3960  0.0977  0.2471  11.00000  0.05    0.20
Q100  1   0.2883  0.2714  0.1895  11.00000  0.05    0.20
Q101  1   0.3632  0.2042  0.0494  11.00000  0.05    0.20
Q102  1   0.4091  0.0718  0.2698  11.00000  0.05    0.19
Q103  1   0.2714  0.0000  0.0884  10.50000  0.05    0.19
Q104  1   0.2322  0.3387  0.0715  11.00000  0.05    0.19
Q105  1   0.2955  0.1152  0.2348  11.00000  0.05    0.19
Q106  1   0.2574  0.0511  0.1484  11.00000  0.05    0.19
Q107  1   0.2750  0.2090  0.2177  11.00000  0.05    0.19
Q108  1   0.3018  0.1892  0.3525  11.00000  0.05    0.19
Q109  1   0.3385  0.1106  0.0200  11.00000  0.05    0.18
Q110  1   0.5000  0.1284  0.1356  10.50000  0.05    0.18
Q111  1   0.3726  0.3984  0.1316  11.00000  0.05    0.17
Q112  1   0.1707  0.0000  0.0739  10.50000  0.05    0.17
Q113  1   0.4036  0.2550  0.2002  11.00000  0.05    0.17
Q114  1   0.2744  0.1795  0.1773  11.00000  0.05    0.17
Q115  1   0.5000  0.2824  0.0553  10.50000  0.05    0.17
Q116  1   0.3943  0.2767  0.0000  10.50000  0.05    0.16
Q117  1   0.4713  0.1269  0.1840  11.00000  0.05    0.16
Q118  1   0.2214  0.1966  0.5000  10.50000  0.05    0.16
Q119  1   0.1696  0.2526  0.5000  10.50000  0.05    0.16
Q120  1   0.3798  0.2588  0.0457  11.00000  0.05    0.16
;
_shelx_res_checksum              51467
_shelx_fab_file
;
    0    0    2     41.66      0.00
    0    0    4     91.65      0.00
    0    0    6     34.98      0.00
    0    0   10     -7.64      0.00
    0    0   12     -3.28      0.00
    0    0   14    -14.01      0.00
    0    0   16      4.90      0.00
    0    1    1     -4.80      0.00
    0    1    2     -2.27      0.00
    0    1    3     46.23      0.00
    0    1    4     13.52      0.00
    0    1    5    -15.89      0.00
    0    1    6     -0.79      0.00
    0    1    7      5.67      0.00
    0    1    9      2.79      0.00
    0    1   10      2.97      0.00
    0    1   11     -2.84      0.00
    0    1   12     -8.24      0.00
    0    1   13     -0.09      0.00
    0    1   14      7.20      0.00
    0    1   15     -0.28      0.00
    0    1   16    -25.56      0.00
    1    1    2      2.13      0.00
    1    1    4    -14.15      0.00
    1    1    6     -3.92      0.00
    1    1    8      3.34      0.00
    1    1   10      1.86      0.00
    1    1   12     -4.57      0.00
    1    1   14     13.44      0.00
    1    1   16     -1.84      0.00
    0    2    0     66.29      0.00
    0    2    1     49.61      0.00
    0    2    2    -49.99      0.00
    0    2    3     26.23      0.00
    0    2    4    -20.60      0.00
    0    2    5     26.06      0.00
    0    2    6     -5.22      0.00
    0    2    7     -1.14      0.00
    0    2    8     -3.19      0.00
    0    2    9      2.11      0.00
    0    2   10      3.41      0.00
    0    2   11     -3.78      0.00
    0    2   12     -3.58      0.00
    0    2   13     -2.97      0.00
    0    2   14     -2.06      0.00
    0    2   15     -5.45      0.00
    0    2   16     -2.09      0.00
    1    2    0    -75.90      0.00
    1    2    1     20.39      0.00
    1    2    2    -45.28      0.00
    1    2    3     34.30      0.00
    1    2    4     -3.39      0.00
    1    2    5      0.49      0.00
    1    2    6      3.94      0.00
    1    2    7     -0.60      0.00
    1    2    8    -11.20      0.00
    1    2    9      1.37      0.00
    1    2   10     -1.31      0.00
    1    2   11     -4.15      0.00
    1    2   12      1.13      0.00
    1    2   13     -0.11      0.00
    1    2   14      1.10      0.00
    1    2   15      0.67      0.00
    1    2   16    -38.30      0.00
    2    2    0   -232.41      0.00
    2    2    2     68.06      0.00
    2    2    4      2.70      0.00
    2    2    6     -2.89      0.00
    2    2    8      3.81      0.00
    2    2   10      1.48      0.00
    2    2   12    -13.83      0.00
    2    2   14      6.56      0.00
    2    2   16      5.51      0.00
    0    3    0    -97.84      0.00
    0    3    1     -5.09      0.00
    0    3    2      6.08      0.00
    0    3    3      2.41      0.00
    0    3    4    -14.20      0.00
    0    3    5     -5.74      0.00
    0    3    6     -5.04      0.00
    0    3    7     -4.58      0.00
    0    3    8      5.90      0.00
    0    3    9     -4.73      0.00
    0    3   10      7.41      0.00
    0    3   11      0.87      0.00
    0    3   12     -3.69      0.00
    0    3   13      3.35      0.00
    0    3   14     -7.24      0.00
    0    3   15      7.51      0.00
    0    3   16    -12.75      0.00
    1    3    0     33.60      0.00
    1    3    1    -19.26      0.00
    1    3    2     19.90      0.00
    1    3    3     21.62      0.00
    1    3    4     15.37      0.00
    1    3    5    -15.56      0.00
    1    3    6     11.52      0.00
    1    3    7     -2.54      0.00
    1    3    8      2.68      0.00
    1    3    9      8.73      0.00
    1    3   10     -3.29      0.00
    1    3   11     -2.33      0.00
    1    3   12     -3.51      0.00
    1    3   13      0.13      0.00
    1    3   14    -22.04      0.00
    1    3   15      1.61      0.00
    1    3   16      5.16      0.00
    1    3   17     25.81      0.00
    2    3    0     52.50      0.00
    2    3    1     57.25      0.00
    2    3    2     42.28      0.00
    2    3    3    -17.65      0.00
    2    3    4     15.62      0.00
    2    3    5     18.35      0.00
    2    3    6     -0.12      0.00
    2    3    7     -0.57      0.00
    2    3    8      2.52      0.00
    2    3    9     -2.12      0.00
    2    3   10     -5.74      0.00
    2    3   11     -1.94      0.00
    2    3   12     -0.80      0.00
    2    3   13     -0.66      0.00
    2    3   14     -3.16      0.00
    2    3   15      0.06      0.00
    2    3   16    -21.46      0.00
    2    3   17     10.68      0.00
    3    3    0    -38.94      0.00
    3    3    2    -48.93      0.00
    3    3    4      1.48      0.00
    3    3    6    -15.29      0.00
    3    3    8     -7.04      0.00
    3    3   10      0.29      0.00
    3    3   12      5.63      0.00
    3    3   14    -13.67      0.00
    3    3   16     21.76      0.00
    0    4    0    170.27      0.00
    0    4    1   -108.10      0.00
    0    4    2    -39.76      0.00
    0    4    3    -45.05      0.00
    0    4    4    -23.44      0.00
    0    4    5     -4.06      0.00
    0    4    6     -5.98      0.00
    0    4    7    -22.40      0.00
    0    4    8     -5.05      0.00
    0    4    9      4.70      0.00
    0    4   10     -3.98      0.00
    0    4   11      6.65      0.00
    0    4   12     10.57      0.00
    0    4   13      0.81      0.00
    0    4   14    -13.65      0.00
    0    4   15      7.31      0.00
    0    4   16      2.34      0.00
    1    4    0     21.80      0.00
    1    4    1      2.95      0.00
    1    4    2      9.03      0.00
    1    4    3    -30.79      0.00
    1    4    4      6.90      0.00
    1    4    5     -3.01      0.00
    1    4    6     -3.83      0.00
    1    4    7      1.67      0.00
    1    4    8     -0.56      0.00
    1    4    9      2.14      0.00
    1    4   10      2.82      0.00
    1    4   11      3.62      0.00
    1    4   12      2.50      0.00
    1    4   13      1.34      0.00
    1    4   14     -1.53      0.00
    1    4   15      2.79      0.00
    1    4   16      8.67      0.00
    1    4   17    -13.67      0.00
    2    4    0     36.29      0.00
    2    4    1     46.81      0.00
    2    4    2     39.08      0.00
    2    4    3     20.56      0.00
    2    4    4      4.20      0.00
    2    4    5      1.83      0.00
    2    4    6     -0.92      0.00
    2    4    7      1.13      0.00
    2    4    8      7.35      0.00
    2    4    9      7.08      0.00
    2    4   10     -3.30      0.00
    2    4   11     -3.99      0.00
    2    4   12      0.23      0.00
    2    4   13     -1.75      0.00
    2    4   14     -9.95      0.00
    2    4   15     -0.46      0.00
    2    4   16      8.16      0.00
    2    4   17     20.51      0.00
    3    4    0      7.01      0.00
    3    4    1     24.97      0.00
    3    4    2     20.11      0.00
    3    4    3     14.95      0.00
    3    4    4     -6.38      0.00
    3    4    5     -7.53      0.00
    3    4    6     -8.02      0.00
    3    4    7      6.18      0.00
    3    4    8     -1.16      0.00
    3    4    9     -3.93      0.00
    3    4   10      9.16      0.00
    3    4   11     -4.83      0.00
    3    4   12      5.45      0.00
    3    4   13      1.16      0.00
    3    4   14      3.63      0.00
    3    4   15      9.12      0.00
    3    4   16     12.65      0.00
    3    4   17      1.83      0.00
    4    4    0      9.18      0.00
    4    4    2    -26.16      0.00
    4    4    4    -10.63      0.00
    4    4    6     -2.11      0.00
    4    4    8     -3.89      0.00
    4    4   10      0.57      0.00
    4    4   12      1.06      0.00
    4    4   14     -5.63      0.00
    4    4   16      5.45      0.00
    0    5    0    -50.42      0.00
    0    5    1    -12.68      0.00
    0    5    2     12.16      0.00
    0    5    3     17.97      0.00
    0    5    4    -14.09      0.00
    0    5    5    -12.85      0.00
    0    5    6      1.93      0.00
    0    5    7      2.39      0.00
    0    5    8     -5.13      0.00
    0    5    9      6.08      0.00
    0    5   10     -4.12      0.00
    0    5   11      3.04      0.00
    0    5   12      7.13      0.00
    0    5   13      4.09      0.00
    0    5   14     10.20      0.00
    0    5   15     -2.36      0.00
    0    5   16     18.53      0.00
    1    5    0      8.11      0.00
    1    5    1     15.84      0.00
    1    5    2     45.21      0.00
    1    5    3     -7.71      0.00
    1    5    4    -13.12      0.00
    1    5    5     12.47      0.00
    1    5    6     -7.33      0.00
    1    5    7      2.40      0.00
    1    5    8      1.79      0.00
    1    5    9     -5.48      0.00
    1    5   10     -4.14      0.00
    1    5   11     -1.40      0.00
    1    5   12     -4.44      0.00
    1    5   13     -3.87      0.00
    1    5   14      8.19      0.00
    1    5   15     -3.83      0.00
    1    5   16     -6.91      0.00
    1    5   17    -17.60      0.00
    2    5    0     30.59      0.00
    2    5    1      5.44      0.00
    2    5    2    -14.22      0.00
    2    5    3      5.82      0.00
    2    5    4      2.56      0.00
    2    5    5      3.76      0.00
    2    5    6      8.77      0.00
    2    5    7      1.01      0.00
    2    5    8     -1.00      0.00
    2    5    9      2.68      0.00
    2    5   10     -3.05      0.00
    2    5   11      0.26      0.00
    2    5   12      8.57      0.00
    2    5   13      0.05      0.00
    2    5   14     -3.01      0.00
    2    5   15      1.81      0.00
    2    5   16     -2.73      0.00
    2    5   17     -4.69      0.00
    3    5    0    -19.52      0.00
    3    5    1     -1.58      0.00
    3    5    2    -12.31      0.00
    3    5    3    -33.02      0.00
    3    5    4     -6.25      0.00
    3    5    5      1.79      0.00
    3    5    6     -7.70      0.00
    3    5    7     -3.73      0.00
    3    5    8      4.34      0.00
    3    5    9     -3.89      0.00
    3    5   10      3.33      0.00
    3    5   11      8.02      0.00
    3    5   12     -4.60      0.00
    3    5   13      6.33      0.00
    3    5   14      2.21      0.00
    3    5   15      7.58      0.00
    3    5   16      3.17      0.00
    3    5   17    -12.15      0.00
    4    5    0    -37.07      0.00
    4    5    1    -12.23      0.00
    4    5    2      3.18      0.00
    4    5    3      5.88      0.00
    4    5    4     -3.18      0.00
    4    5    5     -4.51      0.00
    4    5    6      3.93      0.00
    4    5    7     -2.01      0.00
    4    5    8      0.54      0.00
    4    5    9      3.84      0.00
    4    5   10     10.58      0.00
    4    5   11     -0.86      0.00
    4    5   12      7.28      0.00
    4    5   13     -1.61      0.00
    4    5   14     -7.77      0.00
    4    5   15      5.82      0.00
    4    5   16     11.60      0.00
    4    5   17     -4.92      0.00
    5    5    0     -2.20      0.00
    5    5    2     32.40      0.00
    5    5    4    -10.33      0.00
    5    5    6     -2.86      0.00
    5    5    8      1.21      0.00
    5    5   10     -3.62      0.00
    5    5   12    -12.86      0.00
    5    5   14    -13.33      0.00
    5    5   16     -4.79      0.00
    0    6    0    -26.33      0.00
    0    6    1      7.17      0.00
    0    6    2     31.20      0.00
    0    6    3    -19.95      0.00
    0    6    4      4.99      0.00
    0    6    5      2.80      0.00
    0    6    6      7.99      0.00
    0    6    7     -6.56      0.00
    0    6    8     -6.42      0.00
    0    6    9     -2.76      0.00
    0    6   10     -6.32      0.00
    0    6   11     -1.87      0.00
    0    6   12    -12.29      0.00
    0    6   13      6.12      0.00
    0    6   14     -4.24      0.00
    0    6   15      6.07      0.00
    0    6   16     -7.83      0.00
    1    6    0    -23.08      0.00
    1    6    1     24.62      0.00
    1    6    2     -1.09      0.00
    1    6    3     -0.99      0.00
    1    6    4      2.53      0.00
    1    6    5     10.84      0.00
    1    6    6      1.70      0.00
    1    6    7     -4.96      0.00
    1    6    8      6.58      0.00
    1    6    9     -4.59      0.00
    1    6   10      1.58      0.00
    1    6   11      7.49      0.00
    1    6   12     -0.41      0.00
    1    6   13     10.26      0.00
    1    6   14      0.53      0.00
    1    6   15     -7.06      0.00
    1    6   16     -8.28      0.00
    1    6   17     12.22      0.00
    2    6    0    -43.88      0.00
    2    6    1     22.07      0.00
    2    6    2     20.49      0.00
    2    6    3     -4.88      0.00
    2    6    4     -7.14      0.00
    2    6    5     -7.13      0.00
    2    6    6     -2.34      0.00
    2    6    7      5.21      0.00
    2    6    8      5.29      0.00
    2    6    9      1.89      0.00
    2    6   10     -2.36      0.00
    2    6   11     -0.12      0.00
    2    6   12     -9.94      0.00
    2    6   13     -0.45      0.00
    2    6   14     -8.20      0.00
    2    6   15     -5.58      0.00
    2    6   16      0.30      0.00
    2    6   17      7.45      0.00
    3    6    0     -1.60      0.00
    3    6    1    -29.73      0.00
    3    6    2      7.47      0.00
    3    6    3     -6.92      0.00
    3    6    4     -4.17      0.00
    3    6    5      1.89      0.00
    3    6    6     -0.34      0.00
    3    6    7      3.68      0.00
    3    6    8      0.73      0.00
    3    6    9      0.32      0.00
    3    6   10     -6.22      0.00
    3    6   11      7.58      0.00
    3    6   12     -3.41      0.00
    3    6   13     -5.96      0.00
    3    6   14      0.93      0.00
    3    6   15     -0.72      0.00
    3    6   16     -4.53      0.00
    3    6   17      7.91      0.00
    4    6    0    -14.48      0.00
    4    6    1      0.83      0.00
    4    6    2    -12.64      0.00
    4    6    3      3.87      0.00
    4    6    4    -10.22      0.00
    4    6    5      5.91      0.00
    4    6    6     -1.93      0.00
    4    6    7     -0.06      0.00
    4    6    8     -0.67      0.00
    4    6    9     -3.21      0.00
    4    6   10     -3.87      0.00
    4    6   11     -4.81      0.00
    4    6   12     -8.01      0.00
    4    6   13     -1.22      0.00
    4    6   14     -3.87      0.00
    4    6   15      6.75      0.00
    4    6   16      1.84      0.00
    5    6    0      0.11      0.00
    5    6    1     27.76      0.00
    5    6    2      5.48      0.00
    5    6    3     -1.33      0.00
    5    6    4      3.89      0.00
    5    6    5     13.02      0.00
    5    6    6      1.18      0.00
    5    6    7      0.74      0.00
    5    6    8     -0.70      0.00
    5    6    9     -0.09      0.00
    5    6   10     -0.62      0.00
    5    6   11      1.01      0.00
    5    6   12      7.04      0.00
    5    6   13     -3.71      0.00
    5    6   14     -9.08      0.00
    5    6   15     -3.94      0.00
    5    6   16      0.34      0.00
    6    6    0     12.54      0.00
    6    6    2     -0.74      0.00
    6    6    4     -6.40      0.00
    6    6    6      0.82      0.00
    6    6    8      0.83      0.00
    6    6   10      1.22      0.00
    6    6   12     -0.63      0.00
    6    6   14    -14.45      0.00
    6    6   16      0.48      0.00
    0    7    0    -32.91      0.00
    0    7    1     23.55      0.00
    0    7    2     12.09      0.00
    0    7    3    -11.43      0.00
    0    7    4      0.70      0.00
    0    7    5    -13.61      0.00
    0    7    6     -5.21      0.00
    0    7    7      9.25      0.00
    0    7    8      6.99      0.00
    0    7    9     -4.75      0.00
    0    7   10      6.59      0.00
    0    7   11      7.87      0.00
    0    7   12     -4.30      0.00
    0    7   13     18.34      0.00
    0    7   14      1.95      0.00
    0    7   15     -5.35      0.00
    0    7   16      4.06      0.00
    1    7    0    -16.19      0.00
    1    7    1      1.00      0.00
    1    7    2     12.92      0.00
    1    7    3      2.44      0.00
    1    7    4    -19.40      0.00
    1    7    5     -7.87      0.00
    1    7    6      2.34      0.00
    1    7    7     -4.16      0.00
    1    7    8      2.98      0.00
    1    7    9      3.05      0.00
    1    7   10     -2.98      0.00
    1    7   11     -0.68      0.00
    1    7   12     -6.87      0.00
    1    7   13      4.68      0.00
    1    7   14    -18.17      0.00
    1    7   15      1.96      0.00
    1    7   16     -1.18      0.00
    2    7    0     25.52      0.00
    2    7    1     -2.27      0.00
    2    7    2    -13.07      0.00
    2    7    3    -14.21      0.00
    2    7    4      5.14      0.00
    2    7    5      3.49      0.00
    2    7    6     -5.04      0.00
    2    7    7     -0.59      0.00
    2    7    8     -4.95      0.00
    2    7    9     -7.48      0.00
    2    7   10      3.92      0.00
    2    7   11     10.01      0.00
    2    7   12     -1.91      0.00
    2    7   13      4.17      0.00
    2    7   14     -2.10      0.00
    2    7   15      1.22      0.00
    2    7   16     -6.17      0.00
    3    7    0     17.97      0.00
    3    7    1     -8.42      0.00
    3    7    2     -6.94      0.00
    3    7    3     -6.30      0.00
    3    7    4      5.49      0.00
    3    7    5      2.84      0.00
    3    7    6      3.35      0.00
    3    7    7     -3.04      0.00
    3    7    8     -1.36      0.00
    3    7    9      5.07      0.00
    3    7   10     -6.17      0.00
    3    7   11      2.61      0.00
    3    7   12     -9.68      0.00
    3    7   13     -2.84      0.00
    3    7   14     -3.86      0.00
    3    7   15     -0.99      0.00
    3    7   16      3.64      0.00
    4    7    0     -0.71      0.00
    4    7    1     10.14      0.00
    4    7    2     -2.09      0.00
    4    7    3     -8.96      0.00
    4    7    4      7.69      0.00
    4    7    5      2.28      0.00
    4    7    6     -4.15      0.00
    4    7    7      2.82      0.00
    4    7    8     -0.23      0.00
    4    7    9     -0.73      0.00
    4    7   10      1.57      0.00
    4    7   11     -2.83      0.00
    4    7   12     -1.53      0.00
    4    7   13     -5.25      0.00
    4    7   14      3.76      0.00
    4    7   15     -1.81      0.00
    4    7   16     -0.24      0.00
    5    7    0      4.58      0.00
    5    7    1     11.86      0.00
    5    7    2      1.13      0.00
    5    7    3      3.44      0.00
    5    7    4     -4.37      0.00
    5    7    5     -3.08      0.00
    5    7    6     -0.23      0.00
    5    7    7     -4.21      0.00
    5    7    8      2.07      0.00
    5    7    9      4.44      0.00
    5    7   10      0.08      0.00
    5    7   11     -3.14      0.00
    5    7   12     -4.21      0.00
    5    7   13      0.14      0.00
    5    7   14     -6.54      0.00
    5    7   15      0.04      0.00
    5    7   16     -2.16      0.00
    6    7    0      7.61      0.00
    6    7    1     22.06      0.00
    6    7    2     -9.61      0.00
    6    7    3      8.95      0.00
    6    7    4      0.36      0.00
    6    7    5      3.00      0.00
    6    7    6      2.36      0.00
    6    7    7      1.42      0.00
    6    7    8     -0.56      0.00
    6    7    9     -2.18      0.00
    6    7   10      2.29      0.00
    6    7   11      4.72      0.00
    6    7   12      3.28      0.00
    6    7   13      2.94      0.00
    6    7   14     -1.17      0.00
    6    7   15      2.74      0.00
    6    7   16     -0.45      0.00
    7    7    0    -27.97      0.00
    7    7    2    -16.61      0.00
    7    7    4      4.02      0.00
    7    7    6      2.43      0.00
    7    7    8     -1.70      0.00
    7    7   10     -1.66      0.00
    7    7   12     -0.21      0.00
    7    7   14      5.42      0.00
    7    7   16      1.01      0.00
    0    8    1      4.02      0.00
    0    8    2      6.71      0.00
    0    8    3     11.86      0.00
    0    8    4     13.38      0.00
    0    8    5     17.62      0.00
    0    8    6     -0.18      0.00
    0    8    7      5.28      0.00
    0    8    8      2.48      0.00
    0    8    9     -2.04      0.00
    0    8   10     -1.37      0.00
    0    8   11      0.43      0.00
    0    8   12     -4.87      0.00
    0    8   13     -4.92      0.00
    0    8   14     -1.05      0.00
    0    8   15      1.04      0.00
    0    8   16     -4.67      0.00
    1    8    0      1.93      0.00
    1    8    1      7.90      0.00
    1    8    2     -7.54      0.00
    1    8    3      5.77      0.00
    1    8    4     -5.86      0.00
    1    8    5     -5.28      0.00
    1    8    6      2.19      0.00
    1    8    7     -0.79      0.00
    1    8    8     -4.95      0.00
    1    8    9      3.63      0.00
    1    8   10     -1.07      0.00
    1    8   11     -0.18      0.00
    1    8   12      5.12      0.00
    1    8   13      7.56      0.00
    1    8   14      1.72      0.00
    1    8   15      3.85      0.00
    1    8   16      7.68      0.00
    2    8    0      6.67      0.00
    2    8    1     -1.65      0.00
    2    8    2      6.37      0.00
    2    8    3      3.50      0.00
    2    8    4     -6.83      0.00
    2    8    5    -10.63      0.00
    2    8    6     -8.98      0.00
    2    8    7      0.77      0.00
    2    8    8      3.57      0.00
    2    8    9     -4.03      0.00
    2    8   10      2.54      0.00
    2    8   11      1.91      0.00
    2    8   12     -1.74      0.00
    2    8   13      2.01      0.00
    2    8   14     -2.08      0.00
    2    8   15     -0.84      0.00
    2    8   16     -0.52      0.00
    3    8    0     -7.45      0.00
    3    8    1    -12.63      0.00
    3    8    2      1.93      0.00
    3    8    3      8.86      0.00
    3    8    4     -2.29      0.00
    3    8    5     -9.83      0.00
    3    8    6      8.93      0.00
    3    8    7      0.30      0.00
    3    8    8     -1.91      0.00
    3    8    9      2.08      0.00
    3    8   10      0.30      0.00
    3    8   11     -4.34      0.00
    3    8   12      0.82      0.00
    3    8   13     -2.99      0.00
    3    8   14     -1.26      0.00
    3    8   15      3.44      0.00
    3    8   16      0.15      0.00
    4    8    0      4.90      0.00
    4    8    1    -24.52      0.00
    4    8    2      2.74      0.00
    4    8    3    -10.06      0.00
    4    8    4     10.77      0.00
    4    8    5     -4.14      0.00
    4    8    6      1.39      0.00
    4    8    7      4.15      0.00
    4    8    8     -0.32      0.00
    4    8    9     -0.44      0.00
    4    8   10      0.28      0.00
    4    8   11      6.49      0.00
    4    8   12     -6.42      0.00
    4    8   13      4.27      0.00
    4    8   14      2.07      0.00
    4    8   15      0.77      0.00
    4    8   16     -4.48      0.00
    5    8    0     -4.17      0.00
    5    8    1     -1.82      0.00
    5    8    2      2.97      0.00
    5    8    3     -2.82      0.00
    5    8    4     -1.62      0.00
    5    8    5     -5.33      0.00
    5    8    6     -0.70      0.00
    5    8    7     -3.81      0.00
    5    8    8     -1.11      0.00
    5    8    9     -0.09      0.00
    5    8   10      2.02      0.00
    5    8   11     -0.30      0.00
    5    8   12      5.29      0.00
    5    8   13      6.82      0.00
    5    8   14     -1.27      0.00
    5    8   15      3.69      0.00
    5    8   16     -0.32      0.00
    6    8    0     12.22      0.00
    6    8    1     13.14      0.00
    6    8    2     10.07      0.00
    6    8    3     10.44      0.00
    6    8    4      5.63      0.00
    6    8    5     -1.75      0.00
    6    8    6     -2.24      0.00
    6    8    7     -0.14      0.00
    6    8    8     -1.89      0.00
    6    8    9     -4.84      0.00
    6    8   10     -1.80      0.00
    6    8   11      4.11      0.00
    6    8   12     -3.80      0.00
    6    8   13     -2.18      0.00
    6    8   14     -2.14      0.00
    6    8   15     -0.81      0.00
    6    8   16      1.87      0.00
    7    8    0     -3.91      0.00
    7    8    1      3.51      0.00
    7    8    2     -7.59      0.00
    7    8    3      6.10      0.00
    7    8    4      0.96      0.00
    7    8    5      1.76      0.00
    7    8    6     -0.04      0.00
    7    8    7     -3.77      0.00
    7    8    8      0.87      0.00
    7    8    9      1.78      0.00
    7    8   10     -4.35      0.00
    7    8   11     -2.00      0.00
    7    8   12     -0.93      0.00
    7    8   13     -1.07      0.00
    7    8   14     -3.07      0.00
    7    8   15      4.01      0.00
    7    8   16     -1.86      0.00
    8    8    0    -27.17      0.00
    8    8    2    -22.02      0.00
    8    8    4      5.33      0.00
    8    8    6      0.13      0.00
    8    8    8      3.51      0.00
    8    8   10      4.17      0.00
    8    8   12     -2.55      0.00
    8    8   14      4.06      0.00
    8    8   16      2.92      0.00
    0    9    1      4.87      0.00
    0    9    2      8.73      0.00
    0    9    3     11.08      0.00
    0    9    4      0.39      0.00
    0    9    5     -2.45      0.00
    0    9    6      7.71      0.00
    0    9    7      7.69      0.00
    0    9    8      6.79      0.00
    0    9    9      3.17      0.00
    0    9   10     -2.28      0.00
    0    9   11     -0.50      0.00
    0    9   12     -0.56      0.00
    0    9   13     -3.61      0.00
    0    9   14      5.25      0.00
    0    9   15     -3.82      0.00
    0    9   16     -1.51      0.00
    1    9    0     -0.34      0.00
    1    9    1      0.71      0.00
    1    9    2      8.05      0.00
    1    9    3     -6.39      0.00
    1    9    4     17.52      0.00
    1    9    5     -3.24      0.00
    1    9    6     -0.84      0.00
    1    9    7      2.34      0.00
    1    9    8     -1.10      0.00
    1    9    9     -0.47      0.00
    1    9   10     -0.59      0.00
    1    9   11     -0.63      0.00
    1    9   12      5.23      0.00
    1    9   13     -0.99      0.00
    1    9   14      2.32      0.00
    1    9   15      4.50      0.00
    1    9   16     -2.33      0.00
    2    9    0      6.23      0.00
    2    9    1     -1.59      0.00
    2    9    2    -12.97      0.00
    2    9    3      4.14      0.00
    2    9    4     -8.92      0.00
    2    9    5      1.19      0.00
    2    9    6      0.61      0.00
    2    9    7    -10.41      0.00
    2    9    8      0.02      0.00
    2    9    9     -3.89      0.00
    2    9   10     -2.27      0.00
    2    9   11      0.94      0.00
    2    9   12     -4.20      0.00
    2    9   13      2.58      0.00
    2    9   14      0.25      0.00
    2    9   15      7.34      0.00
    2    9   16     -2.35      0.00
    3    9    0     10.45      0.00
    3    9    1     25.54      0.00
    3    9    2      4.97      0.00
    3    9    3      8.36      0.00
    3    9    4     13.53      0.00
    3    9    5      7.54      0.00
    3    9    6      3.32      0.00
    3    9    7     -1.83      0.00
    3    9    8     -2.43      0.00
    3    9    9     -4.74      0.00
    3    9   10     -0.02      0.00
    3    9   11     -3.01      0.00
    3    9   12      2.72      0.00
    3    9   13      0.02      0.00
    3    9   14      6.37      0.00
    3    9   15      1.82      0.00
    3    9   16      4.06      0.00
    4    9    0    -11.67      0.00
    4    9    1     -2.89      0.00
    4    9    2     -4.16      0.00
    4    9    3      9.19      0.00
    4    9    4      2.29      0.00
    4    9    5     -0.77      0.00
    4    9    6     -2.28      0.00
    4    9    7      1.46      0.00
    4    9    8      1.63      0.00
    4    9    9      3.95      0.00
    4    9   10     -3.60      0.00
    4    9   11     -5.67      0.00
    4    9   12     -2.61      0.00
    4    9   13     -6.46      0.00
    4    9   14      2.53      0.00
    4    9   15     -7.85      0.00
    4    9   16      1.04      0.00
    5    9    0    -11.44      0.00
    5    9    1    -15.63      0.00
    5    9    2     -2.87      0.00
    5    9    3     -0.72      0.00
    5    9    4     -9.87      0.00
    5    9    5      0.51      0.00
    5    9    6     -1.80      0.00
    5    9    7      2.30      0.00
    5    9    8     -0.42      0.00
    5    9    9      1.31      0.00
    5    9   10      4.48      0.00
    5    9   11     -0.81      0.00
    5    9   12      5.23      0.00
    5    9   13      1.15      0.00
    5    9   14     -4.66      0.00
    5    9   15      1.19      0.00
    5    9   16      2.64      0.00
    6    9    0     11.78      0.00
    6    9    1    -10.10      0.00
    6    9    2      9.88      0.00
    6    9    3      0.00      0.00
    6    9    4     -1.44      0.00
    6    9    5      0.48      0.00
    6    9    6     -0.42      0.00
    6    9    7      1.61      0.00
    6    9    8      2.32      0.00
    6    9    9     -0.19      0.00
    6    9   10      1.80      0.00
    6    9   11      0.09      0.00
    6    9   12      1.58      0.00
    6    9   13     -3.03      0.00
    6    9   14      0.50      0.00
    6    9   15     -2.96      0.00
    6    9   16      4.45      0.00
    7    9    0     10.38      0.00
    7    9    1      1.03      0.00
    7    9    2     15.94      0.00
    7    9    3      1.90      0.00
    7    9    4      1.33      0.00
    7    9    5      1.45      0.00
    7    9    6      1.99      0.00
    7    9    7      2.06      0.00
    7    9    8     -0.52      0.00
    7    9    9     -3.02      0.00
    7    9   10     -1.90      0.00
    7    9   11     -0.39      0.00
    7    9   12      0.95      0.00
    7    9   13     -2.01      0.00
    7    9   14     -0.09      0.00
    7    9   15      0.94      0.00
    7    9   16      5.38      0.00
    8    9    0     -8.02      0.00
    8    9    1     -6.31      0.00
    8    9    2     -1.06      0.00
    8    9    3      0.05      0.00
    8    9    4     -1.97      0.00
    8    9    5     -6.07      0.00
    8    9    6     -2.61      0.00
    8    9    7     -1.17      0.00
    8    9    8      9.28      0.00
    8    9    9      1.64      0.00
    8    9   10      1.12      0.00
    8    9   11     -3.46      0.00
    8    9   12     -4.57      0.00
    8    9   13      1.38      0.00
    8    9   14     -5.38      0.00
    8    9   15      0.30      0.00
    9    9    0     -2.32      0.00
    9    9    2     -1.11      0.00
    9    9    4     -6.70      0.00
    9    9    6      2.43      0.00
    9    9    8      3.14      0.00
    9    9   10     -0.87      0.00
    9    9   12     -7.06      0.00
    9    9   14     -4.38      0.00
    0   10    0     14.78      0.00
    0   10    1     22.94      0.00
    0   10    2     -4.23      0.00
    0   10    3     -1.51      0.00
    0   10    4     19.50      0.00
    0   10    5      5.21      0.00
    0   10    6      0.24      0.00
    0   10    7     -7.39      0.00
    0   10    8     -3.26      0.00
    0   10    9      2.13      0.00
    0   10   10     -1.81      0.00
    0   10   11      2.37      0.00
    0   10   12     -2.12      0.00
    0   10   13     -2.84      0.00
    0   10   14     -1.85      0.00
    0   10   15      2.94      0.00
    0   10   16     -2.51      0.00
    1   10    0     -3.83      0.00
    1   10    1      2.27      0.00
    1   10    2     -0.23      0.00
    1   10    3    -11.53      0.00
    1   10    4      5.27      0.00
    1   10    5      4.41      0.00
    1   10    6     -5.66      0.00
    1   10    7     -0.32      0.00
    1   10    8     -0.42      0.00
    1   10    9     -3.67      0.00
    1   10   10      5.44      0.00
    1   10   11      0.69      0.00
    1   10   12     -8.93      0.00
    1   10   13     -2.27      0.00
    1   10   14      0.73      0.00
    1   10   15      0.72      0.00
    1   10   16     -3.67      0.00
    2   10    0    -16.75      0.00
    2   10    1      3.84      0.00
    2   10    2     -7.25      0.00
    2   10    3     -4.13      0.00
    2   10    4     -0.32      0.00
    2   10    5     -1.42      0.00
    2   10    6      2.17      0.00
    2   10    7     -4.04      0.00
    2   10    8      0.25      0.00
    2   10    9     -0.63      0.00
    2   10   10     -1.11      0.00
    2   10   11     -2.82      0.00
    2   10   12      2.43      0.00
    2   10   13      4.60      0.00
    2   10   14      5.08      0.00
    2   10   15      4.35      0.00
    2   10   16      5.78      0.00
    3   10    0      7.12      0.00
    3   10    1      9.46      0.00
    3   10    2     -8.13      0.00
    3   10    3      3.26      0.00
    3   10    4     -0.79      0.00
    3   10    5      1.08      0.00
    3   10    6     -3.89      0.00
    3   10    7      0.25      0.00
    3   10    8      2.97      0.00
    3   10    9      0.46      0.00
    3   10   10      1.01      0.00
    3   10   11      1.56      0.00
    3   10   12     -8.39      0.00
    3   10   13     -9.95      0.00
    3   10   14      3.23      0.00
    3   10   15     -2.99      0.00
    3   10   16     -0.16      0.00
    4   10    0      2.17      0.00
    4   10    1     10.75      0.00
    4   10    2     -0.42      0.00
    4   10    3     -0.33      0.00
    4   10    4      2.31      0.00
    4   10    5     -1.23      0.00
    4   10    6      6.99      0.00
    4   10    7     -1.57      0.00
    4   10    8      0.32      0.00
    4   10    9      0.71      0.00
    4   10   10      2.62      0.00
    4   10   11     -0.17      0.00
    4   10   12      1.94      0.00
    4   10   13     -5.35      0.00
    4   10   14      3.96      0.00
    4   10   15      0.33      0.00
    4   10   16     -2.33      0.00
    5   10    0    -17.03      0.00
    5   10    1     -2.51      0.00
    5   10    2    -16.50      0.00
    5   10    3     -1.63      0.00
    5   10    4     -4.66      0.00
    5   10    5      2.23      0.00
    5   10    6     -2.41      0.00
    5   10    7      1.11      0.00
    5   10    8      0.77      0.00
    5   10    9     -4.72      0.00
    5   10   10      0.67      0.00
    5   10   11      3.63      0.00
    5   10   12     -0.82      0.00
    5   10   13     -3.41      0.00
    5   10   14      1.75      0.00
    5   10   15     -3.79      0.00
    5   10   16      0.33      0.00
    6   10    0     -9.52      0.00
    6   10    1     -0.25      0.00
    6   10    2     -1.94      0.00
    6   10    3     -3.11      0.00
    6   10    4     -3.93      0.00
    6   10    5      2.22      0.00
    6   10    6      0.33      0.00
    6   10    7      0.90      0.00
    6   10    8      1.19      0.00
    6   10    9     -0.89      0.00
    6   10   10      0.53      0.00
    6   10   11     -4.72      0.00
    6   10   12      3.95      0.00
    6   10   13     -1.76      0.00
    6   10   14     -1.15      0.00
    6   10   15     -0.20      0.00
    7   10    0     23.05      0.00
    7   10    1      6.64      0.00
    7   10    2      5.59      0.00
    7   10    3     -0.96      0.00
    7   10    4      5.41      0.00
    7   10    5     -0.35      0.00
    7   10    6     -0.78      0.00
    7   10    7      0.74      0.00
    7   10    8      2.91      0.00
    7   10    9      3.89      0.00
    7   10   10      1.27      0.00
    7   10   11     -2.54      0.00
    7   10   12      1.01      0.00
    7   10   13     -3.41      0.00
    7   10   14     -1.01      0.00
    7   10   15    -10.24      0.00
    8   10    0     10.25      0.00
    8   10    1     -0.17      0.00
    8   10    2      5.92      0.00
    8   10    3     -1.65      0.00
    8   10    4     -2.25      0.00
    8   10    5      1.88      0.00
    8   10    6     -2.56      0.00
    8   10    7      6.67      0.00
    8   10    8     -0.22      0.00
    8   10    9      4.73      0.00
    8   10   10      0.88      0.00
    8   10   11      0.69      0.00
    8   10   12     -2.61      0.00
    8   10   13      3.79      0.00
    8   10   14      3.35      0.00
    8   10   15     -0.40      0.00
    9   10    0     -7.75      0.00
    9   10    1     -9.17      0.00
    9   10    2     -1.86      0.00
    9   10    3      0.71      0.00
    9   10    4     -1.88      0.00
    9   10    5     -1.10      0.00
    9   10    6      0.59      0.00
    9   10    7     -2.67      0.00
    9   10    8      3.90      0.00
    9   10    9      0.72      0.00
    9   10   10      4.49      0.00
    9   10   11      1.33      0.00
    9   10   12     -5.74      0.00
    9   10   13      1.29      0.00
    9   10   14     -2.11      0.00
    9   10   15     -3.54      0.00
   10   10    0      0.38      0.00
   10   10    2     -5.41      0.00
   10   10    4     -1.63      0.00
   10   10    6     -1.79      0.00
   10   10    8     -0.63      0.00
   10   10   10     -2.67      0.00
   10   10   12     -0.12      0.00
   10   10   14     -2.32      0.00
    0   11    0    -24.64      0.00
    0   11    1      6.22      0.00
    0   11    2     17.40      0.00
    0   11    3      3.62      0.00
    0   11    4     -5.85      0.00
    0   11    5     -9.03      0.00
    0   11    6     -6.56      0.00
    0   11    7      1.22      0.00
    0   11    8    -18.15      0.00
    0   11    9      1.43      0.00
    0   11   10     -0.41      0.00
    0   11   11     -2.01      0.00
    0   11   12     -0.02      0.00
    0   11   13     -9.62      0.00
    0   11   14     -2.31      0.00
    0   11   15     -3.29      0.00
    0   11   16     11.69      0.00
    1   11    0      3.03      0.00
    1   11    1      5.62      0.00
    1   11    2     -7.35      0.00
    1   11    3      9.49      0.00
    1   11    4      1.19      0.00
    1   11    5      0.78      0.00
    1   11    6     -2.96      0.00
    1   11    7     -0.22      0.00
    1   11    8      3.77      0.00
    1   11    9     -8.01      0.00
    1   11   10      2.38      0.00
    1   11   11      0.22      0.00
    1   11   12     -8.76      0.00
    1   11   13      1.77      0.00
    1   11   14      1.07      0.00
    1   11   15     -6.54      0.00
    1   11   16     -2.61      0.00
    2   11    0      3.02      0.00
    2   11    1     -1.26      0.00
    2   11    2     -4.41      0.00
    2   11    3      0.56      0.00
    2   11    4      5.28      0.00
    2   11    5      8.74      0.00
    2   11    6      4.01      0.00
    2   11    7      1.03      0.00
    2   11    8      0.31      0.00
    2   11    9      4.07      0.00
    2   11   10      4.50      0.00
    2   11   11     -1.55      0.00
    2   11   12     -0.99      0.00
    2   11   13     -1.80      0.00
    2   11   14     -0.20      0.00
    2   11   15      0.14      0.00
    2   11   16      8.19      0.00
    3   11    0     12.53      0.00
    3   11    1      0.67      0.00
    3   11    2     -4.08      0.00
    3   11    3     -3.08      0.00
    3   11    4      4.96      0.00
    3   11    5      0.88      0.00
    3   11    6     -2.52      0.00
    3   11    7      4.44      0.00
    3   11    8      1.92      0.00
    3   11    9      1.44      0.00
    3   11   10      0.07      0.00
    3   11   11      2.83      0.00
    3   11   12     -9.43      0.00
    3   11   13      0.91      0.00
    3   11   14      6.89      0.00
    3   11   15     -0.67      0.00
    4   11    0      6.34      0.00
    4   11    1      7.11      0.00
    4   11    2      0.69      0.00
    4   11    3      4.81      0.00
    4   11    4      1.07      0.00
    4   11    5     -2.71      0.00
    4   11    6      2.72      0.00
    4   11    7     -5.09      0.00
    4   11    8     -0.13      0.00
    4   11    9     -0.10      0.00
    4   11   10     -2.19      0.00
    4   11   11     -2.42      0.00
    4   11   12     -4.10      0.00
    4   11   13    -10.21      0.00
    4   11   14     -1.65      0.00
    4   11   15     -0.81      0.00
    5   11    0     -4.21      0.00
    5   11    1     -4.39      0.00
    5   11    2     -6.12      0.00
    5   11    3      3.18      0.00
    5   11    4      7.51      0.00
    5   11    5     -4.30      0.00
    5   11    6     -0.53      0.00
    5   11    7      0.87      0.00
    5   11    8      0.91      0.00
    5   11    9     -2.14      0.00
    5   11   10     -0.50      0.00
    5   11   11      1.64      0.00
    5   11   12    -13.96      0.00
    5   11   13      0.88      0.00
    5   11   14     -8.43      0.00
    5   11   15      4.06      0.00
    6   11    0    -17.39      0.00
    6   11    1      5.45      0.00
    6   11    2    -11.36      0.00
    6   11    3     -6.76      0.00
    6   11    4     -0.40      0.00
    6   11    5      0.99      0.00
    6   11    6      1.95      0.00
    6   11    7     -4.35      0.00
    6   11    8     -1.95      0.00
    6   11    9     -7.10      0.00
    6   11   10     -1.37      0.00
    6   11   11      8.46      0.00
    6   11   12      0.52      0.00
    6   11   13      6.45      0.00
    6   11   14     -3.93      0.00
    6   11   15     -2.40      0.00
    7   11    0     -3.46      0.00
    7   11    1     11.24      0.00
    7   11    2     -3.76      0.00
    7   11    3     -1.11      0.00
    7   11    4      5.99      0.00
    7   11    5     -8.69      0.00
    7   11    6     -1.27      0.00
    7   11    7      3.91      0.00
    7   11    8      1.82      0.00
    7   11    9     -0.96      0.00
    7   11   10      4.85      0.00
    7   11   11     -0.81      0.00
    7   11   12     -0.77      0.00
    7   11   13     -0.73      0.00
    7   11   14      3.77      0.00
    7   11   15     -5.74      0.00
    8   11    0      2.40      0.00
    8   11    1     11.80      0.00
    8   11    2      7.22      0.00
    8   11    3      3.89      0.00
    8   11    4     -2.62      0.00
    8   11    5      0.83      0.00
    8   11    6     -1.58      0.00
    8   11    7     -0.64      0.00
    8   11    8      2.01      0.00
    8   11    9      3.42      0.00
    8   11   10     -2.24      0.00
    8   11   11     -3.68      0.00
    8   11   12      2.52      0.00
    8   11   13      1.63      0.00
    8   11   14      2.66      0.00
    8   11   15     -7.79      0.00
    9   11    0      4.13      0.00
    9   11    1     -4.77      0.00
    9   11    2     -3.51      0.00
    9   11    3      4.03      0.00
    9   11    4      0.57      0.00
    9   11    5     -0.37      0.00
    9   11    6     -3.05      0.00
    9   11    7      4.66      0.00
    9   11    8     -0.27      0.00
    9   11    9     -1.27      0.00
    9   11   10      0.38      0.00
    9   11   11     -3.89      0.00
    9   11   12      1.03      0.00
    9   11   13     -1.66      0.00
    9   11   14      2.86      0.00
    9   11   15      2.05      0.00
   10   11    0     -4.39      0.00
   10   11    1     -4.66      0.00
   10   11    2      1.53      0.00
   10   11    3     -3.24      0.00
   10   11    4      1.81      0.00
   10   11    5      4.29      0.00
   10   11    6      1.85      0.00
   10   11    7     -5.09      0.00
   10   11    8     -1.43      0.00
   10   11    9     -2.40      0.00
   10   11   10      5.07      0.00
   10   11   11      2.72      0.00
   10   11   12      9.30      0.00
   10   11   13     -0.95      0.00
   10   11   14      1.77      0.00
   11   11    0      2.32      0.00
   11   11    2     -6.64      0.00
   11   11    4      3.82      0.00
   11   11    6     -1.00      0.00
   11   11    8     -3.52      0.00
   11   11   10      1.91      0.00
   11   11   12      7.86      0.00
   11   11   14     -1.48      0.00
    0   12    0     21.23      0.00
    0   12    1      8.90      0.00
    0   12    2     -2.27      0.00
    0   12    3     -8.47      0.00
    0   12    4     -3.15      0.00
    0   12    5     -4.84      0.00
    0   12    6     -7.04      0.00
    0   12    7     -2.34      0.00
    0   12    8     -0.52      0.00
    0   12    9      1.61      0.00
    0   12   10     -1.07      0.00
    0   12   11      0.68      0.00
    0   12   12     -2.28      0.00
    0   12   13      1.21      0.00
    0   12   14     -1.81      0.00
    0   12   15    -10.49      0.00
    1   12    0     -2.73      0.00
    1   12    1     -0.43      0.00
    1   12    2      3.76      0.00
    1   12    3     12.27      0.00
    1   12    4      3.01      0.00
    1   12    5     -2.60      0.00
    1   12    6      5.18      0.00
    1   12    7     -0.94      0.00
    1   12    8     -3.46      0.00
    1   12    9      0.26      0.00
    1   12   10     -0.46      0.00
    1   12   11      0.77      0.00
    1   12   12      2.91      0.00
    1   12   13     -2.07      0.00
    1   12   14     -1.24      0.00
    1   12   15     -3.29      0.00
    2   12    0     -9.32      0.00
    2   12    1     -2.09      0.00
    2   12    2      6.49      0.00
    2   12    3      6.78      0.00
    2   12    4      5.66      0.00
    2   12    5      8.62      0.00
    2   12    6      5.63      0.00
    2   12    7      6.35      0.00
    2   12    8      1.00      0.00
    2   12    9     -3.05      0.00
    2   12   10     -0.52      0.00
    2   12   11     -4.62      0.00
    2   12   12     -4.02      0.00
    2   12   13      4.88      0.00
    2   12   14     -1.78      0.00
    2   12   15      1.40      0.00
    3   12    0      7.47      0.00
    3   12    1     -8.01      0.00
    3   12    2    -10.16      0.00
    3   12    3      8.60      0.00
    3   12    4     -3.02      0.00
    3   12    5     -5.83      0.00
    3   12    6     -2.29      0.00
    3   12    7      1.80      0.00
    3   12    8     -0.40      0.00
    3   12    9      1.46      0.00
    3   12   10     -3.51      0.00
    3   12   11      0.47      0.00
    3   12   12     -3.12      0.00
    3   12   13      0.07      0.00
    3   12   14      0.96      0.00
    3   12   15      1.32      0.00
    4   12    0     11.17      0.00
    4   12    1      1.43      0.00
    4   12    2     13.19      0.00
    4   12    3      3.85      0.00
    4   12    4     -5.37      0.00
    4   12    5     -0.92      0.00
    4   12    6     -2.59      0.00
    4   12    7      1.50      0.00
    4   12    8     -0.88      0.00
    4   12    9      0.72      0.00
    4   12   10     -2.28      0.00
    4   12   11     -2.30      0.00
    4   12   12     -8.25      0.00
    4   12   13     -1.08      0.00
    4   12   14     -5.38      0.00
    4   12   15      0.12      0.00
    5   12    0      7.77      0.00
    5   12    1      2.96      0.00
    5   12    2      6.91      0.00
    5   12    3      9.34      0.00
    5   12    4      4.72      0.00
    5   12    5      2.83      0.00
    5   12    6      0.61      0.00
    5   12    7      3.56      0.00
    5   12    8     -0.11      0.00
    5   12    9     -8.55      0.00
    5   12   10     -4.64      0.00
    5   12   11      0.46      0.00
    5   12   12     -1.62      0.00
    5   12   13      1.06      0.00
    5   12   14     -0.56      0.00
    5   12   15     -2.01      0.00
    6   12    0    -10.14      0.00
    6   12    1     -5.58      0.00
    6   12    2     -3.25      0.00
    6   12    3      4.55      0.00
    6   12    4      0.64      0.00
    6   12    5      3.76      0.00
    6   12    6     -0.65      0.00
    6   12    7     -3.40      0.00
    6   12    8      1.32      0.00
    6   12    9      1.83      0.00
    6   12   10     -1.54      0.00
    6   12   11      1.79      0.00
    6   12   12     -6.91      0.00
    6   12   13      4.79      0.00
    6   12   14     -9.60      0.00
    6   12   15     -0.14      0.00
    7   12    0      3.42      0.00
    7   12    1      6.09      0.00
    7   12    2     -6.78      0.00
    7   12    3     -5.89      0.00
    7   12    4      7.01      0.00
    7   12    5     -5.52      0.00
    7   12    6      0.47      0.00
    7   12    7      1.53      0.00
    7   12    8      0.99      0.00
    7   12    9     -1.95      0.00
    7   12   10      2.31      0.00
    7   12   11     -3.29      0.00
    7   12   12      3.28      0.00
    7   12   13      7.94      0.00
    7   12   14      0.48      0.00
    7   12   15     -0.23      0.00
    8   12    0      4.93      0.00
    8   12    1      5.23      0.00
    8   12    2      7.63      0.00
    8   12    3     -1.51      0.00
    8   12    4     -1.12      0.00
    8   12    5     -1.65      0.00
    8   12    6      5.31      0.00
    8   12    7     -2.48      0.00
    8   12    8      1.26      0.00
    8   12    9     -0.40      0.00
    8   12   10      3.78      0.00
    8   12   11     -2.37      0.00
    8   12   12     -6.99      0.00
    8   12   13     -0.72      0.00
    8   12   14     -1.41      0.00
    8   12   15      0.34      0.00
    9   12    0      0.37      0.00
    9   12    1      1.86      0.00
    9   12    2     -1.75      0.00
    9   12    3     -3.53      0.00
    9   12    4     -0.24      0.00
    9   12    5     -1.11      0.00
    9   12    6     -2.59      0.00
    9   12    7     -3.94      0.00
    9   12    8      0.83      0.00
    9   12    9     -1.66      0.00
    9   12   10      1.42      0.00
    9   12   11      0.81      0.00
    9   12   12     -1.68      0.00
    9   12   13      5.31      0.00
    9   12   14      1.22      0.00
   10   12    0      0.58      0.00
   10   12    1     -3.97      0.00
   10   12    2      0.03      0.00
   10   12    3     -6.83      0.00
   10   12    4      2.29      0.00
   10   12    5      2.27      0.00
   10   12    6      1.49      0.00
   10   12    7     -1.54      0.00
   10   12    8      1.85      0.00
   10   12    9      1.85      0.00
   10   12   10      1.75      0.00
   10   12   11     -2.20      0.00
   10   12   12      6.09      0.00
   10   12   13     -5.24      0.00
   10   12   14      1.70      0.00
   11   12    0      5.23      0.00
   11   12    1      3.12      0.00
   11   12    2     -0.23      0.00
   11   12    3      3.98      0.00
   11   12    4     -1.23      0.00
   11   12    5     -0.08      0.00
   11   12    6     -1.79      0.00
   11   12    7      4.53      0.00
   11   12    8     -0.17      0.00
   11   12    9     -1.16      0.00
   11   12   10     -5.67      0.00
   11   12   11     -1.49      0.00
   11   12   12     -4.39      0.00
   11   12   13      0.27      0.00
   11   12   14      5.08      0.00
   12   12    0    -13.55      0.00
   12   12    2      1.99      0.00
   12   12    4     -6.03      0.00
   12   12    6     -0.18      0.00
   12   12    8     -0.56      0.00
   12   12   10     -7.07      0.00
   12   12   14     -1.07      0.00
    0   13    0    -14.42      0.00
    0   13    1     -4.79      0.00
    0   13    2      4.55      0.00
    0   13    3     -3.97      0.00
    0   13    4    -11.05      0.00
    0   13    5     -3.91      0.00
    0   13    6     -2.18      0.00
    0   13    7     -2.66      0.00
    0   13    8     -2.65      0.00
    0   13    9     -1.21      0.00
    0   13   10      1.83      0.00
    0   13   11      5.73      0.00
    0   13   12      2.41      0.00
    0   13   13     -1.03      0.00
    0   13   14     -1.76      0.00
    0   13   15      8.35      0.00
    1   13    0      3.37      0.00
    1   13    1     14.08      0.00
    1   13    2      0.34      0.00
    1   13    3     -0.41      0.00
    1   13    4     -2.08      0.00
    1   13    5      0.03      0.00
    1   13    6      2.72      0.00
    1   13    7      0.19      0.00
    1   13    8     -3.78      0.00
    1   13    9      0.92      0.00
    1   13   10     -2.26      0.00
    1   13   11     -1.70      0.00
    1   13   12      2.61      0.00
    1   13   13      2.63      0.00
    1   13   14     -3.21      0.00
    1   13   15      6.27      0.00
    2   13    0      9.04      0.00
    2   13    1     -2.42      0.00
    2   13    2     -3.44      0.00
    2   13    3      1.68      0.00
    2   13    4      5.80      0.00
    2   13    5      3.28      0.00
    2   13    6      0.07      0.00
    2   13    7     -2.06      0.00
    2   13    8      6.39      0.00
    2   13    9     -1.59      0.00
    2   13   10      1.17      0.00
    2   13   11      2.45      0.00
    2   13   12     -6.65      0.00
    2   13   13      4.15      0.00
    2   13   14     -2.38      0.00
    2   13   15      4.33      0.00
    3   13    0     -7.37      0.00
    3   13    1     -7.27      0.00
    3   13    2      0.06      0.00
    3   13    3     -8.86      0.00
    3   13    4      0.95      0.00
    3   13    5      0.29      0.00
    3   13    6      2.29      0.00
    3   13    7      0.17      0.00
    3   13    8     -0.60      0.00
    3   13    9      4.58      0.00
    3   13   10     -2.49      0.00
    3   13   11     -2.17      0.00
    3   13   12      3.58      0.00
    3   13   13      0.43      0.00
    3   13   14      1.56      0.00
    3   13   15      0.62      0.00
    4   13    0      4.25      0.00
    4   13    1     -8.40      0.00
    4   13    2     -1.94      0.00
    4   13    3     -2.60      0.00
    4   13    4     -6.35      0.00
    4   13    5      0.29      0.00
    4   13    6     -3.04      0.00
    4   13    7      2.55      0.00
    4   13    8      2.04      0.00
    4   13    9      5.28      0.00
    4   13   10      0.38      0.00
    4   13   11     -0.81      0.00
    4   13   12      1.00      0.00
    4   13   13     -0.32      0.00
    4   13   14      3.97      0.00
    4   13   15      5.40      0.00
    5   13    0     10.28      0.00
    5   13    1     -2.92      0.00
    5   13    2     13.24      0.00
    5   13    3      3.49      0.00
    5   13    4     -3.53      0.00
    5   13    5      1.88      0.00
    5   13    6      0.11      0.00
    5   13    7     -3.29      0.00
    5   13    8     -0.08      0.00
    5   13    9     -1.41      0.00
    5   13   10     -0.54      0.00
    5   13   11     -2.48      0.00
    5   13   12      0.64      0.00
    5   13   13     -1.26      0.00
    5   13   14     -0.34      0.00
    5   13   15      0.04      0.00
    6   13    0      4.93      0.00
    6   13    1     -5.38      0.00
    6   13    2     -0.69      0.00
    6   13    3     -0.98      0.00
    6   13    4      1.92      0.00
    6   13    5      0.02      0.00
    6   13    6     -5.78      0.00
    6   13    7      4.34      0.00
    6   13    8     -3.63      0.00
    6   13    9     -3.90      0.00
    6   13   10      1.10      0.00
    6   13   11      0.77      0.00
    6   13   12      4.42      0.00
    6   13   13      3.52      0.00
    6   13   14      2.24      0.00
    6   13   15      5.74      0.00
    7   13    0     -2.64      0.00
    7   13    1     -4.95      0.00
    7   13    2      1.08      0.00
    7   13    3      1.47      0.00
    7   13    4     -8.59      0.00
    7   13    5      3.92      0.00
    7   13    6      0.92      0.00
    7   13    7     -0.59      0.00
    7   13    8     -1.29      0.00
    7   13    9     -0.82      0.00
    7   13   10      2.56      0.00
    7   13   11      1.97      0.00
    7   13   12     -5.47      0.00
    7   13   13      0.37      0.00
    7   13   14      0.35      0.00
    8   13    0      4.05      0.00
    8   13    1     -2.33      0.00
    8   13    2      2.80      0.00
    8   13    3     -2.81      0.00
    8   13    4     -2.60      0.00
    8   13    5      0.16      0.00
    8   13    6      4.36      0.00
    8   13    7      1.98      0.00
    8   13    8      2.44      0.00
    8   13    9      4.85      0.00
    8   13   10     -1.26      0.00
    8   13   11     -7.48      0.00
    8   13   12     -4.62      0.00
    8   13   13      2.35      0.00
    8   13   14     -3.78      0.00
    9   13    0     -0.97      0.00
    9   13    1     -0.56      0.00
    9   13    2     -4.67      0.00
    9   13    3     -2.23      0.00
    9   13    4     -6.95      0.00
    9   13    5      2.78      0.00
    9   13    6      0.89      0.00
    9   13    7      3.49      0.00
    9   13    8      4.59      0.00
    9   13    9      0.99      0.00
    9   13   10     -1.75      0.00
    9   13   11      5.03      0.00
    9   13   12     -9.79      0.00
    9   13   13      4.21      0.00
    9   13   14     -1.58      0.00
   10   13    0     -0.52      0.00
   10   13    1      3.52      0.00
   10   13    2      0.30      0.00
   10   13    3      0.65      0.00
   10   13    4      1.38      0.00
   10   13    5     -0.37      0.00
   10   13    6      1.69      0.00
   10   13    7      0.17      0.00
   10   13    8     -1.20      0.00
   10   13    9      0.91      0.00
   10   13   10      4.05      0.00
   10   13   11      3.89      0.00
   10   13   12      6.47      0.00
   10   13   13      3.77      0.00
   10   13   14     -3.12      0.00
   11   13    0      5.56      0.00
   11   13    1      1.09      0.00
   11   13    2     -1.35      0.00
   11   13    3     -2.49      0.00
   11   13    4      3.66      0.00
   11   13    5     -2.33      0.00
   11   13    6      0.12      0.00
   11   13    7     -1.76      0.00
   11   13    8     -1.07      0.00
   11   13    9     -2.11      0.00
   11   13   10      1.61      0.00
   11   13   11     -0.12      0.00
   11   13   12     -2.72      0.00
   11   13   13     -2.10      0.00
   11   13   14      0.56      0.00
   12   13    0      1.05      0.00
   12   13    1      0.28      0.00
   12   13    2     -1.42      0.00
   12   13    3     -0.17      0.00
   12   13    4     -8.90      0.00
   12   13    5      0.49      0.00
   12   13    6     -1.64      0.00
   12   13    7      1.68      0.00
   12   13    8      2.42      0.00
   12   13    9      1.92      0.00
   12   13   10     -3.86      0.00
   12   13   11     -5.08      0.00
   12   13   13     -1.76      0.00
   13   13    0      1.72      0.00
   13   13    2     -4.38      0.00
   13   13    4      1.14      0.00
   13   13    6      2.62      0.00
   13   13    8      7.09      0.00
   13   13   10      4.20      0.00
   13   13   12     -2.29      0.00
    0   14    0     13.39      0.00
    0   14    1      4.41      0.00
    0   14    2    -15.03      0.00
    0   14    3     -2.82      0.00
    0   14    4     -3.07      0.00
    0   14    5      0.30      0.00
    0   14    6     -5.41      0.00
    0   14    7     -2.69      0.00
    0   14    8      6.43      0.00
    0   14    9      0.69      0.00
    0   14   10     -0.17      0.00
    0   14   11     -0.61      0.00
    0   14   12     -0.30      0.00
    0   14   13      4.30      0.00
    0   14   14      2.49      0.00
    1   14    0     -8.58      0.00
    1   14    1     -1.43      0.00
    1   14    2      3.07      0.00
    1   14    3     -5.36      0.00
    1   14    4     -1.93      0.00
    1   14    5      4.86      0.00
    1   14    6     -5.20      0.00
    1   14    7     -1.07      0.00
    1   14    8      0.65      0.00
    1   14    9      1.92      0.00
    1   14   10      1.48      0.00
    1   14   11     -0.21      0.00
    1   14   12     -0.30      0.00
    1   14   13     -0.40      0.00
    1   14   14     -4.15      0.00
    2   14    0     -0.48      0.00
    2   14    1      1.56      0.00
    2   14    2      2.56      0.00
    2   14    3      5.89      0.00
    2   14    4      4.23      0.00
    2   14    5      1.85      0.00
    2   14    6      0.11      0.00
    2   14    7     -0.34      0.00
    2   14    8     -3.15      0.00
    2   14    9     -4.11      0.00
    2   14   10     -0.54      0.00
    2   14   11      1.97      0.00
    2   14   12     -1.81      0.00
    2   14   13     -4.95      0.00
    2   14   14      5.01      0.00
    3   14    0      0.47      0.00
    3   14    1     -5.82      0.00
    3   14    2      5.52      0.00
    3   14    3     -3.72      0.00
    3   14    4      1.04      0.00
    3   14    5      1.05      0.00
    3   14    6      0.81      0.00
    3   14    7     -1.31      0.00
    3   14    8      0.70      0.00
    3   14    9      3.19      0.00
    3   14   10      1.41      0.00
    3   14   11     -0.88      0.00
    3   14   12     -2.93      0.00
    3   14   13     -3.91      0.00
    3   14   14      0.79      0.00
    4   14    0      3.75      0.00
    4   14    1      0.75      0.00
    4   14    2      2.94      0.00
    4   14    3     -3.71      0.00
    4   14    4      3.88      0.00
    4   14    5     -4.18      0.00
    4   14    6     -1.15      0.00
    4   14    7      1.20      0.00
    4   14    8     -0.78      0.00
    4   14    9      0.49      0.00
    4   14   10     -1.59      0.00
    4   14   11     -0.18      0.00
    4   14   12      1.19      0.00
    4   14   13     -2.08      0.00
    4   14   14      3.02      0.00
    5   14    0     -4.62      0.00
    5   14    1     -0.16      0.00
    5   14    2      7.21      0.00
    5   14    3     -5.82      0.00
    5   14    4     -0.57      0.00
    5   14    5      0.96      0.00
    5   14    6      0.44      0.00
    5   14    7     -1.94      0.00
    5   14    8      1.00      0.00
    5   14    9      2.45      0.00
    5   14   10      0.59      0.00
    5   14   11      2.03      0.00
    5   14   12     -0.27      0.00
    5   14   13      0.04      0.00
    5   14   14     -5.38      0.00
    6   14    0     -0.66      0.00
    6   14    1     -1.67      0.00
    6   14    2     -5.65      0.00
    6   14    3     -1.56      0.00
    6   14    4      0.83      0.00
    6   14    5     -1.83      0.00
    6   14    6     -1.36      0.00
    6   14    7      0.60      0.00
    6   14    8      1.70      0.00
    6   14    9     -1.16      0.00
    6   14   10      0.62      0.00
    6   14   11     -1.16      0.00
    6   14   12      1.37      0.00
    6   14   13     -2.57      0.00
    6   14   14      1.98      0.00
    7   14    0     -6.52      0.00
    7   14    1     -6.57      0.00
    7   14    2      0.46      0.00
    7   14    3     -2.89      0.00
    7   14    4     -3.14      0.00
    7   14    5      4.01      0.00
    7   14    6      0.46      0.00
    7   14    7      0.55      0.00
    7   14    8     -3.41      0.00
    7   14    9      4.76      0.00
    7   14   10      0.96      0.00
    7   14   11     -1.84      0.00
    7   14   12      1.27      0.00
    7   14   13     -0.18      0.00
    7   14   14      1.63      0.00
    8   14    0      5.61      0.00
    8   14    1     -0.68      0.00
    8   14    2     -1.19      0.00
    8   14    3      1.53      0.00
    8   14    4     -5.64      0.00
    8   14    5      1.29      0.00
    8   14    6     -1.35      0.00
    8   14    7      2.95      0.00
    8   14    8     -1.52      0.00
    8   14    9     -1.82      0.00
    8   14   10      0.55      0.00
    8   14   11      2.82      0.00
    8   14   12     -6.72      0.00
    8   14   13     -3.24      0.00
    8   14   14      2.89      0.00
    9   14    0     -2.04      0.00
    9   14    1      1.18      0.00
    9   14    2     -0.03      0.00
    9   14    3      0.09      0.00
    9   14    4     -2.73      0.00
    9   14    5     10.33      0.00
    9   14    6      1.53      0.00
    9   14    7     -2.84      0.00
    9   14    8      1.66      0.00
    9   14    9      4.69      0.00
    9   14   10      1.94      0.00
    9   14   11      5.36      0.00
    9   14   12      3.50      0.00
    9   14   13     -2.76      0.00
    9   14   14     -2.47      0.00
   10   14    0      4.19      0.00
   10   14    1      0.66      0.00
   10   14    2    -12.58      0.00
   10   14    3      3.04      0.00
   10   14    4     -2.76      0.00
   10   14    5      0.21      0.00
   10   14    6     -3.08      0.00
   10   14    7      5.02      0.00
   10   14    8      2.90      0.00
   10   14    9      0.73      0.00
   10   14   10     -0.88      0.00
   10   14   11      1.09      0.00
   10   14   12     -1.40      0.00
   10   14   13      3.09      0.00
   10   14   14      0.31      0.00
   11   14    0      2.42      0.00
   11   14    1     -1.60      0.00
   11   14    2      4.02      0.00
   11   14    3     -1.66      0.00
   11   14    4     -0.62      0.00
   11   14    5     -1.46      0.00
   11   14    6      0.30      0.00
   11   14    7     -1.15      0.00
   11   14    8     -2.37      0.00
   11   14    9      0.36      0.00
   11   14   10     -0.61      0.00
   11   14   11     -5.13      0.00
   11   14   12      8.32      0.00
   11   14   13     -1.81      0.00
   12   14    0      2.21      0.00
   12   14    1      0.08      0.00
   12   14    2     -0.58      0.00
   12   14    3      5.38      0.00
   12   14    4     -0.52      0.00
   12   14    5     -4.37      0.00
   12   14    6     -0.29      0.00
   12   14    7     -0.91      0.00
   12   14    8      1.27      0.00
   12   14    9     -2.54      0.00
   12   14   10      2.79      0.00
   12   14   11     -0.10      0.00
   12   14   12      1.24      0.00
   12   14   13      1.07      0.00
   13   14    0     -4.46      0.00
   13   14    1     -2.67      0.00
   13   14    2      8.05      0.00
   13   14    3     -2.14      0.00
   13   14    4     -3.56      0.00
   13   14    5      2.07      0.00
   13   14    6      2.59      0.00
   13   14    7      0.37      0.00
   13   14    8     -3.67      0.00
   13   14    9      0.09      0.00
   13   14   10      3.98      0.00
   13   14   11      0.29      0.00
   13   14   13      0.61      0.00
   14   14    0      4.73      0.00
   14   14    2     -4.27      0.00
   14   14    4     -1.58      0.00
   14   14    6      1.25      0.00
   14   14    8     -1.70      0.00
   14   14   10      2.15      0.00
   14   14   12      1.82      0.00
    0   15    0      2.32      0.00
    0   15    1     -1.48      0.00
    0   15    2      3.89      0.00
    0   15    3      6.66      0.00
    0   15    4      7.85      0.00
    0   15    5     -0.25      0.00
    0   15    6      2.15      0.00
    0   15    7      7.12      0.00
    0   15    8     -0.18      0.00
    0   15    9      1.91      0.00
    0   15   10     -2.62      0.00
    0   15   11     -1.46      0.00
    0   15   12      5.22      0.00
    0   15   13     -0.24      0.00
    0   15   14     -0.16      0.00
    1   15    0      7.95      0.00
    1   15    1     -4.18      0.00
    1   15    2      6.98      0.00
    1   15    3      2.45      0.00
    1   15    4      0.87      0.00
    1   15    5      2.98      0.00
    1   15    6     -0.87      0.00
    1   15    7      1.53      0.00
    1   15    8      2.34      0.00
    1   15    9     -2.18      0.00
    1   15   10      1.19      0.00
    1   15   11      0.97      0.00
    1   15   12     -1.34      0.00
    1   15   13     -2.28      0.00
    1   15   14      5.10      0.00
    2   15    0      5.83      0.00
    2   15    1     -4.25      0.00
    2   15    2     -4.43      0.00
    2   15    3      2.80      0.00
    2   15    4      1.80      0.00
    2   15    5     -3.91      0.00
    2   15    6     -3.55      0.00
    2   15    7     -0.10      0.00
    2   15    8     -2.42      0.00
    2   15    9     -4.11      0.00
    2   15   10     -3.51      0.00
    2   15   11     -1.27      0.00
    2   15   12     -2.75      0.00
    2   15   13     -0.99      0.00
    2   15   14      0.82      0.00
    3   15    0     -2.38      0.00
    3   15    1     -3.22      0.00
    3   15    2     -2.01      0.00
    3   15    3      0.54      0.00
    3   15    4      0.03      0.00
    3   15    5      2.23      0.00
    3   15    6     -5.15      0.00
    3   15    7     -2.97      0.00
    3   15    8      0.74      0.00
    3   15    9     -0.09      0.00
    3   15   10     -1.52      0.00
    3   15   11     -1.34      0.00
    3   15   12      1.60      0.00
    3   15   13     -4.39      0.00
    3   15   14     -2.18      0.00
    4   15    0     -3.96      0.00
    4   15    1      1.45      0.00
    4   15    2     -3.88      0.00
    4   15    3     -0.32      0.00
    4   15    4     -1.67      0.00
    4   15    5      0.57      0.00
    4   15    6     -0.95      0.00
    4   15    7      0.62      0.00
    4   15    8     -1.36      0.00
    4   15    9      1.47      0.00
    4   15   10      0.25      0.00
    4   15   11      0.49      0.00
    4   15   12     -0.85      0.00
    4   15   13      1.24      0.00
    4   15   14     -2.98      0.00
    5   15    0     -1.10      0.00
    5   15    1      7.71      0.00
    5   15    2     -1.39      0.00
    5   15    3     -0.24      0.00
    5   15    4     -0.18      0.00
    5   15    5      0.05      0.00
    5   15    6      2.08      0.00
    5   15    7      1.24      0.00
    5   15    8     -0.05      0.00
    5   15    9      0.29      0.00
    5   15   10     -1.01      0.00
    5   15   11      0.43      0.00
    5   15   12     -0.22      0.00
    5   15   13      0.50      0.00
    5   15   14     -7.46      0.00
    6   15    0     -0.91      0.00
    6   15    1      7.52      0.00
    6   15    2      1.18      0.00
    6   15    3      4.49      0.00
    6   15    4     10.51      0.00
    6   15    5     -1.73      0.00
    6   15    6      3.03      0.00
    6   15    7      2.41      0.00
    6   15    8      1.74      0.00
    6   15    9     -3.59      0.00
    6   15   10      1.15      0.00
    6   15   11      0.86      0.00
    6   15   12     -2.38      0.00
    6   15   13     -0.71      0.00
    6   15   14     -1.40      0.00
    7   15    0     -0.15      0.00
    7   15    1      4.60      0.00
    7   15    2      3.52      0.00
    7   15    3     -1.81      0.00
    7   15    4     -0.44      0.00
    7   15    5     -0.68      0.00
    7   15    6      1.75      0.00
    7   15    7     -1.33      0.00
    7   15    8      1.77      0.00
    7   15    9      2.22      0.00
    7   15   10     -1.47      0.00
    7   15   11     -3.58      0.00
    7   15   12      0.35      0.00
    7   15   13     -4.56      0.00
    7   15   14     -6.59      0.00
    8   15    0     -0.07      0.00
    8   15    1     -2.61      0.00
    8   15    2      1.57      0.00
    8   15    3     -4.52      0.00
    8   15    4      1.23      0.00
    8   15    5      1.05      0.00
    8   15    6      2.15      0.00
    8   15    7     -1.25      0.00
    8   15    8      0.11      0.00
    8   15    9      4.64      0.00
    8   15   10      0.02      0.00
    8   15   11      0.40      0.00
    8   15   12     -0.87      0.00
    8   15   13      3.75      0.00
    8   15   14      0.76      0.00
    9   15    0     -1.44      0.00
    9   15    1     -2.56      0.00
    9   15    2      2.51      0.00
    9   15    3     -1.56      0.00
    9   15    4     -5.11      0.00
    9   15    5      2.75      0.00
    9   15    6      0.38      0.00
    9   15    7      0.90      0.00
    9   15    8      7.51      0.00
    9   15    9      1.23      0.00
    9   15   10     -2.36      0.00
    9   15   11     -0.66      0.00
    9   15   12      3.97      0.00
    9   15   13      0.09      0.00
   10   15    0      0.02      0.00
   10   15    1     -5.00      0.00
   10   15    2     -1.64      0.00
   10   15    3     -0.92      0.00
   10   15    4      0.48      0.00
   10   15    5      0.89      0.00
   10   15    6      0.22      0.00
   10   15    7     -0.97      0.00
   10   15    8     -1.99      0.00
   10   15    9      0.11      0.00
   10   15   10     -1.89      0.00
   10   15   11      1.86      0.00
   10   15   12      6.34      0.00
   10   15   13      1.14      0.00
   11   15    0     -2.02      0.00
   11   15    1      0.96      0.00
   11   15    2      3.21      0.00
   11   15    3     -0.62      0.00
   11   15    4     -5.35      0.00
   11   15    5      0.17      0.00
   11   15    6     -3.06      0.00
   11   15    7     -1.37      0.00
   11   15    8     -2.63      0.00
   11   15    9      0.53      0.00
   11   15   10     -4.43      0.00
   11   15   11     -1.62      0.00
   11   15   12      0.97      0.00
   11   15   13     -2.14      0.00
   12   15    0     10.87      0.00
   12   15    1      2.65      0.00
   12   15    2     -1.88      0.00
   12   15    3     -0.17      0.00
   12   15    4      1.83      0.00
   12   15    5      1.46      0.00
   12   15    6     -1.33      0.00
   12   15    7     -1.55      0.00
   12   15    8     -0.37      0.00
   12   15    9     -1.55      0.00
   12   15   10     -1.75      0.00
   12   15   11     -1.18      0.00
   12   15   12      1.67      0.00
   13   15    0     -4.16      0.00
   13   15    1      4.83      0.00
   13   15    2      1.26      0.00
   13   15    3      5.02      0.00
   13   15    4     -0.17      0.00
   13   15    5      4.79      0.00
   13   15    6     -0.41      0.00
   13   15    7      4.53      0.00
   13   15    8      0.05      0.00
   13   15    9      0.76      0.00
   13   15   10     -2.82      0.00
   13   15   11      5.46      0.00
   13   15   12      0.97      0.00
   14   15    0     -0.11      0.00
   14   15    1     -3.43      0.00
   14   15    2    -10.17      0.00
   14   15    3     -0.37      0.00
   14   15    4     -1.59      0.00
   14   15    5     -0.90      0.00
   14   15    6    -10.47      0.00
   14   15    7      0.33      0.00
   14   15    8     -3.43      0.00
   14   15    9     -2.27      0.00
   14   15   10      2.62      0.00
   14   15   11     -2.96      0.00
   14   15   12      4.66      0.00
   15   15    0      0.63      0.00
   15   15    2      0.85      0.00
   15   15    4     -2.92      0.00
   15   15    6     -1.87      0.00
   15   15    8      5.64      0.00
   15   15   10     -5.00      0.00
    0   16    0      3.22      0.00
    0   16    1     -2.11      0.00
    0   16    2     -6.15      0.00
    0   16    3     -4.49      0.00
    0   16    4      3.06      0.00
    0   16    5     -1.75      0.00
    0   16    6      0.08      0.00
    0   16    7      2.89      0.00
    0   16    8     -1.60      0.00
    0   16    9      2.58      0.00
    0   16   10      3.31      0.00
    0   16   11     -5.27      0.00
    0   16   12      3.04      0.00
    0   16   13      3.19      0.00
    1   16    0      2.65      0.00
    1   16    1     -0.89      0.00
    1   16    2     -5.40      0.00
    1   16    3     -1.18      0.00
    1   16    4     -2.37      0.00
    1   16    5     -0.52      0.00
    1   16    6      1.48      0.00
    1   16    7     -1.95      0.00
    1   16    8     -1.53      0.00
    1   16    9     -1.46      0.00
    1   16   10     -1.04      0.00
    1   16   11      1.03      0.00
    1   16   12      0.36      0.00
    1   16   13      2.52      0.00
    2   16    0     -1.81      0.00
    2   16    1     -0.24      0.00
    2   16    2      3.83      0.00
    2   16    3      1.24      0.00
    2   16    4     -3.34      0.00
    2   16    5     -0.61      0.00
    2   16    6      3.29      0.00
    2   16    7      0.76      0.00
    2   16    8     -1.91      0.00
    2   16    9      1.35      0.00
    2   16   10      4.48      0.00
    2   16   11      2.09      0.00
    2   16   12      0.81      0.00
    2   16   13     -3.71      0.00
    3   16    0      4.87      0.00
    3   16    1      2.10      0.00
    3   16    2      2.48      0.00
    3   16    3      3.68      0.00
    3   16    4     -3.81      0.00
    3   16    5      2.45      0.00
    3   16    6      3.79      0.00
    3   16    7      0.19      0.00
    3   16    8      0.03      0.00
    3   16    9     -3.10      0.00
    3   16   10     -2.16      0.00
    3   16   11      1.13      0.00
    3   16   12     -1.51      0.00
    3   16   13      2.11      0.00
    4   16    0      5.73      0.00
    4   16    1     -5.94      0.00
    4   16    2     -2.07      0.00
    4   16    3     -0.64      0.00
    4   16    4      0.50      0.00
    4   16    5     -2.77      0.00
    4   16    6      1.23      0.00
    4   16    7      0.42      0.00
    4   16    8      2.83      0.00
    4   16    9     -1.36      0.00
    4   16   10      0.04      0.00
    4   16   11     -0.50      0.00
    4   16   12      1.33      0.00
    4   16   13      2.48      0.00
    5   16    0     -1.64      0.00
    5   16    1     -1.52      0.00
    5   16    2     -4.75      0.00
    5   16    3     -1.64      0.00
    5   16    4     -1.22      0.00
    5   16    5      0.25      0.00
    5   16    6     -2.44      0.00
    5   16    7      1.57      0.00
    5   16    8      1.38      0.00
    5   16    9     -0.46      0.00
    5   16   10     -3.45      0.00
    5   16   11      0.55      0.00
    5   16   12      2.95      0.00
    5   16   13      2.78      0.00
    6   16    0      3.53      0.00
    6   16    1     -2.52      0.00
    6   16    2      0.49      0.00
    6   16    3     -0.77      0.00
    6   16    4     -1.66      0.00
    6   16    5      2.03      0.00
    6   16    6      2.12      0.00
    6   16    7      1.40      0.00
    6   16    8      3.03      0.00
    6   16    9     -0.84      0.00
    6   16   10     -1.27      0.00
    6   16   11      0.53      0.00
    6   16   12      1.13      0.00
    6   16   13      3.17      0.00
    7   16    0     -0.72      0.00
    7   16    1     -0.96      0.00
    7   16    2      0.22      0.00
    7   16    3     -0.45      0.00
    7   16    4      0.33      0.00
    7   16    5     -3.65      0.00
    7   16    6      1.66      0.00
    7   16    7      0.21      0.00
    7   16    8     -0.43      0.00
    7   16    9      1.62      0.00
    7   16   10     -2.74      0.00
    7   16   11     -4.30      0.00
    7   16   12      0.94      0.00
    7   16   13      6.08      0.00
    8   16    0     -0.83      0.00
    8   16    1      1.83      0.00
    8   16    2     -0.18      0.00
    8   16    3     -1.81      0.00
    8   16    4     -3.80      0.00
    8   16    5     -0.72      0.00
    8   16    6     -2.94      0.00
    8   16    7     -1.92      0.00
    8   16    8      0.33      0.00
    8   16    9     -1.63      0.00
    8   16   10      1.45      0.00
    8   16   11      2.49      0.00
    8   16   12     -5.09      0.00
    8   16   13      2.25      0.00
    9   16    0      4.31      0.00
    9   16    1      4.43      0.00
    9   16    2     -1.12      0.00
    9   16    3      1.46      0.00
    9   16    4      3.58      0.00
    9   16    5      0.32      0.00
    9   16    6      4.01      0.00
    9   16    7     -1.69      0.00
    9   16    8      0.61      0.00
    9   16    9     -1.85      0.00
    9   16   10     -0.13      0.00
    9   16   11     -2.07      0.00
    9   16   12      2.02      0.00
    9   16   13      1.54      0.00
   10   16    0     -4.03      0.00
   10   16    1     -2.28      0.00
   10   16    2      1.26      0.00
   10   16    3     -0.31      0.00
   10   16    4     -1.59      0.00
   10   16    5      3.53      0.00
   10   16    6      0.52      0.00
   10   16    7      0.99      0.00
   10   16    8      0.72      0.00
   10   16    9     -1.00      0.00
   10   16   10     -0.63      0.00
   10   16   11     -1.37      0.00
   10   16   12     -3.24      0.00
   10   16   13      5.01      0.00
   11   16    0     -3.85      0.00
   11   16    1     -4.95      0.00
   11   16    2     -0.03      0.00
   11   16    3     -3.92      0.00
   11   16    4     -4.58      0.00
   11   16    5     -2.03      0.00
   11   16    6     -0.51      0.00
   11   16    7     -0.84      0.00
   11   16    8      1.46      0.00
   11   16    9      2.22      0.00
   11   16   10     -6.97      0.00
   11   16   11     -1.17      0.00
   11   16   12      4.28      0.00
   12   16    0     -0.56      0.00
   12   16    1      0.75      0.00
   12   16    2      9.63      0.00
   12   16    3     -0.16      0.00
   12   16    4      4.44      0.00
   12   16    5     -2.61      0.00
   12   16    6      2.47      0.00
   12   16    7      2.84      0.00
   12   16    8      0.97      0.00
   12   16    9     -1.11      0.00
   12   16   10     -1.77      0.00
   12   16   11     10.67      0.00
   12   16   12     -0.84      0.00
   13   16    0     -1.14      0.00
   13   16    1      2.14      0.00
   13   16    2     10.21      0.00
   13   16    3     -0.58      0.00
   13   16    4     -0.42      0.00
   13   16    5     -2.35      0.00
   13   16    6      1.88      0.00
   13   16    7     -3.24      0.00
   13   16    8      0.17      0.00
   13   16    9     -2.97      0.00
   13   16   10     -4.87      0.00
   13   16   11      2.24      0.00
   14   16    0     -1.84      0.00
   14   16    1      0.91      0.00
   14   16    2      2.37      0.00
   14   16    3     -0.71      0.00
   14   16    4      2.70      0.00
   14   16    5      2.89      0.00
   14   16    6      2.52      0.00
   14   16    7      6.39      0.00
   14   16    8      0.29      0.00
   14   16    9     -3.65      0.00
   14   16   10     -1.86      0.00
   14   16   11     -0.10      0.00
   15   16    0      6.63      0.00
   15   16    1      1.49      0.00
   15   16    2    -10.51      0.00
   15   16    3     -1.70      0.00
   15   16    4     -0.29      0.00
   15   16    5      1.01      0.00
   15   16    6    -10.93      0.00
   15   16    7     -2.67      0.00
   15   16    8      1.74      0.00
   15   16    9      3.03      0.00
   15   16   10     -0.87      0.00
   15   16   11     -4.27      0.00
   16   16    0      4.74      0.00
   16   16    2     -3.90      0.00
   16   16    4     -0.86      0.00
   16   16    6     -3.40      0.00
   16   16    8      2.07      0.00
   16   16   10      0.81      0.00
    0   17    0     -5.83      0.00
    0   17    1      5.15      0.00
    0   17    2      1.27      0.00
    0   17    3     -0.09      0.00
    0   17    4     -2.13      0.00
    0   17    5      3.91      0.00
    0   17    6     -0.68      0.00
    0   17    7     -1.70      0.00
    0   17    8      0.62      0.00
    0   17    9      0.76      0.00
    0   17   10      6.98      0.00
    0   17   11      2.41      0.00
    0   17   12     -2.35      0.00
    0   17   13     -4.79      0.00
    1   17    0     -6.91      0.00
    1   17    1      4.62      0.00
    1   17    2     -1.97      0.00
    1   17    3     -1.90      0.00
    1   17    4     -4.18      0.00
    1   17    5     -0.75      0.00
    1   17    6      4.70      0.00
    1   17    7     -1.82      0.00
    1   17    8     -3.15      0.00
    1   17    9      1.59      0.00
    1   17   10      5.63      0.00
    1   17   11     -2.52      0.00
    1   17   12     -2.18      0.00
    1   17   13      1.25      0.00
    2   17    0      0.52      0.00
    2   17    1      0.30      0.00
    2   17    2      3.41      0.00
    2   17    3     -5.36      0.00
    2   17    4     -2.76      0.00
    2   17    5      3.27      0.00
    2   17    6     -0.16      0.00
    2   17    7     -3.66      0.00
    2   17    8     -0.02      0.00
    2   17    9     -1.53      0.00
    2   17   10      1.48      0.00
    2   17   11      1.03      0.00
    2   17   12     -1.27      0.00
    2   17   13     -1.93      0.00
    3   17    0      2.96      0.00
    3   17    1      2.04      0.00
    3   17    2      0.83      0.00
    3   17    3      1.92      0.00
    3   17    4      2.68      0.00
    3   17    5     -0.65      0.00
    3   17    6      1.15      0.00
    3   17    7     -4.89      0.00
    3   17    8      4.35      0.00
    3   17    9      1.81      0.00
    3   17   10     -2.09      0.00
    3   17   11     -1.60      0.00
    3   17   12     -0.56      0.00
    3   17   13      3.21      0.00
    4   17    0     -0.75      0.00
    4   17    1     -4.01      0.00
    4   17    2      4.78      0.00
    4   17    3     -4.37      0.00
    4   17    4      0.22      0.00
    4   17    5      2.71      0.00
    4   17    6     -1.12      0.00
    4   17    7     -1.46      0.00
    4   17    8     -0.41      0.00
    4   17    9      1.25      0.00
    4   17   10     -5.32      0.00
    4   17   11      0.06      0.00
    4   17   12     -0.51      0.00
    4   17   13     -1.05      0.00
    5   17    0      2.27      0.00
    5   17    1     -7.93      0.00
    5   17    2      0.87      0.00
    5   17    3     -2.53      0.00
    5   17    4      1.10      0.00
    5   17    5     -1.52      0.00
    5   17    6      4.65      0.00
    5   17    7     -0.52      0.00
    5   17    8     -0.61      0.00
    5   17    9     -6.43      0.00
    5   17   10     -0.43      0.00
    5   17   11      1.75      0.00
    5   17   12     -3.71      0.00
    5   17   13      1.45      0.00
    6   17    0      6.54      0.00
    6   17    1     -5.33      0.00
    6   17    2      3.56      0.00
    6   17    3      2.04      0.00
    6   17    4      0.49      0.00
    6   17    5      1.63      0.00
    6   17    6     -1.22      0.00
    6   17    7     -1.66      0.00
    6   17    8      1.40      0.00
    6   17    9     -1.17      0.00
    6   17   10     -3.02      0.00
    6   17   11     -0.27      0.00
    6   17   12      1.23      0.00
    6   17   13      0.19      0.00
    7   17    0      3.54      0.00
    7   17    1     -6.43      0.00
    7   17    2      3.17      0.00
    7   17    3     -2.02      0.00
    7   17    4      1.48      0.00
    7   17    5      1.47      0.00
    7   17    6     -1.28      0.00
    7   17    7      0.76      0.00
    7   17    8     -0.50      0.00
    7   17    9      0.04      0.00
    7   17   10     -1.24      0.00
    7   17   11      3.15      0.00
    7   17   12     -3.16      0.00
    7   17   13      4.24      0.00
    8   17    0     -2.02      0.00
    8   17    1     -0.85      0.00
    8   17    2     -4.19      0.00
    8   17    3     -2.02      0.00
    8   17    4     -5.06      0.00
    8   17    5     -0.41      0.00
    8   17    6      0.53      0.00
    8   17    7      1.02      0.00
    8   17    8     -0.04      0.00
    8   17    9     -0.78      0.00
    8   17   10      2.98      0.00
    8   17   11     -2.54      0.00
    8   17   12      3.60      0.00
    8   17   13      1.44      0.00
    9   17    0     -0.29      0.00
    9   17    1      3.18      0.00
    9   17    2     -4.57      0.00
    9   17    3      3.93      0.00
    9   17    4     -2.72      0.00
    9   17    5     -0.58      0.00
    9   17    6     -2.18      0.00
    9   17    7     -0.49      0.00
    9   17    8     -4.65      0.00
    9   17    9     -1.91      0.00
    9   17   10      3.34      0.00
    9   17   11      2.95      0.00
    9   17   12     -7.26      0.00
   10   17    0     -5.83      0.00
   10   17    1      2.76      0.00
   10   17    2      1.02      0.00
   10   17    3      3.98      0.00
   10   17    4     -1.92      0.00
   10   17    5      0.56      0.00
   10   17    6     -1.14      0.00
   10   17    7     -0.01      0.00
   10   17    8     -0.75      0.00
   10   17    9     -4.39      0.00
   10   17   10      0.13      0.00
   10   17   11     -4.28      0.00
   10   17   12      3.53      0.00
   11   17    0     -1.84      0.00
   11   17    1     -4.00      0.00
   11   17    2     -1.54      0.00
   11   17    3      1.94      0.00
   11   17    4      1.50      0.00
   11   17    5      1.03      0.00
   11   17    6      2.33      0.00
   11   17    7     -0.76      0.00
   11   17    8     -1.96      0.00
   11   17    9     -1.78      0.00
   11   17   10      3.83      0.00
   11   17   11      1.19      0.00
   11   17   12     -4.59      0.00
   12   17    0      3.50      0.00
   12   17    1     -0.60      0.00
   12   17    2      5.59      0.00
   12   17    3     -1.68      0.00
   12   17    4      2.50      0.00
   12   17    5      0.50      0.00
   12   17    6      1.83      0.00
   12   17    7     -1.43      0.00
   12   17    8      0.86      0.00
   12   17    9      0.98      0.00
   12   17   10     -4.57      0.00
   12   17   11      5.92      0.00
   13   17    0      2.83      0.00
   13   17    1      0.83      0.00
   13   17    2     -0.79      0.00
   13   17    3     -1.02      0.00
   13   17    4      2.56      0.00
   13   17    5     -3.28      0.00
   13   17    6      3.45      0.00
   13   17    7      0.06      0.00
   13   17    8     -0.61      0.00
   13   17    9     -0.03      0.00
   13   17   10      1.20      0.00
   13   17   11      6.74      0.00
   14   17    0     -7.54      0.00
   14   17    1      2.40      0.00
   14   17    2      7.37      0.00
   14   17    3     -2.61      0.00
   14   17    4      2.11      0.00
   14   17    5     -4.08      0.00
   14   17    6      0.08      0.00
   14   17    7     -3.64      0.00
   14   17    8     -0.68      0.00
   14   17    9      7.89      0.00
   14   17   10     -2.63      0.00
   14   17   11     -0.92      0.00
   15   17    0     -3.38      0.00
   15   17    1     -0.52      0.00
   15   17    2      4.37      0.00
   15   17    3     -1.28      0.00
   15   17    4      1.03      0.00
   15   17    5      2.81      0.00
   15   17    6      3.24      0.00
   15   17    7      4.04      0.00
   15   17    8      0.67      0.00
   15   17    9     -0.41      0.00
   15   17   10     -1.29      0.00
   16   17    0     -1.99      0.00
   16   17    1     -1.18      0.00
   16   17    2      5.21      0.00
   16   17    3     -0.65      0.00
   16   17    4     -3.13      0.00
   16   17    5     -0.99      0.00
   16   17    6     -0.58      0.00
   16   17    7      0.38      0.00
   16   17    8     -1.25      0.00
   16   17    9     -1.92      0.00
   17   17    0     -2.85      0.00
   17   17    2     -6.03      0.00
   17   17    4     -6.49      0.00
   17   17    6     -1.14      0.00
   17   17    8     -3.77      0.00
    0   18    0      5.35      0.00
    0   18    1      3.53      0.00
    0   18    2      5.68      0.00
    0   18    3      3.36      0.00
    0   18    4      2.70      0.00
    0   18    5      5.02      0.00
    0   18    6      2.15      0.00
    0   18    7     -1.19      0.00
    0   18    8      2.55      0.00
    0   18    9     -3.50      0.00
    0   18   10      0.06      0.00
    0   18   11     -0.57      0.00
    0   18   12     -2.77      0.00
    0   18   13      1.97      0.00
    1   18    0      6.91      0.00
    1   18    1     -1.95      0.00
    1   18    2      2.70      0.00
    1   18    3     -1.71      0.00
    1   18    4      7.19      0.00
    1   18    5     -1.81      0.00
    1   18    6     -4.96      0.00
    1   18    7     -0.48      0.00
    1   18    8      0.69      0.00
    1   18    9      1.06      0.00
    1   18   10      4.09      0.00
    1   18   11      0.07      0.00
    1   18   12     -1.30      0.00
    1   18   13     -6.96      0.00
    2   18    0     -5.68      0.00
    2   18    1      0.82      0.00
    2   18    2      3.98      0.00
    2   18    3     -4.21      0.00
    2   18    4    -10.30      0.00
    2   18    5      0.37      0.00
    2   18    6     -2.72      0.00
    2   18    7     -4.69      0.00
    2   18    8      1.74      0.00
    2   18    9     -0.45      0.00
    2   18   10     -1.48      0.00
    2   18   11      1.05      0.00
    2   18   12     -2.45      0.00
    2   18   13     -1.24      0.00
    3   18    0     -3.55      0.00
    3   18    1     -1.34      0.00
    3   18    2      1.32      0.00
    3   18    3      0.59      0.00
    3   18    4      4.89      0.00
    3   18    5      2.06      0.00
    3   18    6     -1.95      0.00
    3   18    7      2.93      0.00
    3   18    8     -1.49      0.00
    3   18    9     -0.11      0.00
    3   18   10      0.38      0.00
    3   18   11      0.79      0.00
    3   18   12      0.01      0.00
    3   18   13     -4.87      0.00
    4   18    0     -5.84      0.00
    4   18    1      1.06      0.00
    4   18    2     -4.06      0.00
    4   18    3      2.75      0.00
    4   18    4      3.16      0.00
    4   18    5     -0.14      0.00
    4   18    6      2.21      0.00
    4   18    7     -0.76      0.00
    4   18    8      3.69      0.00
    4   18    9     -0.14      0.00
    4   18   10     -3.96      0.00
    4   18   11      1.34      0.00
    4   18   12     -3.26      0.00
    4   18   13      4.26      0.00
    5   18    0     -2.94      0.00
    5   18    1      0.62      0.00
    5   18    2     -4.79      0.00
    5   18    3     -2.48      0.00
    5   18    4      1.33      0.00
    5   18    5     -2.49      0.00
    5   18    6     -4.73      0.00
    5   18    7     -3.91      0.00
    5   18    8      2.10      0.00
    5   18    9     -1.36      0.00
    5   18   10      1.71      0.00
    5   18   11     -1.86      0.00
    5   18   12      0.82      0.00
    5   18   13     -2.96      0.00
    6   18    0     -2.89      0.00
    6   18    1      4.71      0.00
    6   18    2      6.17      0.00
    6   18    3     -1.70      0.00
    6   18    4      0.81      0.00
    6   18    5      2.18      0.00
    6   18    6      1.96      0.00
    6   18    7     -3.74      0.00
    6   18    8     -2.88      0.00
    6   18    9     -2.24      0.00
    6   18   10     -5.27      0.00
    6   18   11     -0.91      0.00
    6   18   12     -0.78      0.00
    7   18    0      5.26      0.00
    7   18    1      0.57      0.00
    7   18    2      7.99      0.00
    7   18    3      1.43      0.00
    7   18    4      4.17      0.00
    7   18    5      2.63      0.00
    7   18    6      1.05      0.00
    7   18    7     -1.15      0.00
    7   18    8     -0.24      0.00
    7   18    9     -0.18      0.00
    7   18   10      2.16      0.00
    7   18   11      0.28      0.00
    7   18   12     -2.97      0.00
    8   18    0      3.30      0.00
    8   18    1     -4.20      0.00
    8   18    2      1.13      0.00
    8   18    3     -4.76      0.00
    8   18    4      5.42      0.00
    8   18    5     -0.62      0.00
    8   18    6      2.01      0.00
    8   18    7      1.89      0.00
    8   18    8      1.96      0.00
    8   18    9      4.35      0.00
    8   18   10     -0.17      0.00
    8   18   11     -0.26      0.00
    8   18   12     -0.80      0.00
    9   18    0      5.42      0.00
    9   18    1     -3.97      0.00
    9   18    2     -1.68      0.00
    9   18    3     -4.64      0.00
    9   18    4     -0.27      0.00
    9   18    5     -2.12      0.00
    9   18    6      1.45      0.00
    9   18    7      7.63      0.00
    9   18    8     -0.73      0.00
    9   18    9      0.38      0.00
    9   18   10      5.10      0.00
    9   18   11      2.58      0.00
    9   18   12     -4.75      0.00
   10   18    0      6.65      0.00
   10   18    1     -0.21      0.00
   10   18    2      0.55      0.00
   10   18    3      0.35      0.00
   10   18    4      0.52      0.00
   10   18    5      1.45      0.00
   10   18    6     -0.04      0.00
   10   18    7     -4.43      0.00
   10   18    8     -1.96      0.00
   10   18    9      0.90      0.00
   10   18   10      1.70      0.00
   10   18   11     -2.80      0.00
   10   18   12     -4.67      0.00
   11   18    0     -3.02      0.00
   11   18    1     -2.15      0.00
   11   18    2      4.89      0.00
   11   18    3      3.76      0.00
   11   18    4      1.90      0.00
   11   18    5      2.80      0.00
   11   18    6     -1.00      0.00
   11   18    7     -2.89      0.00
   11   18    8      0.25      0.00
   11   18    9     -1.13      0.00
   11   18   10      3.05      0.00
   11   18   11     -1.84      0.00
   12   18    0     -2.07      0.00
   12   18    1      0.92      0.00
   12   18    2     -9.34      0.00
   12   18    3      4.16      0.00
   12   18    4     -5.74      0.00
   12   18    5      0.87      0.00
   12   18    6     -4.48      0.00
   12   18    7      0.86      0.00
   12   18    8      0.65      0.00
   12   18    9      1.74      0.00
   12   18   10     -5.65      0.00
   12   18   11      0.84      0.00
   13   18    0     -2.70      0.00
   13   18    1      3.98      0.00
   13   18    2      0.26      0.00
   13   18    3      4.39      0.00
   13   18    4     -4.33      0.00
   13   18    5     -1.63      0.00
   13   18    6      1.94      0.00
   13   18    7      0.74      0.00
   13   18    8     -0.81      0.00
   13   18    9      0.46      0.00
   13   18   10      1.44      0.00
   13   18   11     -3.55      0.00
   14   18    0     -4.12      0.00
   14   18    1      5.02      0.00
   14   18    2     -3.39      0.00
   14   18    3     -0.48      0.00
   14   18    4     -1.96      0.00
   14   18    5      3.82      0.00
   14   18    6      0.53      0.00
   14   18    7     -0.36      0.00
   14   18    8      2.01      0.00
   14   18    9      3.08      0.00
   14   18   10     -3.58      0.00
   15   18    0      0.97      0.00
   15   18    1     -4.31      0.00
   15   18    2     -4.07      0.00
   15   18    3      1.15      0.00
   15   18    4      5.29      0.00
   15   18    5      0.14      0.00
   15   18    6     -0.92      0.00
   15   18    7      1.09      0.00
   15   18    8     -3.50      0.00
   15   18    9      4.92      0.00
   16   18    0      3.54      0.00
   16   18    1     -4.80      0.00
   16   18    2     -4.20      0.00
   16   18    3     -6.87      0.00
   16   18    4      2.77      0.00
   16   18    5     -5.94      0.00
   16   18    6      0.60      0.00
   16   18    7     -0.93      0.00
   16   18    8      3.37      0.00
   16   18    9     -3.31      0.00
   17   18    0      2.03      0.00
   17   18    1     -2.58      0.00
   17   18    2      6.82      0.00
   17   18    3     -4.22      0.00
   17   18    4      0.92      0.00
   17   18    5     -2.64      0.00
   17   18    6      2.16      0.00
   17   18    7      3.34      0.00
   17   18    8      2.74      0.00
   18   18    0     -1.62      0.00
   18   18    2     -2.73      0.00
   18   18    4     -0.33      0.00
   18   18    6     -2.03      0.00
    0   19    0      0.59      0.00
    0   19    1      0.14      0.00
    0   19    2      0.34      0.00
    0   19    3      2.52      0.00
    0   19    4     -0.09      0.00
    0   19    5     -2.20      0.00
    0   19    6      1.66      0.00
    0   19    7     -0.89      0.00
    0   19    8     -0.35      0.00
    0   19    9      1.96      0.00
    0   19   10      5.02      0.00
    0   19   11      0.30      0.00
    0   19   12      0.20      0.00
    1   19    0      2.69      0.00
    1   19    1     -4.82      0.00
    1   19    2     -1.20      0.00
    1   19    3     -2.89      0.00
    1   19    4     -3.99      0.00
    1   19    5     -2.87      0.00
    1   19    6     -3.50      0.00
    1   19    7      6.15      0.00
    1   19    8      0.26      0.00
    1   19    9     -1.32      0.00
    1   19   10      0.08      0.00
    1   19   11      4.94      0.00
    1   19   12      0.51      0.00
    2   19    0      2.82      0.00
    2   19    1     -4.10      0.00
    2   19    2     -1.85      0.00
    2   19    3     -3.70      0.00
    2   19    4     -0.28      0.00
    2   19    5     -2.04      0.00
    2   19    6      2.50      0.00
    2   19    7      1.09      0.00
    2   19    8      0.31      0.00
    2   19    9     -0.89      0.00
    2   19   10      2.78      0.00
    2   19   11     -2.92      0.00
    2   19   12      1.49      0.00
    2   19   13     -0.64      0.00
    3   19    0      5.98      0.00
    3   19    1      0.18      0.00
    3   19    2     -1.51      0.00
    3   19    3      5.32      0.00
    3   19    4      0.51      0.00
    3   19    5     -3.04      0.00
    3   19    6     -2.51      0.00
    3   19    7      2.85      0.00
    3   19    8      4.02      0.00
    3   19    9      0.73      0.00
    3   19   10     -3.99      0.00
    3   19   11      0.63      0.00
    3   19   12     -2.92      0.00
    4   19    0      0.05      0.00
    4   19    1      1.57      0.00
    4   19    2      2.94      0.00
    4   19    3      0.29      0.00
    4   19    4      5.54      0.00
    4   19    5      0.63      0.00
    4   19    6      1.67      0.00
    4   19    7      0.59      0.00
    4   19    8     -1.17      0.00
    4   19    9      1.76      0.00
    4   19   10     -0.09      0.00
    4   19   11      1.86      0.00
    4   19   12      1.04      0.00
    5   19    0      0.82      0.00
    5   19    1      2.80      0.00
    5   19    2     -5.23      0.00
    5   19    3     -0.13      0.00
    5   19    4      2.74      0.00
    5   19    5     -3.52      0.00
    5   19    6      3.71      0.00
    5   19    7      2.48      0.00
    5   19    8      1.04      0.00
    5   19    9     -0.64      0.00
    5   19   10      3.86      0.00
    5   19   11      1.10      0.00
    5   19   12      2.29      0.00
    6   19    0     -3.41      0.00
    6   19    1      3.64      0.00
    6   19    2     -3.84      0.00
    6   19    3     -2.23      0.00
    6   19    4     -2.54      0.00
    6   19    5     -2.74      0.00
    6   19    6     -3.05      0.00
    6   19    7     -2.50      0.00
    6   19    8      1.06      0.00
    6   19    9      3.29      0.00
    6   19   10      1.40      0.00
    6   19   11      1.76      0.00
    6   19   12     -0.58      0.00
    7   19    0     -6.84      0.00
    7   19    1     -1.38      0.00
    7   19    2     -2.40      0.00
    7   19    3     -1.49      0.00
    7   19    4      2.73      0.00
    7   19    5      0.24      0.00
    7   19    6     -3.97      0.00
    7   19    7      1.67      0.00
    7   19    8      1.31      0.00
    7   19    9      0.92      0.00
    7   19   10     -5.73      0.00
    7   19   11     -3.26      0.00
    7   19   12      2.42      0.00
    8   19    0     -1.03      0.00
    8   19    1      1.24      0.00
    8   19    2      2.15      0.00
    8   19    3     -0.45      0.00
    8   19    4      1.65      0.00
    8   19    5     -0.79      0.00
    8   19    6      5.89      0.00
    8   19    7      2.13      0.00
    8   19    8      1.66      0.00
    8   19    9      2.76      0.00
    8   19   10      1.16      0.00
    8   19   11     -0.01      0.00
    8   19   12     -1.47      0.00
    9   19    0      7.01      0.00
    9   19    1     -0.39      0.00
    9   19    2     -1.02      0.00
    9   19    3     -2.86      0.00
    9   19    4     -1.31      0.00
    9   19    5      0.37      0.00
    9   19    6      0.43      0.00
    9   19    7      1.77      0.00
    9   19    8      0.73      0.00
    9   19    9      2.65      0.00
    9   19   10     -1.34      0.00
    9   19   11     -1.28      0.00
   10   19    0      1.03      0.00
   10   19    1     -2.57      0.00
   10   19    2      5.58      0.00
   10   19    3     -2.02      0.00
   10   19    4      0.61      0.00
   10   19    5     -1.00      0.00
   10   19    6      3.81      0.00
   10   19    7      1.63      0.00
   10   19    8      3.11      0.00
   10   19    9      2.00      0.00
   10   19   10      0.03      0.00
   10   19   11     -0.05      0.00
   11   19    0      6.60      0.00
   11   19    1     -0.46      0.00
   11   19    2      6.34      0.00
   11   19    3      0.11      0.00
   11   19    4      5.02      0.00
   11   19    5      2.01      0.00
   11   19    6      2.06      0.00
   11   19    7      0.60      0.00
   11   19    8      1.03      0.00
   11   19    9      0.26      0.00
   11   19   10     -1.31      0.00
   11   19   11     -0.20      0.00
   12   19    0      0.32      0.00
   12   19    1     -2.76      0.00
   12   19    2      0.42      0.00
   12   19    3      1.00      0.00
   12   19    4     -1.98      0.00
   12   19    5      2.61      0.00
   12   19    6     -0.17      0.00
   12   19    7     -1.43      0.00
   12   19    8     -0.35      0.00
   12   19    9     -0.97      0.00
   12   19   10      1.99      0.00
   13   19    0      2.02      0.00
   13   19    1      0.93      0.00
   13   19    2    -11.07      0.00
   13   19    3     -6.45      0.00
   13   19    4     -3.27      0.00
   13   19    5     -0.20      0.00
   13   19    6     -1.21      0.00
   13   19    7      1.06      0.00
   13   19    8      1.97      0.00
   13   19    9     -1.25      0.00
   13   19   10     -3.84      0.00
   14   19    0     -0.32      0.00
   14   19    1     -1.34      0.00
   14   19    2      1.15      0.00
   14   19    3     -1.01      0.00
   14   19    4     -2.79      0.00
   14   19    5      2.06      0.00
   14   19    6      0.75      0.00
   14   19    7      0.40      0.00
   14   19    8      2.45      0.00
   14   19    9      1.51      0.00
   15   19    0      0.04      0.00
   15   19    1      1.54      0.00
   15   19    2      3.74      0.00
   15   19    3      2.17      0.00
   15   19    4     -0.19      0.00
   15   19    5      1.95      0.00
   15   19    6     -1.99      0.00
   15   19    7     -0.38      0.00
   15   19    8      0.96      0.00
   15   19    9     -0.85      0.00
   16   19    0      1.79      0.00
   16   19    1     -6.27      0.00
   16   19    2     -3.85      0.00
   16   19    3      1.23      0.00
   16   19    4     -1.49      0.00
   16   19    5     -1.87      0.00
   16   19    6      0.04      0.00
   16   19    7      0.65      0.00
   16   19    8     -0.76      0.00
   17   19    0      3.42      0.00
   17   19    1      2.83      0.00
   17   19    2    -10.22      0.00
   17   19    3     -4.37      0.00
   17   19    4      3.27      0.00
   17   19    5     -2.98      0.00
   17   19    6      1.51      0.00
   17   19    7      3.71      0.00
   18   19    0     -1.70      0.00
   18   19    1      1.03      0.00
   18   19    2     -4.82      0.00
   18   19    3     -4.85      0.00
   18   19    4     -0.36      0.00
   18   19    5      1.42      0.00
   18   19    6     -1.07      0.00
   19   19    0      2.19      0.00
   19   19    2      2.23      0.00
   19   19    4      0.97      0.00
    0   20    0      2.93      0.00
    0   20    1      4.97      0.00
    0   20    2     -3.45      0.00
    0   20    3      4.62      0.00
    0   20    4      4.31      0.00
    0   20    5      0.45      0.00
    0   20    6     -1.01      0.00
    0   20    7      2.53      0.00
    0   20    8     -1.30      0.00
    0   20    9      3.49      0.00
    0   20   10     -0.61      0.00
    0   20   11      0.47      0.00
    0   20   12     -0.94      0.00
    1   20    0     -1.59      0.00
    1   20    1      4.49      0.00
    1   20    2     -1.41      0.00
    1   20    3      1.88      0.00
    1   20    4     -4.70      0.00
    1   20    5      1.10      0.00
    1   20    6      5.52      0.00
    1   20    7     -0.04      0.00
    1   20    8      0.21      0.00
    1   20    9      0.06      0.00
    1   20   10      2.78      0.00
    1   20   11     -3.58      0.00
    1   20   12     -1.29      0.00
    2   20    0     -2.90      0.00
    2   20    1     -2.71      0.00
    2   20    2     -0.51      0.00
    2   20    3     -4.16      0.00
    2   20    4     -4.18      0.00
    2   20    5     -3.60      0.00
    2   20    6      1.90      0.00
    2   20    7      1.43      0.00
    2   20    8      0.23      0.00
    2   20    9      2.82      0.00
    2   20   10      0.33      0.00
    2   20   11     -1.74      0.00
    2   20   12     -1.52      0.00
    3   20    0      0.28      0.00
    3   20    1     -6.06      0.00
    3   20    2      1.08      0.00
    3   20    3     -2.73      0.00
    3   20    4     -1.71      0.00
    3   20    5     -1.78      0.00
    3   20    6      6.89      0.00
    3   20    7      1.22      0.00
    3   20    8     -2.71      0.00
    3   20    9     -3.21      0.00
    3   20   10     -0.07      0.00
    3   20   11      2.12      0.00
    3   20   12     -0.12      0.00
    4   20    0     10.11      0.00
    4   20    1     -4.34      0.00
    4   20    2     -0.13      0.00
    4   20    3      4.44      0.00
    4   20    4      5.51      0.00
    4   20    5     -7.04      0.00
    4   20    6      2.12      0.00
    4   20    7     -0.14      0.00
    4   20    8      0.38      0.00
    4   20    9      2.49      0.00
    4   20   10      1.61      0.00
    4   20   11     -0.34      0.00
    4   20   12     -1.98      0.00
    5   20    0      8.35      0.00
    5   20    1     -0.79      0.00
    5   20    2      4.55      0.00
    5   20    3      0.24      0.00
    5   20    4      2.11      0.00
    5   20    5     -0.09      0.00
    5   20    6      1.54      0.00
    5   20    7      0.58      0.00
    5   20    8      0.68      0.00
    5   20    9      2.28      0.00
    5   20   10     -3.49      0.00
    5   20   11     -0.52      0.00
    5   20   12      0.85      0.00
    6   20    0     -0.49      0.00
    6   20    1     -4.75      0.00
    6   20    2      1.95      0.00
    6   20    3     -0.63      0.00
    6   20    4     -0.44      0.00
    6   20    5     -0.24      0.00
    6   20    6     -0.34      0.00
    6   20    7      1.50      0.00
    6   20    8     -2.35      0.00
    6   20    9     -1.48      0.00
    6   20   10     -2.85      0.00
    6   20   11     -2.51      0.00
    7   20    0     -0.24      0.00
    7   20    1     -1.07      0.00
    7   20    2     -2.22      0.00
    7   20    3      2.52      0.00
    7   20    4     -0.93      0.00
    7   20    5     -1.62      0.00
    7   20    6      0.87      0.00
    7   20    7     -2.67      0.00
    7   20    8      1.31      0.00
    7   20    9      0.83      0.00
    7   20   10     -0.70      0.00
    7   20   11      2.47      0.00
    8   20    0     -3.55      0.00
    8   20    1     -6.28      0.00
    8   20    2     -1.13      0.00
    8   20    3      3.66      0.00
    8   20    4     -1.53      0.00
    8   20    5      1.83      0.00
    8   20    6     -2.03      0.00
    8   20    7     -0.19      0.00
    8   20    8      2.48      0.00
    8   20    9      2.72      0.00
    8   20   10      0.01      0.00
    8   20   11      0.21      0.00
    9   20    0     -3.32      0.00
    9   20    1      2.07      0.00
    9   20    2    -12.23      0.00
    9   20    3      4.00      0.00
    9   20    4     -4.13      0.00
    9   20    5      1.73      0.00
    9   20    6      3.73      0.00
    9   20    7      4.39      0.00
    9   20    8      1.50      0.00
    9   20    9     -1.27      0.00
    9   20   10     -1.63      0.00
    9   20   11     -2.26      0.00
   10   20    0      0.29      0.00
   10   20    1      2.86      0.00
   10   20    2     -1.09      0.00
   10   20    3     -1.14      0.00
   10   20    4     -4.48      0.00
   10   20    5      1.52      0.00
   10   20    6      1.30      0.00
   10   20    7     -4.50      0.00
   10   20    8     -3.66      0.00
   10   20    9     -1.42      0.00
   10   20   10      1.51      0.00
   11   20    0      1.03      0.00
   11   20    1      3.22      0.00
   11   20    2      0.36      0.00
   11   20    3     -1.16      0.00
   11   20    4      2.94      0.00
   11   20    5      1.58      0.00
   11   20    6     -3.84      0.00
   11   20    7     -3.33      0.00
   11   20    8     -1.44      0.00
   11   20    9      1.86      0.00
   11   20   10     -2.25      0.00
   12   20    0      0.73      0.00
   12   20    1     -3.76      0.00
   12   20    2      5.25      0.00
   12   20    3     -3.60      0.00
   12   20    4      0.11      0.00
   12   20    5     -3.10      0.00
   12   20    6      3.58      0.00
   12   20    7      1.16      0.00
   12   20    8     -3.19      0.00
   12   20    9     -1.38      0.00
   12   20   10     -2.03      0.00
   13   20    0      3.32      0.00
   13   20    1     -3.21      0.00
   13   20    2      2.27      0.00
   13   20    3     -8.83      0.00
   13   20    4      2.89      0.00
   13   20    5     -2.59      0.00
   13   20    6      0.92      0.00
   13   20    7      3.49      0.00
   13   20    8      0.97      0.00
   13   20    9     -3.18      0.00
   14   20    0     -0.31      0.00
   14   20    1      0.23      0.00
   14   20    2     10.70      0.00
   14   20    3     -6.58      0.00
   14   20    4      2.99      0.00
   14   20    5      4.28      0.00
   14   20    6      2.05      0.00
   14   20    7     -0.17      0.00
   14   20    8      0.36      0.00
   14   20    9     -1.65      0.00
   15   20    0     -0.35      0.00
   15   20    1     -6.92      0.00
   15   20    2      1.05      0.00
   15   20    3     -0.99      0.00
   15   20    4     -2.83      0.00
   15   20    5     -3.81      0.00
   15   20    6     -1.68      0.00
   15   20    7     -3.82      0.00
   15   20    8     -0.95      0.00
   16   20    0     -3.12      0.00
   16   20    1      0.35      0.00
   16   20    2     -5.70      0.00
   16   20    3      3.77      0.00
   16   20    4     -3.48      0.00
   16   20    5      1.15      0.00
   16   20    6     -1.62      0.00
   16   20    7     -0.11      0.00
   17   20    0     -0.89      0.00
   17   20    1      0.84      0.00
   17   20    2     -3.21      0.00
   17   20    3      1.85      0.00
   17   20    4     -2.03      0.00
   17   20    5      1.88      0.00
   17   20    6     -1.07      0.00
   18   20    0     -3.35      0.00
   18   20    1      1.93      0.00
   18   20    2     -1.12      0.00
   18   20    3     -0.06      0.00
   18   20    4     -0.08      0.00
   18   20    5      0.51      0.00
   19   20    0      2.32      0.00
   19   20    1     -4.66      0.00
   19   20    2     -9.87      0.00
   19   20    3     -0.08      0.00
   19   20    4     -5.22      0.00
   20   20    0      3.92      0.00
   20   20    2      1.55      0.00
    0   21    0     -0.62      0.00
    0   21    1     -1.80      0.00
    0   21    2      2.32      0.00
    0   21    3      0.10      0.00
    0   21    4     -2.56      0.00
    0   21    5     -2.15      0.00
    0   21    6     -2.89      0.00
    0   21    7     -4.01      0.00
    0   21    8     -0.85      0.00
    0   21    9      3.35      0.00
    0   21   10     -3.62      0.00
    0   21   11      1.93      0.00
    1   21    0     -1.30      0.00
    1   21    1      2.28      0.00
    1   21    2      3.56      0.00
    1   21    3     -0.73      0.00
    1   21    4      1.88      0.00
    1   21    5      2.22      0.00
    1   21    6      1.43      0.00
    1   21    7     -4.78      0.00
    1   21    8      0.44      0.00
    1   21    9     -0.99      0.00
    1   21   10     -2.16      0.00
    1   21   11     -1.70      0.00
    2   21    0      3.80      0.00
    2   21    1      2.76      0.00
    2   21    2      0.80      0.00
    2   21    3      4.03      0.00
    2   21    4      3.50      0.00
    2   21    5      3.21      0.00
    2   21    6      5.06      0.00
    2   21    7      4.24      0.00
    2   21    8      1.25      0.00
    2   21    9     -1.33      0.00
    2   21   10     -2.05      0.00
    2   21   11     -2.96      0.00
    3   21    0     -0.25      0.00
    3   21    1     -0.45      0.00
    3   21    2      4.49      0.00
    3   21    3     -0.30      0.00
    3   21    4     -2.89      0.00
    3   21    5     -4.72      0.00
    3   21    6      3.42      0.00
    3   21    7     -2.64      0.00
    3   21    8     -0.65      0.00
    3   21    9      0.87      0.00
    3   21   10     -0.77      0.00
    3   21   11     -0.83      0.00
    4   21    0     -4.77      0.00
    4   21    1      1.09      0.00
    4   21    2     -4.18      0.00
    4   21    3      1.66      0.00
    4   21    4     -3.81      0.00
    4   21    5      4.71      0.00
    4   21    6     -1.13      0.00
    4   21    7     -1.46      0.00
    4   21    8     -0.60      0.00
    4   21    9     -1.21      0.00
    4   21   10     -0.66      0.00
    4   21   11      0.11      0.00
    5   21    0      4.16      0.00
    5   21    1      0.10      0.00
    5   21    2      0.37      0.00
    5   21    3      3.55      0.00
    5   21    4      2.21      0.00
    5   21    5      0.84      0.00
    5   21    6      3.95      0.00
    5   21    7     -2.27      0.00
    5   21    8     -2.92      0.00
    5   21    9     -0.30      0.00
    5   21   10      0.71      0.00
    5   21   11     -1.28      0.00
    6   21    0      4.92      0.00
    6   21    1     -2.28      0.00
    6   21    2     -0.31      0.00
    6   21    3     -0.88      0.00
    6   21    4     -0.93      0.00
    6   21    5      2.23      0.00
    6   21    6      2.33      0.00
    6   21    7     -0.97      0.00
    6   21    8      2.62      0.00
    6   21    9     -3.83      0.00
    6   21   10      0.40      0.00
    6   21   11     -4.40      0.00
    7   21    0      0.78      0.00
    7   21    1    -12.02      0.00
    7   21    2      5.64      0.00
    7   21    3     -2.44      0.00
    7   21    4     -1.98      0.00
    7   21    5     -2.98      0.00
    7   21    6     -0.34      0.00
    7   21    7     -2.77      0.00
    7   21    8      0.13      0.00
    7   21    9      1.68      0.00
    7   21   10     -3.46      0.00
    8   21    0      4.15      0.00
    8   21    1     -4.44      0.00
    8   21    2      4.88      0.00
    8   21    3      0.91      0.00
    8   21    4      0.86      0.00
    8   21    5      2.17      0.00
    8   21    6      3.66      0.00
    8   21    7     -1.87      0.00
    8   21    8     -3.35      0.00
    8   21    9      0.86      0.00
    8   21   10     -0.73      0.00
    9   21    0      1.10      0.00
    9   21    1     -1.93      0.00
    9   21    2      2.27      0.00
    9   21    3      2.34      0.00
    9   21    4     -1.55      0.00
    9   21    5     -1.59      0.00
    9   21    6      0.93      0.00
    9   21    7     -8.80      0.00
    9   21    8     -0.93      0.00
    9   21    9      2.19      0.00
    9   21   10      2.87      0.00
   10   21    0     -4.34      0.00
   10   21    1      0.53      0.00
   10   21    2    -10.24      0.00
   10   21    3     -1.81      0.00
   10   21    4     -3.86      0.00
   10   21    5      2.73      0.00
   10   21    6     -1.37      0.00
   10   21    7      2.11      0.00
   10   21    8     -1.12      0.00
   10   21    9      1.01      0.00
   10   21   10     -2.98      0.00
   11   21    0     -0.30      0.00
   11   21    1      0.66      0.00
   11   21    2     -1.47      0.00
   11   21    3      1.11      0.00
   11   21    4     -2.44      0.00
   11   21    5     -2.13      0.00
   11   21    6     -1.24      0.00
   11   21    7     -3.99      0.00
   11   21    8      2.17      0.00
   11   21    9      2.55      0.00
   12   21    0      1.41      0.00
   12   21    1      3.12      0.00
   12   21    2     -3.58      0.00
   12   21    3      3.14      0.00
   12   21    4      0.66      0.00
   12   21    5     -2.00      0.00
   12   21    6     -3.31      0.00
   12   21    7     -1.38      0.00
   12   21    8     -5.24      0.00
   12   21    9      0.20      0.00
   13   21    0     -2.62      0.00
   13   21    1     -0.57      0.00
   13   21    2     -5.39      0.00
   13   21    3     -0.54      0.00
   13   21    4      2.72      0.00
   13   21    5      0.88      0.00
   13   21    6     -6.26      0.00
   13   21    7      0.72      0.00
   13   21    8      0.02      0.00
   14   21    0     -2.73      0.00
   14   21    1      1.81      0.00
   14   21    2      1.83      0.00
   14   21    3     -4.13      0.00
   14   21    4      3.23      0.00
   14   21    5     -3.54      0.00
   14   21    6      1.93      0.00
   14   21    7      8.18      0.00
   14   21    8     -2.85      0.00
   15   21    0     -4.70      0.00
   15   21    1     -0.89      0.00
   15   21    2      7.88      0.00
   15   21    3      0.68      0.00
   15   21    4      1.91      0.00
   15   21    5      2.28      0.00
   15   21    6     -5.59      0.00
   15   21    7     -1.26      0.00
   16   21    0     -2.94      0.00
   16   21    1     -6.02      0.00
   16   21    2      2.49      0.00
   16   21    3      7.48      0.00
   16   21    4     -3.51      0.00
   16   21    5     -6.76      0.00
   16   21    6     -1.39      0.00
   17   21    0      0.07      0.00
   17   21    1     -0.62      0.00
   17   21    2     -9.84      0.00
   17   21    3      0.69      0.00
   17   21    4      4.64      0.00
   17   21    5      0.40      0.00
   18   21    0      1.10      0.00
   18   21    1     -4.68      0.00
   18   21    2      5.28      0.00
   18   21    3      0.43      0.00
   18   21    4     -2.64      0.00
   19   21    0      0.28      0.00
   19   21    1     -3.17      0.00
   19   21    2      1.05      0.00
    0   22    0      6.91      0.00
    0   22    1     -9.69      0.00
    0   22    2      1.33      0.00
    0   22    3     -2.31      0.00
    0   22    4      2.01      0.00
    0   22    5     -4.34      0.00
    0   22    6     -3.83      0.00
    0   22    7     -0.57      0.00
    0   22    8      3.57      0.00
    0   22    9     -2.66      0.00
    0   22   10      1.22      0.00
    0   22   11      4.59      0.00
    1   22    0      0.54      0.00
    1   22    1      1.81      0.00
    1   22    2     -0.55      0.00
    1   22    3      9.51      0.00
    1   22    4      1.17      0.00
    1   22    5      1.77      0.00
    1   22    6     -1.98      0.00
    1   22    7      0.69      0.00
    1   22    8      1.36      0.00
    1   22    9      1.54      0.00
    1   22   10     -0.70      0.00
    1   22   11      0.09      0.00
    2   22    0      1.12      0.00
    2   22    1      1.15      0.00
    2   22    2      7.95      0.00
    2   22    3     -0.35      0.00
    2   22    4     -0.95      0.00
    2   22    5      0.92      0.00
    2   22    6      1.89      0.00
    2   22    7      1.91      0.00
    2   22    8     -4.00      0.00
    2   22    9     -4.14      0.00
    2   22   10     -4.14      0.00
    2   22   11      1.01      0.00
    3   22    0      1.02      0.00
    3   22    1      1.17      0.00
    3   22    2     -3.05      0.00
    3   22    3     -0.17      0.00
    3   22    4     -2.68      0.00
    3   22    5      1.27      0.00
    3   22    6      1.68      0.00
    3   22    7     -0.08      0.00
    3   22    8      0.19      0.00
    3   22    9     -2.29      0.00
    3   22   10      1.11      0.00
    3   22   11      6.52      0.00
    4   22    0      1.10      0.00
    4   22    1      3.67      0.00
    4   22    2     -3.14      0.00
    4   22    3      1.83      0.00
    4   22    4     -4.63      0.00
    4   22    5     -4.23      0.00
    4   22    6      0.49      0.00
    4   22    7     -0.02      0.00
    4   22    8     -0.45      0.00
    4   22    9      0.74      0.00
    4   22   10      4.86      0.00
    5   22    0     -5.58      0.00
    5   22    1      5.32      0.00
    5   22    2     -0.75      0.00
    5   22    3      1.96      0.00
    5   22    4     -0.92      0.00
    5   22    5      7.55      0.00
    5   22    6     -0.36      0.00
    5   22    7     -0.32      0.00
    5   22    8      1.42      0.00
    5   22    9     -0.16      0.00
    5   22   10      0.19      0.00
    6   22    0      0.82      0.00
    6   22    1      1.95      0.00
    6   22    2     -1.38      0.00
    6   22    3     -0.23      0.00
    6   22    4      1.54      0.00
    6   22    5      1.32      0.00
    6   22    6      4.64      0.00
    6   22    7      1.65      0.00
    6   22    8      2.44      0.00
    6   22    9     -2.67      0.00
    6   22   10      2.47      0.00
    7   22    0     -0.77      0.00
    7   22    1     -0.07      0.00
    7   22    2     -1.95      0.00
    7   22    3     -6.28      0.00
    7   22    4     -0.76      0.00
    7   22    5     -1.27      0.00
    7   22    6      0.66      0.00
    7   22    7      0.62      0.00
    7   22    8      1.38      0.00
    7   22    9      2.13      0.00
    7   22   10      1.01      0.00
    8   22    0      2.53      0.00
    8   22    1     -6.76      0.00
    8   22    2      2.30      0.00
    8   22    3     -5.46      0.00
    8   22    4      0.33      0.00
    8   22    5     -4.92      0.00
    8   22    6     -3.93      0.00
    8   22    7     -3.31      0.00
    8   22    8     -0.76      0.00
    8   22    9      5.89      0.00
    8   22   10      0.94      0.00
    9   22    0     -0.35      0.00
    9   22    1     -2.39      0.00
    9   22    2      6.15      0.00
    9   22    3     -0.39      0.00
    9   22    4      1.58      0.00
    9   22    5     -1.50      0.00
    9   22    6      2.87      0.00
    9   22    7     -2.04      0.00
    9   22    8     -3.05      0.00
    9   22    9     -0.62      0.00
   10   22    0      4.75      0.00
   10   22    1      5.83      0.00
   10   22    2      0.80      0.00
   10   22    3     -1.53      0.00
   10   22    4      4.24      0.00
   10   22    5     -2.80      0.00
   10   22    6     -0.73      0.00
   10   22    7     -5.01      0.00
   10   22    8      2.13      0.00
   10   22    9      1.48      0.00
   11   22    0      1.52      0.00
   11   22    1     -4.22      0.00
   11   22    2      2.13      0.00
   11   22    3      1.72      0.00
   11   22    4     -2.26      0.00
   11   22    5      0.06      0.00
   11   22    6      3.59      0.00
   11   22    7     -1.75      0.00
   11   22    8      3.13      0.00
   11   22    9      4.31      0.00
   12   22    0     -1.76      0.00
   12   22    1     -2.51      0.00
   12   22    2     -0.28      0.00
   12   22    3      4.73      0.00
   12   22    4     -0.35      0.00
   12   22    5     -0.29      0.00
   12   22    6      4.90      0.00
   12   22    7     -1.50      0.00
   12   22    8      6.46      0.00
   13   22    0     -2.79      0.00
   13   22    1      1.98      0.00
   13   22    2     -2.01      0.00
   13   22    3      9.58      0.00
   13   22    4     -2.96      0.00
   13   22    5     -0.81      0.00
   13   22    6      0.91      0.00
   13   22    7      9.59      0.00
   14   22    0     -4.80      0.00
   14   22    1      1.78      0.00
   14   22    2     -4.85      0.00
   14   22    3     -1.56      0.00
   14   22    4      3.05      0.00
   14   22    5      0.68      0.00
   14   22    6    -10.85      0.00
   14   22    7     -1.89      0.00
   15   22    0     -1.50      0.00
   15   22    1      0.66      0.00
   15   22    2      0.16      0.00
   15   22    3      7.05      0.00
   15   22    4     -1.70      0.00
   15   22    5     -3.41      0.00
   15   22    6      3.73      0.00
   16   22    0      1.15      0.00
   16   22    1      2.52      0.00
   16   22    2     -9.71      0.00
   16   22    3      2.63      0.00
   16   22    4      1.99      0.00
   16   22    5      1.91      0.00
   17   22    0     -0.65      0.00
   17   22    1     -2.70      0.00
   17   22    2      1.92      0.00
   17   22    3      0.53      0.00
   17   22    4      2.67      0.00
   18   22    0      2.13      0.00
   18   22    1     -0.44      0.00
   18   22    2      0.43      0.00
    0   23    0     -7.61      0.00
    0   23    1      1.27      0.00
    0   23    2     -2.65      0.00
    0   23    3      9.76      0.00
    0   23    4     -4.19      0.00
    0   23    5     -1.97      0.00
    0   23    6     -1.81      0.00
    0   23    7      2.06      0.00
    0   23    8     -0.89      0.00
    0   23    9      0.42      0.00
    0   23   10      5.85      0.00
    1   23    0      0.61      0.00
    1   23    1     -2.99      0.00
    1   23    2     -5.44      0.00
    1   23    3      1.73      0.00
    1   23    4     -0.39      0.00
    1   23    5     -0.52      0.00
    1   23    6     -3.87      0.00
    1   23    7      2.07      0.00
    1   23    8     -1.94      0.00
    1   23    9      3.33      0.00
    1   23   10      1.14      0.00
    2   23    0      2.12      0.00
    2   23    1      6.01      0.00
    2   23    2     -2.91      0.00
    2   23    3     10.08      0.00
    2   23    4     -0.54      0.00
    2   23    5     -0.81      0.00
    2   23    6      4.01      0.00
    2   23    7      1.71      0.00
    2   23    8     -0.72      0.00
    2   23    9     -5.69      0.00
    2   23   10      3.85      0.00
    3   23    0      2.63      0.00
    3   23    1     -3.93      0.00
    3   23    2      2.83      0.00
    3   23    3     -3.32      0.00
    3   23    4     -3.44      0.00
    3   23    5     -5.51      0.00
    3   23    6      1.72      0.00
    3   23    7      2.33      0.00
    3   23    8     -1.69      0.00
    3   23    9      4.02      0.00
    3   23   10      2.16      0.00
    4   23    0     -0.58      0.00
    4   23    1     -3.54      0.00
    4   23    2      2.22      0.00
    4   23    3     -1.17      0.00
    4   23    4     -2.81      0.00
    4   23    5     -0.78      0.00
    4   23    6      0.38      0.00
    4   23    7      0.36      0.00
    4   23    8      0.77      0.00
    4   23    9      0.64      0.00
    4   23   10      0.82      0.00
    5   23    0     -0.59      0.00
    5   23    1     -1.09      0.00
    5   23    2     -1.95      0.00
    5   23    3     -1.82      0.00
    5   23    4      2.68      0.00
    5   23    5     -1.98      0.00
    5   23    6     -1.64      0.00
    5   23    7      0.62      0.00
    5   23    8      0.41      0.00
    5   23    9      2.30      0.00
    6   23    0      2.07      0.00
    6   23    1      3.54      0.00
    6   23    2      0.68      0.00
    6   23    3     -0.82      0.00
    6   23    4      3.48      0.00
    6   23    5     -6.15      0.00
    6   23    6     -0.08      0.00
    6   23    7      2.06      0.00
    6   23    8     -1.51      0.00
    6   23    9     -2.18      0.00
    7   23    0     -0.22      0.00
    7   23    1      4.83      0.00
    7   23    2     -1.73      0.00
    7   23    3     -0.62      0.00
    7   23    4     -1.44      0.00
    7   23    5      5.88      0.00
    7   23    6     -2.72      0.00
    7   23    7      4.28      0.00
    7   23    8      2.12      0.00
    7   23    9     -1.12      0.00
    8   23    0     -2.34      0.00
    8   23    1      3.91      0.00
    8   23    2      0.23      0.00
    8   23    3      2.26      0.00
    8   23    4      2.36      0.00
    8   23    5     -3.44      0.00
    8   23    6      0.90      0.00
    8   23    7     -0.33      0.00
    8   23    8      1.15      0.00
    8   23    9      2.33      0.00
    9   23    0     -6.48      0.00
    9   23    1      4.29      0.00
    9   23    2     -0.51      0.00
    9   23    3     -0.55      0.00
    9   23    4      1.04      0.00
    9   23    5     -0.37      0.00
    9   23    6     -1.49      0.00
    9   23    7      0.07      0.00
    9   23    8     -0.14      0.00
   10   23    0     -0.81      0.00
   10   23    1     -0.31      0.00
   10   23    2     -2.41      0.00
   10   23    3      0.91      0.00
   10   23    4      0.86      0.00
   10   23    5     -2.59      0.00
   10   23    6     -1.19      0.00
   10   23    7     -0.62      0.00
   10   23    8      1.89      0.00
   11   23    0      0.47      0.00
   11   23    1      1.78      0.00
   11   23    2      2.24      0.00
   11   23    3     -5.02      0.00
   11   23    4      0.52      0.00
   11   23    5      0.93      0.00
   11   23    6      7.28      0.00
   11   23    7     -2.52      0.00
   11   23    8     -4.23      0.00
   12   23    0      4.82      0.00
   12   23    1     -0.53      0.00
   12   23    2      5.32      0.00
   12   23    3      8.27      0.00
   12   23    4      0.44      0.00
   12   23    5      0.59      0.00
   12   23    6      4.63      0.00
   12   23    7     -1.20      0.00
   13   23    0     -2.07      0.00
   13   23    1     -1.36      0.00
   13   23    2      3.93      0.00
   13   23    3      0.11      0.00
   13   23    4      0.77      0.00
   13   23    5     -1.28      0.00
   13   23    6      5.68      0.00
   14   23    0      2.27      0.00
   14   23    1     -2.26      0.00
   14   23    2     -1.88      0.00
   14   23    3     -2.87      0.00
   14   23    4     -0.36      0.00
   14   23    5     -1.49      0.00
   15   23    0     -1.10      0.00
   15   23    1      0.19      0.00
   15   23    2      3.04      0.00
   15   23    3     -3.45      0.00
   15   23    4     -2.66      0.00
   16   23    0      0.69      0.00
   16   23    1      0.65      0.00
   16   23    2     -3.79      0.00
   16   23    3      7.25      0.00
   17   23    0     -5.86      0.00
   17   23    1      3.91      0.00
    0   24    0      2.48      0.00
    0   24    1     -4.92      0.00
    0   24    2    -16.05      0.00
    0   24    3     -1.62      0.00
    0   24    4     -1.90      0.00
    0   24    5     -1.73      0.00
    0   24    6     -2.90      0.00
    0   24    7     -0.38      0.00
    0   24    8      3.48      0.00
    0   24    9      7.73      0.00
    1   24    0     -5.60      0.00
    1   24    1      1.21      0.00
    1   24    2      0.60      0.00
    1   24    3      0.93      0.00
    1   24    4      1.16      0.00
    1   24    5     -2.13      0.00
    1   24    6      0.48      0.00
    1   24    7      2.51      0.00
    1   24    8      1.90      0.00
    1   24    9      2.16      0.00
    2   24    0     -2.29      0.00
    2   24    1      0.64      0.00
    2   24    2    -10.01      0.00
    2   24    3      1.12      0.00
    2   24    4      0.37      0.00
    2   24    5      0.45      0.00
    2   24    6     -0.14      0.00
    2   24    7     -3.55      0.00
    2   24    8     -2.57      0.00
    2   24    9      4.77      0.00
    3   24    0     -1.16      0.00
    3   24    1      1.41      0.00
    3   24    2      0.62      0.00
    3   24    3      1.21      0.00
    3   24    4     -3.22      0.00
    3   24    5     -0.12      0.00
    3   24    6      1.47      0.00
    3   24    7     -1.15      0.00
    3   24    8      2.36      0.00
    3   24    9     -6.50      0.00
    4   24    0      1.77      0.00
    4   24    1     -2.64      0.00
    4   24    2     -0.83      0.00
    4   24    3     -1.16      0.00
    4   24    4     -0.55      0.00
    4   24    5     -5.19      0.00
    4   24    6     -0.30      0.00
    4   24    7     -0.08      0.00
    4   24    8     -1.14      0.00
    4   24    9      6.78      0.00
    5   24    0     -3.69      0.00
    5   24    1     -1.97      0.00
    5   24    2      9.58      0.00
    5   24    3     -0.07      0.00
    5   24    4     -2.17      0.00
    5   24    5     -2.95      0.00
    5   24    6     -0.33      0.00
    5   24    7      1.07      0.00
    5   24    8     -1.16      0.00
    5   24    9      1.22      0.00
    6   24    0     -2.39      0.00
    6   24    1     -3.40      0.00
    6   24    2      0.15      0.00
    6   24    3      1.20      0.00
    6   24    4      1.57      0.00
    6   24    5      2.01      0.00
    6   24    6     -1.43      0.00
    6   24    7      0.32      0.00
    6   24    8     -1.19      0.00
    7   24    0      4.84      0.00
    7   24    1      0.79      0.00
    7   24    2      2.79      0.00
    7   24    3     -1.51      0.00
    7   24    4      3.12      0.00
    7   24    5     -4.36      0.00
    7   24    6      0.87      0.00
    7   24    7     -1.66      0.00
    7   24    8     -1.35      0.00
    8   24    0     -0.56      0.00
    8   24    1     -0.61      0.00
    8   24    2     -0.10      0.00
    8   24    3      0.59      0.00
    8   24    4     -4.28      0.00
    8   24    5      3.29      0.00
    8   24    6     -1.35      0.00
    8   24    7      0.48      0.00
    8   24    8     -0.63      0.00
    9   24    0     -0.42      0.00
    9   24    1      3.77      0.00
    9   24    2      1.32      0.00
    9   24    3      1.94      0.00
    9   24    4      0.01      0.00
    9   24    5      0.46      0.00
    9   24    6      1.84      0.00
    9   24    7      0.08      0.00
   10   24    0     -3.55      0.00
   10   24    1      2.62      0.00
   10   24    2     -4.49      0.00
   10   24    3      0.09      0.00
   10   24    4      1.98      0.00
   10   24    5      0.04      0.00
   10   24    6     -0.52      0.00
   10   24    7      3.56      0.00
   11   24    0     -2.21      0.00
   11   24    1      2.30      0.00
   11   24    2     -5.08      0.00
   11   24    3     -1.93      0.00
   11   24    4     -0.59      0.00
   11   24    5      1.27      0.00
   11   24    6     -2.83      0.00
   12   24    0      0.78      0.00
   12   24    1      1.35      0.00
   12   24    2     -0.09      0.00
   12   24    3      0.17      0.00
   12   24    4     -1.67      0.00
   12   24    5      1.35      0.00
   12   24    6      5.93      0.00
   13   24    0      0.22      0.00
   13   24    1      8.49      0.00
   13   24    2     -1.56      0.00
   13   24    3      0.13      0.00
   13   24    4      3.06      0.00
   13   24    5     -0.46      0.00
   14   24    0      4.14      0.00
   14   24    1     -5.24      0.00
   14   24    2      0.45      0.00
   14   24    3     -6.88      0.00
   14   24    4      4.15      0.00
   15   24    0      6.15      0.00
   15   24    1     -3.40      0.00
   15   24    2      3.23      0.00
   15   24    3     -4.21      0.00
    0   25    0     -1.57      0.00
    0   25    1     -0.74      0.00
    0   25    2      7.75      0.00
    0   25    3     -0.81      0.00
    0   25    4      2.98      0.00
    0   25    5      1.98      0.00
    0   25    6     -1.98      0.00
    0   25    7      3.59      0.00
    0   25    8      6.90      0.00
    1   25    0      2.34      0.00
    1   25    1      0.57      0.00
    1   25    2     -5.12      0.00
    1   25    3     -1.37      0.00
    1   25    4     -1.44      0.00
    1   25    5      2.56      0.00
    1   25    6      2.05      0.00
    1   25    7     -2.09      0.00
    1   25    8      3.63      0.00
    2   25    0     -2.59      0.00
    2   25    1     -1.65      0.00
    2   25    2     -3.24      0.00
    2   25    3     -3.31      0.00
    2   25    4      1.63      0.00
    2   25    5      0.04      0.00
    2   25    6     -0.41      0.00
    2   25    7     -0.61      0.00
    2   25    8      6.19      0.00
    3   25    0     -4.08      0.00
    3   25    1      1.37      0.00
    3   25    2     -6.24      0.00
    3   25    3     -0.12      0.00
    3   25    4     -1.59      0.00
    3   25    5      0.99      0.00
    3   25    6     -0.65      0.00
    3   25    7     -1.07      0.00
    3   25    8     -4.77      0.00
    4   25    0     -0.61      0.00
    4   25    1     -1.16      0.00
    4   25    2      5.61      0.00
    4   25    3     -2.41      0.00
    4   25    4      0.14      0.00
    4   25    5      3.04      0.00
    4   25    6     -3.01      0.00
    4   25    7      0.16      0.00
    4   25    8      4.17      0.00
    5   25    0     -1.96      0.00
    5   25    1      3.64      0.00
    5   25    2     -0.85      0.00
    5   25    3      2.63      0.00
    5   25    4     -0.65      0.00
    5   25    5     -1.03      0.00
    5   25    6      2.07      0.00
    5   25    7     -1.70      0.00
    5   25    8     -0.18      0.00
    6   25    0      0.29      0.00
    6   25    1     -0.76      0.00
    6   25    2      2.79      0.00
    6   25    3     -2.13      0.00
    6   25    4      0.07      0.00
    6   25    5     -0.22      0.00
    6   25    6      0.90      0.00
    6   25    7      2.08      0.00
    7   25    0      0.00      0.00
    7   25    1     -5.22      0.00
    7   25    2      2.88      0.00
    7   25    3     -1.49      0.00
    7   25    4     -4.52      0.00
    7   25    5      2.44      0.00
    7   25    6      1.13      0.00
    7   25    7     -3.84      0.00
    8   25    0     -0.01      0.00
    8   25    1      0.43      0.00
    8   25    2      1.22      0.00
    8   25    3     -3.68      0.00
    8   25    4     -1.34      0.00
    8   25    5      1.50      0.00
    8   25    6      3.32      0.00
    8   25    7     -0.54      0.00
    9   25    0     -4.48      0.00
    9   25    1     -3.58      0.00
    9   25    2      3.02      0.00
    9   25    3     -0.15      0.00
    9   25    4     -1.56      0.00
    9   25    5     -6.93      0.00
    9   25    6      0.79      0.00
   10   25    0      2.92      0.00
   10   25    1      1.03      0.00
   10   25    2     -0.56      0.00
   10   25    3     -0.76      0.00
   10   25    4      1.48      0.00
   10   25    5      0.94      0.00
   10   25    6      1.30      0.00
   11   25    0      3.48      0.00
   11   25    1      0.65      0.00
   11   25    2     -0.38      0.00
   11   25    3     -0.21      0.00
   11   25    4     -0.39      0.00
   11   25    5     -0.76      0.00
   12   25    0      2.47      0.00
   12   25    1      3.69      0.00
   12   25    2     -2.35      0.00
   12   25    3      1.14      0.00
   12   25    4      1.29      0.00
   13   25    0      2.57      0.00
   13   25    1      0.41      0.00
   13   25    2     -3.52      0.00
   13   25    3      3.53      0.00
    0   26    0      2.84      0.00
    0   26    1      3.05      0.00
    0   26    2      3.92      0.00
    0   26    3      0.91      0.00
    0   26    4     -5.43      0.00
    0   26    5      2.04      0.00
    0   26    6     -1.10      0.00
    0   26    7      3.46      0.00
    1   26    0     -0.37      0.00
    1   26    1     -1.89      0.00
    1   26    2     -1.41      0.00
    1   26    3      2.28      0.00
    1   26    4     -0.89      0.00
    1   26    5      0.12      0.00
    1   26    6     -2.80      0.00
    1   26    7     -1.76      0.00
    2   26    0     -2.84      0.00
    2   26    1     -0.29      0.00
    2   26    2      0.53      0.00
    2   26    3      0.80      0.00
    2   26    4      1.91      0.00
    2   26    5      3.55      0.00
    2   26    6     -1.89      0.00
    2   26    7      1.85      0.00
    3   26    0      3.61      0.00
    3   26    1     -3.04      0.00
    3   26    2      1.64      0.00
    3   26    3      1.43      0.00
    3   26    4      4.71      0.00
    3   26    5      5.05      0.00
    3   26    6     -0.95      0.00
    3   26    7     -0.29      0.00
    4   26    0      1.86      0.00
    4   26    1      2.18      0.00
    4   26    2      5.18      0.00
    4   26    3     -3.76      0.00
    4   26    4      1.63      0.00
    4   26    5      1.07      0.00
    4   26    6      0.25      0.00
    4   26    7      1.35      0.00
    5   26    0     -0.44      0.00
    5   26    1     -0.69      0.00
    5   26    2     -0.60      0.00
    5   26    3     -2.76      0.00
    5   26    4     -2.37      0.00
    5   26    5     -1.25      0.00
    5   26    6     -1.26      0.00
    6   26    0     -1.37      0.00
    6   26    1      0.24      0.00
    6   26    2     -1.00      0.00
    6   26    3      1.70      0.00
    6   26    4      0.16      0.00
    6   26    5      1.70      0.00
    6   26    6     -1.18      0.00
    7   26    0      0.27      0.00
    7   26    1     -0.05      0.00
    7   26    2     -3.87      0.00
    7   26    3     -0.61      0.00
    7   26    4      4.29      0.00
    7   26    5     -0.89      0.00
    7   26    6      1.92      0.00
    8   26    0     -1.58      0.00
    8   26    1      1.67      0.00
    8   26    2      0.86      0.00
    8   26    3     -0.19      0.00
    8   26    4     -2.87      0.00
    8   26    5     -4.65      0.00
    9   26    0     -0.06      0.00
    9   26    1      2.51      0.00
    9   26    2      0.10      0.00
    9   26    3     -2.15      0.00
    9   26    4      0.56      0.00
    9   26    5     -0.19      0.00
   10   26    0     -5.91      0.00
   10   26    1      0.95      0.00
   10   26    2      1.80      0.00
   10   26    3      3.09      0.00
   10   26    4      1.14      0.00
   11   26    0      0.63      0.00
   11   26    1     -4.39      0.00
   11   26    2      2.88      0.00
   11   26    3     -1.50      0.00
    0   27    0      3.39      0.00
    0   27    1      3.32      0.00
    0   27    2      1.06      0.00
    0   27    3     -0.09      0.00
    0   27    4      3.38      0.00
    0   27    5      2.03      0.00
    1   27    0      4.30      0.00
    1   27    1     -1.61      0.00
    1   27    2      0.07      0.00
    1   27    3     -0.37      0.00
    1   27    4     -0.39      0.00
    1   27    5     -1.57      0.00
    2   27    0     -0.51      0.00
    2   27    1     -0.04      0.00
    2   27    2     -5.68      0.00
    2   27    3      0.36      0.00
    2   27    4     -1.46      0.00
    2   27    5     -0.28      0.00
    3   27    0      1.07      0.00
    3   27    1     -2.58      0.00
    3   27    2      0.85      0.00
    3   27    3      0.63      0.00
    3   27    4      2.93      0.00
    3   27    5      2.14      0.00
    4   27    0     -1.50      0.00
    4   27    1     -0.08      0.00
    4   27    2      1.47      0.00
    4   27    3      1.47      0.00
    4   27    4     -2.86      0.00
    4   27    5      1.11      0.00
    5   27    0     -0.19      0.00
    5   27    1      0.62      0.00
    5   27    2      0.06      0.00
    5   27    3     -0.57      0.00
    5   27    4     -0.48      0.00
    5   27    5     -0.51      0.00
    6   27    0      1.26      0.00
    6   27    1     -0.08      0.00
    6   27    2      1.72      0.00
    6   27    3      0.83      0.00
    6   27    4     -0.29      0.00
    7   27    0      3.27      0.00
    7   27    1     -0.29      0.00
    7   27    2     -0.12      0.00
    7   27    3      5.04      0.00
    7   27    4      1.54      0.00
    8   27    0     -2.39      0.00
    8   27    1      0.39      0.00
    8   27    2      0.54      0.00
    8   27    3     -3.68      0.00
    9   27    0      1.84      0.00
    9   27    1      0.58      0.00
    9   27    2     -5.95      0.00
    1   28    0      4.09      0.00
    1   28    1      5.93      0.00
    1   28    2     -4.36      0.00
    2   28    0     -1.09      0.00
    2   28    1     -2.56      0.00
    2   28    2     -5.82      0.00
    3   28    0      0.57      0.00
    3   28    1      4.18      0.00
    3   28    2      0.07      0.00
    4   28    0     -4.62      0.00
    4   28    1      2.53      0.00
    4   28    2      1.50      0.00
    5   28    0     -0.27      0.00
    5   28    1     -0.13      0.00
    5   28    2      1.00      0.00
    6   28    0     -0.03      0.00
    0    1    0      6.10      0.00
    1    1    0    224.81      0.00
    0    8    0     27.99      0.00
    0    9    0    -17.76      0.00
   20   21    0      7.59      0.00
   21   21    0     -4.91      0.00
   19   22    0      2.31      0.00
   20   22    0     -3.01      0.00
   21   22    0     -1.96      0.00
   22   22    0     -9.20      0.00
   18   23    0     -2.16      0.00
   19   23    0      1.31      0.00
   20   23    0      1.83      0.00
   21   23    0     -5.99      0.00
   22   23    0     -1.19      0.00
   16   24    0      3.22      0.00
   17   24    0     -5.83      0.00
   18   24    0     -5.58      0.00
   19   24    0     -1.47      0.00
   20   24    0      0.81      0.00
   14   25    0      1.43      0.00
   15   25    0      4.83      0.00
   16   25    0     -1.89      0.00
   17   25    0      0.34      0.00
   18   25    0     -2.70      0.00
   19   25    0      1.12      0.00
   12   26    0      4.55      0.00
   13   26    0      3.17      0.00
   14   26    0      4.23      0.00
   15   26    0     -3.98      0.00
   16   26    0     -3.66      0.00
   17   26    0     -0.99      0.00
   18   26    0      1.96      0.00
   10   27    0     -1.64      0.00
   11   27    0      2.54      0.00
   12   27    0     -8.82      0.00
   13   27    0      3.92      0.00
   14   27    0     -1.57      0.00
   15   27    0      2.31      0.00
   16   27    0     -5.18      0.00
    0   28    0     11.13      0.00
    7   28    0      4.10      0.00
    8   28    0      3.03      0.00
    9   28    0      2.72      0.00
   10   28    0      4.56      0.00
   11   28    0     -1.86      0.00
   12   28    0      1.75      0.00
   13   28    0     -5.81      0.00
   14   28    0     -0.46      0.00
   15   28    0     -1.95      0.00
   20   21    1     -4.93      0.00
   19   22    1     -3.51      0.00
   20   22    1      2.10      0.00
   21   22    1      0.13      0.00
   18   23    1      2.20      0.00
   19   23    1      5.33      0.00
   20   23    1      0.80      0.00
   21   23    1      1.87      0.00
   22   23    1      2.17      0.00
   16   24    1      1.26      0.00
   17   24    1     -1.29      0.00
   18   24    1      1.71      0.00
   19   24    1      2.76      0.00
   20   24    1      1.33      0.00
   14   25    1      5.31      0.00
   15   25    1     -2.96      0.00
   16   25    1     -1.95      0.00
   17   25    1     -1.61      0.00
   18   25    1     -3.06      0.00
   19   25    1     -0.67      0.00
   12   26    1     -3.37      0.00
   13   26    1      3.30      0.00
   14   26    1     -2.12      0.00
   15   26    1     -0.69      0.00
   16   26    1      1.41      0.00
   17   26    1      0.59      0.00
   18   26    1     -1.88      0.00
   10   27    1      3.42      0.00
   11   27    1      1.78      0.00
   12   27    1     -1.08      0.00
   13   27    1     -2.92      0.00
   14   27    1      2.41      0.00
   15   27    1     -2.37      0.00
   16   27    1     -1.85      0.00
    0   28    1      0.05      0.00
    6   28    1     -2.26      0.00
    7   28    1     -0.87      0.00
    8   28    1     -3.20      0.00
    9   28    1      0.57      0.00
   10   28    1     -0.14      0.00
   11   28    1      3.52      0.00
   12   28    1      2.59      0.00
   13   28    1      3.40      0.00
   14   28    1     -1.78      0.00
   15   28    1     -2.79      0.00
   20   21    2     -2.20      0.00
   21   21    2     -5.95      0.00
   19   22    2      3.08      0.00
   20   22    2     -2.20      0.00
   21   22    2      3.78      0.00
   22   22    2     -3.00      0.00
   17   23    2     -8.20      0.00
   18   23    2     -2.81      0.00
   19   23    2      7.83      0.00
   20   23    2     -3.96      0.00
   21   23    2     -0.81      0.00
   16   24    2      0.75      0.00
   17   24    2     -3.12      0.00
   18   24    2      0.23      0.00
   19   24    2     -1.56      0.00
   20   24    2      4.49      0.00
   14   25    2     -2.07      0.00
   15   25    2     -2.42      0.00
   16   25    2      0.83      0.00
   17   25    2      0.07      0.00
   18   25    2      1.22      0.00
   19   25    2      2.94      0.00
   12   26    2      3.71      0.00
   13   26    2      1.41      0.00
   14   26    2      1.47      0.00
   15   26    2     -2.07      0.00
   16   26    2     -2.79      0.00
   17   26    2      1.50      0.00
   18   26    2      2.42      0.00
   10   27    2      3.94      0.00
   11   27    2     -1.70      0.00
   12   27    2      1.04      0.00
   13   27    2     -0.65      0.00
   14   27    2      5.67      0.00
   15   27    2      1.02      0.00
   16   27    2     -0.76      0.00
    0   28    2      3.04      0.00
    6   28    2     -0.46      0.00
    7   28    2      3.60      0.00
    8   28    2     -0.67      0.00
    9   28    2     -0.38      0.00
   10   28    2     -1.92      0.00
   11   28    2      2.31      0.00
   12   28    2     -3.34      0.00
   13   28    2     -2.60      0.00
   14   28    2     -1.15      0.00
   19   21    3      0.95      0.00
   20   21    3      2.48      0.00
   18   22    3     -5.71      0.00
   19   22    3      1.76      0.00
   20   22    3     -2.06      0.00
   21   22    3      0.15      0.00
   17   23    3     -3.52      0.00
   18   23    3     -5.09      0.00
   19   23    3     -0.04      0.00
   20   23    3      0.79      0.00
   21   23    3     -2.13      0.00
   16   24    3      0.81      0.00
   17   24    3     -1.93      0.00
   18   24    3     -0.74      0.00
   19   24    3      1.40      0.00
   20   24    3      2.30      0.00
   14   25    3     -1.31      0.00
   15   25    3     -3.86      0.00
   16   25    3      2.64      0.00
   17   25    3     -0.50      0.00
   18   25    3     -1.67      0.00
   19   25    3      0.56      0.00
   12   26    3     -1.63      0.00
   13   26    3      4.21      0.00
   14   26    3      2.31      0.00
   15   26    3      2.34      0.00
   16   26    3     -0.80      0.00
   17   26    3      2.09      0.00
    9   27    3      3.98      0.00
   10   27    3     -2.62      0.00
   11   27    3      1.90      0.00
   12   27    3     -4.87      0.00
   13   27    3      0.90      0.00
   14   27    3      3.15      0.00
   15   27    3     -1.55      0.00
   16   27    3      0.39      0.00
    0   28    3     -4.95      0.00
    1   28    3     -4.46      0.00
    2   28    3     -0.73      0.00
    3   28    3      1.74      0.00
    4   28    3      1.00      0.00
    5   28    3     -0.89      0.00
    6   28    3      3.60      0.00
    7   28    3      1.24      0.00
    8   28    3      3.44      0.00
    9   28    3     -4.33      0.00
   10   28    3      2.73      0.00
   11   28    3     -3.55      0.00
   12   28    3     -0.30      0.00
   13   28    3     -0.75      0.00
   14   28    3     -0.04      0.00
   20   20    4      3.40      0.00
   19   21    4     -0.74      0.00
   20   21    4     -0.84      0.00
   21   21    4      5.26      0.00
   18   22    4      2.10      0.00
   19   22    4     -4.67      0.00
   20   22    4     -1.74      0.00
   21   22    4     -2.71      0.00
   22   22    4     -1.71      0.00
   16   23    4      0.60      0.00
   17   23    4     -3.10      0.00
   18   23    4      0.07      0.00
   19   23    4     -4.39      0.00
   20   23    4     -0.24      0.00
   21   23    4     -2.83      0.00
   15   24    4      3.11      0.00
   16   24    4     -0.47      0.00
   17   24    4      0.20      0.00
   18   24    4     -2.76      0.00
   19   24    4     -1.39      0.00
   13   25    4      1.44      0.00
   14   25    4      6.12      0.00
   15   25    4      0.24      0.00
   16   25    4      1.91      0.00
   17   25    4      2.17      0.00
   18   25    4      0.13      0.00
   11   26    4     -1.04      0.00
   12   26    4     -5.77      0.00
   13   26    4      2.87      0.00
   14   26    4      0.86      0.00
   15   26    4      1.57      0.00
   16   26    4     -5.17      0.00
   17   26    4      3.73      0.00
    8   27    4      1.33      0.00
    9   27    4      2.12      0.00
   10   27    4      0.53      0.00
   11   27    4      0.83      0.00
   12   27    4     -2.91      0.00
   13   27    4     -1.49      0.00
   14   27    4      1.09      0.00
   15   27    4     -1.91      0.00
    0   28    4      1.36      0.00
    1   28    4      3.73      0.00
    2   28    4     -4.05      0.00
    3   28    4     -0.13      0.00
    4   28    4     -4.22      0.00
    5   28    4     -5.21      0.00
    6   28    4     -2.79      0.00
    7   28    4      1.27      0.00
    8   28    4     -1.34      0.00
    9   28    4     -0.51      0.00
   10   28    4      2.57      0.00
   11   28    4      2.40      0.00
   12   28    4      1.69      0.00
   13   28    4      0.59      0.00
   19   20    5     -1.96      0.00
   18   21    5      0.01      0.00
   19   21    5     -1.34      0.00
   20   21    5     -4.52      0.00
   17   22    5     -2.45      0.00
   18   22    5     -0.91      0.00
   19   22    5     -0.54      0.00
   20   22    5     -0.85      0.00
   21   22    5     -3.00      0.00
   15   23    5      3.67      0.00
   16   23    5      0.59      0.00
   17   23    5     -3.70      0.00
   18   23    5      3.71      0.00
   19   23    5      2.68      0.00
   20   23    5      0.33      0.00
   14   24    5     -2.90      0.00
   15   24    5     -1.25      0.00
   16   24    5      2.10      0.00
   17   24    5      0.23      0.00
   18   24    5     -1.89      0.00
   19   24    5      5.32      0.00
   12   25    5     -0.67      0.00
   13   25    5     -1.29      0.00
   14   25    5     -2.70      0.00
   15   25    5      3.07      0.00
   16   25    5     -3.34      0.00
   17   25    5     -0.51      0.00
   10   26    5     -6.04      0.00
   11   26    5      0.69      0.00
   12   26    5     -5.12      0.00
   13   26    5      1.03      0.00
   14   26    5      1.26      0.00
   15   26    5     -1.74      0.00
   16   26    5      2.39      0.00
    6   27    5     -5.04      0.00
    7   27    5      2.00      0.00
    8   27    5     -2.78      0.00
    9   27    5     -7.51      0.00
   10   27    5      2.99      0.00
   11   27    5     -0.95      0.00
   12   27    5      4.83      0.00
   13   27    5     -3.13      0.00
   14   27    5      3.85      0.00
    0   28    5      0.53      0.00
    1   28    5     -0.69      0.00
    2   28    5     -0.28      0.00
    3   28    5      0.89      0.00
    4   28    5      3.42      0.00
    5   28    5     -4.98      0.00
    6   28    5      1.31      0.00
    7   28    5     -3.33      0.00
    8   28    5     -0.42      0.00
    9   28    5     -1.24      0.00
   10   28    5      1.59      0.00
   11   28    5      4.63      0.00
   12   28    5      1.64      0.00
   19   19    6      0.00      0.00
   18   20    6      3.56      0.00
   19   20    6     -7.65      0.00
   20   20    6      4.91      0.00
   17   21    6     -0.30      0.00
   18   21    6      2.26      0.00
   19   21    6      2.44      0.00
   20   21    6     -4.80      0.00
   21   21    6      3.76      0.00
   16   22    6     -5.07      0.00
   17   22    6     -0.24      0.00
   18   22    6      0.78      0.00
   19   22    6      1.44      0.00
   20   22    6      1.58      0.00
   14   23    6      3.44      0.00
   15   23    6      1.59      0.00
   16   23    6      1.87      0.00
   17   23    6     -1.15      0.00
   18   23    6     -1.74      0.00
   19   23    6      0.92      0.00
   13   24    6      0.96      0.00
   14   24    6     -4.34      0.00
   15   24    6      6.90      0.00
   16   24    6      3.72      0.00
   17   24    6     -0.07      0.00
   18   24    6     -1.78      0.00
   11   25    6     -3.45      0.00
   12   25    6      0.13      0.00
   13   25    6     -5.44      0.00
   14   25    6      1.39      0.00
   15   25    6     -7.38      0.00
   16   25    6      2.67      0.00
   17   25    6      0.88      0.00
    8   26    6     -1.78      0.00
    9   26    6      5.21      0.00
   10   26    6     -2.29      0.00
   11   26    6      1.28      0.00
   12   26    6     -2.23      0.00
   13   26    6      1.41      0.00
   14   26    6     -3.52      0.00
   15   26    6      0.24      0.00
    0   27    6     -4.24      0.00
    1   27    6     -2.17      0.00
    2   27    6     -3.18      0.00
    3   27    6     -4.15      0.00
    4   27    6     -3.19      0.00
    5   27    6     -2.31      0.00
    6   27    6      2.49      0.00
    7   27    6     -3.64      0.00
    8   27    6      2.83      0.00
    9   27    6     -4.44      0.00
   10   27    6      0.16      0.00
   11   27    6     -1.13      0.00
   12   27    6      0.94      0.00
   13   27    6      1.53      0.00
    0   28    6      2.71      0.00
    1   28    6     -3.31      0.00
    2   28    6     -1.05      0.00
    3   28    6     -1.77      0.00
    4   28    6      1.67      0.00
    5   28    6     -1.51      0.00
    6   28    6     -1.19      0.00
    7   28    6      0.40      0.00
    8   28    6     -0.97      0.00
    9   28    6     -1.59      0.00
   10   28    6     -1.75      0.00
   11   28    6     -0.18      0.00
   18   19    7      2.65      0.00
   17   20    7     -0.55      0.00
   18   20    7      1.59      0.00
   19   20    7     -0.91      0.00
   16   21    7     -2.23      0.00
   17   21    7      0.53      0.00
   18   21    7     -1.30      0.00
   19   21    7      1.62      0.00
   20   21    7     -2.55      0.00
   15   22    7      7.97      0.00
   16   22    7      1.09      0.00
   17   22    7      0.60      0.00
   18   22    7      0.18      0.00
   19   22    7      0.74      0.00
   20   22    7     -2.25      0.00
   13   23    7     -3.00      0.00
   14   23    7      6.09      0.00
   15   23    7     -4.51      0.00
   16   23    7      3.05      0.00
   17   23    7     -1.65      0.00
   18   23    7      2.02      0.00
   11   24    7     -5.03      0.00
   12   24    7      0.43      0.00
   13   24    7      1.26      0.00
   14   24    7     -4.82      0.00
   15   24    7     -3.09      0.00
   16   24    7     -2.60      0.00
   17   24    7     -2.07      0.00
    9   25    7      4.53      0.00
   10   25    7      1.40      0.00
   11   25    7      2.18      0.00
   12   25    7     -1.82      0.00
   13   25    7      4.88      0.00
   14   25    7      2.66      0.00
   15   25    7     -2.10      0.00
   16   25    7     -3.34      0.00
    5   26    7      1.17      0.00
    6   26    7     -2.55      0.00
    7   26    7      2.84      0.00
    8   26    7      0.96      0.00
    9   26    7      3.84      0.00
   10   26    7      6.30      0.00
   11   26    7     -2.36      0.00
   12   26    7     -1.31      0.00
   13   26    7      2.31      0.00
   14   26    7      4.48      0.00
    0   27    7     -1.65      0.00
    1   27    7      4.34      0.00
    2   27    7     -5.05      0.00
    3   27    7      3.01      0.00
    4   27    7     -1.87      0.00
    5   27    7      1.55      0.00
    6   27    7      2.13      0.00
    7   27    7      1.10      0.00
    8   27    7     -1.07      0.00
    9   27    7      0.77      0.00
   10   27    7      0.10      0.00
   11   27    7      1.59      0.00
   12   27    7     -3.27      0.00
    0   28    7      1.79      0.00
    1   28    7     -0.29      0.00
    2   28    7      0.71      0.00
    3   28    7     -0.72      0.00
    4   28    7      0.69      0.00
    5   28    7      0.30      0.00
    6   28    7      0.10      0.00
    7   28    7      2.61      0.00
    8   28    7     -0.78      0.00
    9   28    7     -2.92      0.00
   10   28    7     -1.45      0.00
    0    0    8     16.55      0.00
    0    1    8    -12.15      0.00
   18   18    8     -2.29      0.00
   17   19    8     -1.19      0.00
   18   19    8      2.70      0.00
   19   19    8     -3.39      0.00
   16   20    8     -3.11      0.00
   17   20    8      1.56      0.00
   18   20    8     -5.64      0.00
   19   20    8     -0.87      0.00
   20   20    8     -3.41      0.00
   15   21    8      4.75      0.00
   16   21    8     -1.30      0.00
   17   21    8     -0.11      0.00
   18   21    8      1.78      0.00
   19   21    8     -3.07      0.00
   20   21    8      0.57      0.00
   13   22    8     -3.58      0.00
   14   22    8      3.63      0.00
   15   22    8     -1.46      0.00
   16   22    8      2.48      0.00
   17   22    8      2.67      0.00
   18   22    8      1.33      0.00
   12   23    8      1.74      0.00
   13   23    8     -2.32      0.00
   14   23    8     -0.57      0.00
   15   23    8     -0.64      0.00
   16   23    8      2.14      0.00
   17   23    8     -2.20      0.00
    9   24    8      1.50      0.00
   10   24    8     -3.55      0.00
   11   24    8     -2.29      0.00
   12   24    8     -7.36      0.00
   13   24    8     -1.10      0.00
   14   24    8     -1.22      0.00
   15   24    8      0.24      0.00
   16   24    8     -1.15      0.00
    6   25    8     -1.02      0.00
    7   25    8     -2.86      0.00
    8   25    8     -0.67      0.00
    9   25    8      0.52      0.00
   10   25    8      1.04      0.00
   11   25    8     -1.72      0.00
   12   25    8     -1.11      0.00
   13   25    8      2.90      0.00
   14   25    8     -1.29      0.00
    0   26    8      1.44      0.00
    1   26    8      4.71      0.00
    2   26    8     -3.94      0.00
    3   26    8      4.73      0.00
    4   26    8     -2.75      0.00
    5   26    8     -0.19      0.00
    6   26    8      1.05      0.00
    7   26    8      0.00      0.00
    8   26    8     -0.40      0.00
    9   26    8      0.56      0.00
   10   26    8      1.76      0.00
   11   26    8      0.89      0.00
   12   26    8     -1.17      0.00
    0   27    8      0.67      0.00
    1   27    8     -5.25      0.00
    2   27    8      1.71      0.00
    3   27    8     -4.79      0.00
    4   27    8      1.54      0.00
    5   27    8     -1.85      0.00
    6   27    8     -0.22      0.00
    7   27    8      1.59      0.00
    8   27    8     -0.05      0.00
    9   27    8     -1.48      0.00
   10   27    8      0.60      0.00
    0   28    8     -2.52      0.00
    1   28    8     -1.31      0.00
    2   28    8     -3.42      0.00
    3   28    8      4.33      0.00
    4   28    8     -1.38      0.00
    5   28    8     -0.96      0.00
    6   28    8     -1.61      0.00
    7   28    8      1.75      0.00
   17   18    9     -4.48      0.00
   16   19    9     -4.63      0.00
   17   19    9      1.10      0.00
   18   19    9      1.34      0.00
   15   20    9      1.03      0.00
   16   20    9     -1.68      0.00
   17   20    9     -1.23      0.00
   18   20    9      1.00      0.00
   19   20    9      1.69      0.00
   13   21    9     -0.96      0.00
   14   21    9      2.42      0.00
   15   21    9     -3.00      0.00
   16   21    9      1.30      0.00
   17   21    9     -2.00      0.00
   18   21    9     -1.18      0.00
   12   22    9      2.45      0.00
   13   22    9      0.33      0.00
   14   22    9     -1.52      0.00
   15   22    9      1.98      0.00
   16   22    9     -0.75      0.00
   17   22    9     -2.53      0.00
    9   23    9      1.26      0.00
   10   23    9     -2.50      0.00
   11   23    9     -2.15      0.00
   12   23    9     -0.86      0.00
   13   23    9      1.16      0.00
   14   23    9     -4.35      0.00
   15   23    9     -1.67      0.00
   16   23    9      2.21      0.00
    6   24    9      0.83      0.00
    7   24    9     -5.57      0.00
    8   24    9     -0.99      0.00
    9   24    9     -0.59      0.00
   10   24    9     -2.90      0.00
   11   24    9     -2.47      0.00
   12   24    9     -0.05      0.00
   13   24    9     -2.43      0.00
   14   24    9     -3.54      0.00
    0   25    9      6.43      0.00
    1   25    9     -0.40      0.00
    2   25    9     -0.45      0.00
    3   25    9      1.11      0.00
    4   25    9     -2.82      0.00
    5   25    9      4.30      0.00
    6   25    9     -3.60      0.00
    7   25    9     -0.35      0.00
    8   25    9     -1.84      0.00
    9   25    9      3.96      0.00
   10   25    9     -2.36      0.00
   11   25    9     -3.39      0.00
   12   25    9      1.13      0.00
   13   25    9      1.98      0.00
    0   26    9     -8.49      0.00
    1   26    9      0.59      0.00
    2   26    9     -0.94      0.00
    3   26    9     -3.09      0.00
    4   26    9      0.09      0.00
    5   26    9      0.93      0.00
    6   26    9     -1.14      0.00
    7   26    9     -3.25      0.00
    8   26    9      0.32      0.00
    9   26    9      1.11      0.00
   10   26    9      0.86      0.00
   11   26    9     -1.09      0.00
    0   27    9      1.60      0.00
    1   27    9     -1.47      0.00
    2   27    9     -2.65      0.00
    3   27    9      1.10      0.00
    4   27    9     -1.19      0.00
    5   27    9     -1.40      0.00
    6   27    9      2.11      0.00
    7   27    9     -3.12      0.00
    8   27    9      0.17      0.00
    0   28    9     -0.28      0.00
    1   28    9      1.17      0.00
    2   28    9      4.25      0.00
    3   28    9     -3.28      0.00
   16   17   10      0.33      0.00
   17   17   10      3.72      0.00
   15   18   10     -0.24      0.00
   16   18   10     -2.52      0.00
   17   18   10      0.79      0.00
   18   18   10     -5.16      0.00
   14   19   10      1.56      0.00
   15   19   10     -4.53      0.00
   16   19   10     -0.34      0.00
   17   19   10     -3.32      0.00
   18   19   10     -0.20      0.00
   19   19   10      0.90      0.00
   13   20   10     -0.02      0.00
   14   20   10      4.44      0.00
   15   20   10      1.93      0.00
   16   20   10      2.89      0.00
   17   20   10     -0.50      0.00
   18   20   10      0.77      0.00
   11   21   10      0.97      0.00
   12   21   10      1.87      0.00
   13   21   10     -1.32      0.00
   14   21   10     -2.40      0.00
   15   21   10      5.78      0.00
   16   21   10      1.81      0.00
   17   21   10      3.28      0.00
    9   22   10     -4.08      0.00
   10   22   10      1.83      0.00
   11   22   10     -1.11      0.00
   12   22   10      2.36      0.00
   13   22   10      1.72      0.00
   14   22   10     -1.21      0.00
   15   22   10     -3.26      0.00
   16   22   10     -0.66      0.00
    5   23   10      3.44      0.00
    6   23   10     -2.22      0.00
    7   23   10      1.56      0.00
    8   23   10     -1.32      0.00
    9   23   10      7.26      0.00
   10   23   10     -6.29      0.00
   11   23   10     -2.88      0.00
   12   23   10      5.28      0.00
   13   23   10      2.53      0.00
   14   23   10      0.11      0.00
    0   24   10      7.92      0.00
    1   24   10     -1.15      0.00
    2   24   10     -0.38      0.00
    3   24   10     -2.06      0.00
    4   24   10      3.90      0.00
    5   24   10      1.04      0.00
    6   24   10     -2.29      0.00
    7   24   10     -3.72      0.00
    8   24   10      2.11      0.00
    9   24   10      2.12      0.00
   10   24   10     -0.71      0.00
   11   24   10     -3.39      0.00
   12   24   10     -2.17      0.00
   13   24   10      6.75      0.00
    0   25   10     -9.29      0.00
    1   25   10      5.08      0.00
    2   25   10     -5.18      0.00
    3   25   10     -0.65      0.00
    4   25   10     -0.44      0.00
    5   25   10      2.26      0.00
    6   25   10      2.12      0.00
    7   25   10     -5.85      0.00
    8   25   10      1.84      0.00
    9   25   10      0.33      0.00
   10   25   10     -1.04      0.00
   11   25   10     -5.49      0.00
    0   26   10      7.02      0.00
    1   26   10     -0.21      0.00
    2   26   10     -1.84      0.00
    3   26   10     -1.88      0.00
    4   26   10      0.83      0.00
    5   26   10      5.11      0.00
    6   26   10     -1.27      0.00
    7   26   10     -0.84      0.00
    8   26   10     -2.12      0.00
    0   27   10      1.61      0.00
    1   27   10      1.47      0.00
    2   27   10      4.07      0.00
    3   27   10     -1.14      0.00
    4   27   10      0.86      0.00
   15   17   11     -3.94      0.00
   16   17   11      0.96      0.00
   14   18   11     -2.72      0.00
   15   18   11      1.83      0.00
   16   18   11      0.03      0.00
   17   18   11      1.86      0.00
   12   19   11     -1.05      0.00
   13   19   11     -1.85      0.00
   14   19   11     -5.89      0.00
   15   19   11      0.97      0.00
   16   19   11      1.96      0.00
   17   19   11      2.78      0.00
   18   19   11     -0.46      0.00
   10   20   11      1.00      0.00
   11   20   11      3.13      0.00
   12   20   11      3.78      0.00
   13   20   11     -0.76      0.00
   14   20   11      3.70      0.00
   15   20   11      0.81      0.00
   16   20   11      3.46      0.00
   17   20   11     -1.68      0.00
    7   21   11     -0.08      0.00
    8   21   11     -1.39      0.00
    9   21   11     -1.15      0.00
   10   21   11      1.10      0.00
   11   21   11      4.60      0.00
   12   21   11     -0.85      0.00
   13   21   11      3.43      0.00
   14   21   11      0.46      0.00
   15   21   11      2.51      0.00
    4   22   11      2.41      0.00
    5   22   11     -4.64      0.00
    6   22   11     -2.60      0.00
    7   22   11      1.25      0.00
    8   22   11      0.77      0.00
    9   22   11     -3.69      0.00
   10   22   11     -0.59      0.00
   11   22   11     -1.28      0.00
   12   22   11     -2.33      0.00
   13   22   11     -1.37      0.00
   14   22   11      0.32      0.00
    0   23   11     -0.68      0.00
    1   23   11     -0.79      0.00
    2   23   11      0.32      0.00
    3   23   11      3.49      0.00
    4   23   11      8.25      0.00
    5   23   11     -1.39      0.00
    6   23   11      0.55      0.00
    7   23   11     -0.14      0.00
    8   23   11      1.42      0.00
    9   23   11     -1.58      0.00
   10   23   11      0.87      0.00
   11   23   11     -2.29      0.00
   12   23   11     -2.89      0.00
    0   24   11      1.74      0.00
    1   24   11     -4.92      0.00
    2   24   11     -3.94      0.00
    3   24   11     -0.31      0.00
    4   24   11      1.51      0.00
    5   24   11      0.27      0.00
    6   24   11      0.45      0.00
    7   24   11      0.94      0.00
    8   24   11     -0.26      0.00
    9   24   11      2.09      0.00
   10   24   11      0.35      0.00
    0   25   11     -2.43      0.00
    1   25   11      0.79      0.00
    2   25   11     -3.65      0.00
    3   25   11     -1.11      0.00
    4   25   11     -2.22      0.00
    5   25   11      0.13      0.00
    6   25   11     -2.42      0.00
    7   25   11      2.69      0.00
    8   25   11      0.39      0.00
    0   26   11      1.86      0.00
    1   26   11      0.30      0.00
    2   26   11     -1.07      0.00
    3   26   11      0.29      0.00
   12   12   12     -5.26      0.00
   12   13   12     -9.42      0.00
   13   14   12      6.86      0.00
   15   15   12     -0.47      0.00
   13   16   12     -6.58      0.00
   14   16   12     -5.88      0.00
   15   16   12     -2.81      0.00
   16   16   12      2.99      0.00
   12   17   12     -0.48      0.00
   13   17   12     -1.42      0.00
   14   17   12     -5.64      0.00
   15   17   12     -0.81      0.00
   16   17   12     -3.72      0.00
   17   17   12      6.03      0.00
   11   18   12      4.83      0.00
   12   18   12      1.23      0.00
   13   18   12      0.04      0.00
   14   18   12     -0.71      0.00
   15   18   12     -0.39      0.00
   16   18   12      4.16      0.00
   17   18   12     -3.42      0.00
    9   19   12     -3.20      0.00
   10   19   12     -2.21      0.00
   11   19   12     -2.46      0.00
   12   19   12      1.12      0.00
   13   19   12      0.69      0.00
   14   19   12      3.89      0.00
   15   19   12     -1.95      0.00
   16   19   12      2.63      0.00
    6   20   12     -1.63      0.00
    7   20   12      0.34      0.00
    8   20   12      5.55      0.00
    9   20   12      1.36      0.00
   10   20   12     -2.39      0.00
   11   20   12     -0.39      0.00
   12   20   12      1.10      0.00
   13   20   12     -0.78      0.00
   14   20   12     -0.62      0.00
   15   20   12      3.04      0.00
    0   21   12     -1.35      0.00
    1   21   12     -1.94      0.00
    2   21   12      1.24      0.00
    3   21   12     -5.63      0.00
    4   21   12      5.43      0.00
    5   21   12     -4.03      0.00
    6   21   12     -1.07      0.00
    7   21   12     -0.33      0.00
    8   21   12     -0.46      0.00
    9   21   12      5.58      0.00
   10   21   12      1.75      0.00
   11   21   12      3.99      0.00
   12   21   12     -1.56      0.00
   13   21   12      2.51      0.00
    0   22   12      3.46      0.00
    1   22   12      2.50      0.00
    2   22   12     -0.15      0.00
    3   22   12      4.43      0.00
    4   22   12     -1.61      0.00
    5   22   12      2.07      0.00
    6   22   12     -1.93      0.00
    7   22   12      0.71      0.00
    8   22   12      2.57      0.00
    9   22   12      0.21      0.00
   10   22   12      0.19      0.00
   11   22   12     -0.57      0.00
   12   22   12      4.93      0.00
    0   23   12     -1.68      0.00
    1   23   12      8.68      0.00
    2   23   12     -3.87      0.00
    3   23   12      2.94      0.00
    4   23   12     -1.85      0.00
    5   23   12      0.66      0.00
    6   23   12     -0.60      0.00
    7   23   12      2.37      0.00
    8   23   12      0.55      0.00
    9   23   12      0.33      0.00
    0   24   12      4.43      0.00
    1   24   12     -5.99      0.00
    2   24   12      4.99      0.00
    3   24   12     -4.21      0.00
    4   24   12      1.45      0.00
    5   24   12     -2.25      0.00
    6   24   12     -0.20      0.00
    7   24   12     -1.25      0.00
    0   25   12     -2.52      0.00
    1   25   12     -0.17      0.00
   12   15   13      0.85      0.00
   13   15   13      4.37      0.00
   14   15   13     -0.88      0.00
   11   16   13      2.60      0.00
   12   16   13      3.55      0.00
   13   16   13     -1.64      0.00
   14   16   13      0.77      0.00
   15   16   13     -3.11      0.00
    9   17   13      7.14      0.00
   10   17   13     -5.45      0.00
   11   17   13      4.79      0.00
   12   17   13     -2.14      0.00
   13   17   13      4.51      0.00
   14   17   13     -2.08      0.00
   15   17   13      0.89      0.00
   16   17   13      0.33      0.00
    6   18   13      1.60      0.00
    7   18   13     -1.13      0.00
    8   18   13     -5.63      0.00
    9   18   13     -3.68      0.00
   10   18   13      4.58      0.00
   11   18   13     -0.13      0.00
   12   18   13      1.24      0.00
   13   18   13     -4.35      0.00
   14   18   13      2.04      0.00
   15   18   13      3.94      0.00
    0   19   13     -5.74      0.00
    1   19   13     -0.88      0.00
    3   19   13      3.66      0.00
    4   19   13     -1.99      0.00
    5   19   13      3.33      0.00
    6   19   13     -0.04      0.00
    7   19   13     -2.01      0.00
    8   19   13     -0.32      0.00
    9   19   13     -2.18      0.00
   10   19   13      1.20      0.00
   11   19   13      0.25      0.00
   12   19   13      2.22      0.00
   13   19   13     -1.78      0.00
   14   19   13      1.62      0.00
    0   20   13     -0.06      0.00
    1   20   13      1.47      0.00
    2   20   13      1.33      0.00
    3   20   13     -0.78      0.00
    4   20   13      4.08      0.00
    5   20   13      0.14      0.00
    6   20   13      3.00      0.00
    7   20   13      1.59      0.00
    8   20   13      0.90      0.00
    9   20   13      0.33      0.00
   10   20   13      1.14      0.00
   11   20   13      3.28      0.00
   12   20   13     -0.62      0.00
    0   21   13      3.77      0.00
    1   21   13     -0.10      0.00
    2   21   13      1.33      0.00
    3   21   13     -2.23      0.00
    4   21   13     -4.06      0.00
    5   21   13      1.34      0.00
    6   21   13      0.71      0.00
    7   21   13     -0.23      0.00
    8   21   13      3.28      0.00
    9   21   13      1.28      0.00
   10   21   13      2.40      0.00
    0   22   13     -1.53      0.00
    1   22   13     -0.25      0.00
    2   22   13     -2.30      0.00
    3   22   13     -2.45      0.00
    4   22   13     -3.20      0.00
    5   22   13     -2.26      0.00
    6   22   13     -2.04      0.00
    7   22   13      1.91      0.00
    8   22   13      0.36      0.00
    0   23   13     -2.44      0.00
    1   23   13     -1.93      0.00
    2   23   13     -1.80      0.00
    3   23   13     -0.91      0.00
    4   23   13     -2.52      0.00
    5   23   13      0.59      0.00
   12   13   14      2.41      0.00
   13   13   14      2.69      0.00
   11   14   14     -4.43      0.00
   12   14   14     -2.22      0.00
   13   14   14     -5.10      0.00
   14   14   14      1.42      0.00
    9   15   14      1.36      0.00
   10   15   14     -1.03      0.00
   11   15   14     -0.57      0.00
   12   15   14      3.03      0.00
   13   15   14     -0.91      0.00
   14   15   14     -2.41      0.00
   15   15   14     -0.43      0.00
    0   16   14      5.10      0.00
    1   16   14      4.16      0.00
    2   16   14     -2.08      0.00
    3   16   14      0.42      0.00
    4   16   14     -9.42      0.00
    5   16   14     -1.42      0.00
    6   16   14     -4.40      0.00
    7   16   14      2.14      0.00
    8   16   14     -8.18      0.00
    9   16   14     -1.98      0.00
   10   16   14      4.10      0.00
   11   16   14      4.37      0.00
   12   16   14      0.84      0.00
   13   16   14      0.25      0.00
   14   16   14      0.98      0.00
   15   16   14      3.05      0.00
    0   17   14     -1.25      0.00
    1   17   14      0.69      0.00
    2   17   14      5.47      0.00
    3   17   14     -2.28      0.00
    4   17   14     -4.48      0.00
    5   17   14     -1.07      0.00
    6   17   14      1.38      0.00
    7   17   14     -0.34      0.00
    8   17   14      2.43      0.00
    9   17   14     -0.73      0.00
   10   17   14     -0.92      0.00
   11   17   14      1.83      0.00
   12   17   14      0.12      0.00
   13   17   14     -0.18      0.00
   14   17   14     -1.12      0.00
    0   18   14      0.57      0.00
    1   18   14     -0.78      0.00
    2   18   14      2.36      0.00
    3   18   14      0.86      0.00
    4   18   14     -2.22      0.00
    5   18   14     -2.68      0.00
    6   18   14      3.69      0.00
    7   18   14      2.57      0.00
    8   18   14     -0.57      0.00
    9   18   14     -2.75      0.00
   10   18   14      4.69      0.00
   11   18   14      2.12      0.00
   12   18   14     -2.52      0.00
    0   19   14     -3.24      0.00
    1   19   14      2.46      0.00
    2   19   14      5.41      0.00
    3   19   14     -2.67      0.00
    4   19   14     -2.94      0.00
    5   19   14      0.85      0.00
    6   19   14      0.01      0.00
    7   19   14      0.42      0.00
    8   19   14      0.28      0.00
    9   19   14      0.70      0.00
   10   19   14     -1.29      0.00
   11   19   14      4.83      0.00
    0   20   14     -0.34      0.00
    1   20   14      2.88      0.00
    2   20   14     -1.25      0.00
    3   20   14      2.24      0.00
    4   20   14     -3.14      0.00
    5   20   14     -0.28      0.00
    6   20   14     -1.38      0.00
    7   20   14      1.02      0.00
    8   20   14     -0.84      0.00
    9   20   14     -0.02      0.00
    0   21   14     -3.84      0.00
    1   21   14     -1.37      0.00
    2   21   14      1.29      0.00
    3   21   14     -2.88      0.00
    4   21   14      1.31      0.00
    5   21   14      0.46      0.00
    6   21   14     -1.52      0.00
    0   22   14     -0.15      0.00
    1   22   14     -2.65      0.00
    2   22   14     -2.61      0.00
   10   11   15     -7.64      0.00
    9   12   15      1.34      0.00
   10   12   15      2.41      0.00
   11   12   15     -4.17      0.00
    7   13   15     -5.61      0.00
    8   13   15      6.88      0.00
    9   13   15      2.28      0.00
   10   13   15      4.09      0.00
   11   13   15     -2.79      0.00
   12   13   15      3.95      0.00
    0   14   15      2.13      0.00
    1   14   15     12.24      0.00
    2   14   15      5.66      0.00
    3   14   15      6.38      0.00
    4   14   15     -1.98      0.00
    5   14   15      7.19      0.00
    6   14   15     -1.19      0.00
    7   14   15      4.52      0.00
    8   14   15     -7.40      0.00
    9   14   15     -0.13      0.00
   10   14   15      3.09      0.00
   11   14   15      0.56      0.00
   12   14   15     -6.68      0.00
   13   14   15      3.75      0.00
    0   15   15      1.99      0.00
    1   15   15     -0.88      0.00
    2   15   15     -2.54      0.00
    3   15   15     -1.87      0.00
    4   15   15     -1.52      0.00
    5   15   15      6.67      0.00
    6   15   15     -4.31      0.00
    7   15   15     -2.61      0.00
    8   15   15     -5.38      0.00
    9   15   15      1.74      0.00
   10   15   15     -4.86      0.00
   11   15   15      0.83      0.00
   12   15   15     -1.32      0.00
   13   15   15      1.75      0.00
    0   16   15     -3.65      0.00
    1   16   15     -7.11      0.00
    2   16   15      1.46      0.00
    3   16   15     -6.21      0.00
    4   16   15     -0.50      0.00
    5   16   15     -7.89      0.00
    6   16   15      3.65      0.00
    7   16   15     -0.76      0.00
    8   16   15      2.08      0.00
    9   16   15     -0.14      0.00
   10   16   15      5.47      0.00
   11   16   15     -2.10      0.00
   12   16   15     -2.22      0.00
    0   17   15      1.93      0.00
    1   17   15      2.87      0.00
    2   17   15      0.65      0.00
    3   17   15     -1.76      0.00
    4   17   15     -1.83      0.00
    5   17   15     -1.43      0.00
    6   17   15      2.06      0.00
    7   17   15      0.52      0.00
    8   17   15      5.15      0.00
    9   17   15      2.26      0.00
   10   17   15      1.55      0.00
   11   17   15     -1.06      0.00
    0   18   15      4.45      0.00
    1   18   15      4.27      0.00
    2   18   15      0.95      0.00
    3   18   15      2.36      0.00
    4   18   15     -1.93      0.00
    5   18   15     -2.18      0.00
    6   18   15      0.71      0.00
    7   18   15      3.12      0.00
    8   18   15     -1.97      0.00
    9   18   15      1.52      0.00
    0   19   15     -6.34      0.00
    1   19   15      1.40      0.00
    2   19   15     -1.31      0.00
    3   19   15      0.21      0.00
    4   19   15     -3.67      0.00
    5   19   15      0.19      0.00
    6   19   15     -0.67      0.00
    7   19   15      1.37      0.00
    0   20   15     -0.52      0.00
    1   20   15     -6.76      0.00
    2   20   15     -0.01      0.00
    3   20   15     -1.74      0.00
    8    9   16     -9.07      0.00
    9    9   16      3.29      0.00
    6   10   16      1.43      0.00
    7   10   16      6.55      0.00
    8   10   16      2.83      0.00
    9   10   16     -5.32      0.00
   10   10   16     -3.69      0.00
    3   11   16     -7.78      0.00
    4   11   16     -3.95      0.00
    5   11   16    -17.69      0.00
    6   11   16      1.35      0.00
    7   11   16     -0.80      0.00
    8   11   16      1.59      0.00
    9   11   16      1.04      0.00
   10   11   16     -0.12      0.00
   11   11   16     -1.41      0.00
    0   12   16    -10.33      0.00
    1   12   16     16.45      0.00
    2   12   16     -3.72      0.00
    3   12   16      9.30      0.00
    4   12   16    -15.53      0.00
    5   12   16     -0.35      0.00
    6   12   16     -5.24      0.00
    7   12   16     -0.11      0.00
    8   12   16     -0.06      0.00
    9   12   16     -6.97      0.00
   10   12   16      2.96      0.00
   11   12   16      1.94      0.00
   12   12   16      1.51      0.00
    0   13   16      8.20      0.00
    1   13   16     -3.95      0.00
    2   13   16      7.26      0.00
    3   13   16      0.31      0.00
    4   13   16      5.59      0.00
    5   13   16      1.88      0.00
    6   13   16      6.74      0.00
    7   13   16      3.91      0.00
    8   13   16     -7.13      0.00
    9   13   16     -1.50      0.00
   10   13   16     -2.30      0.00
   11   13   16      2.11      0.00
   12   13   16      1.38      0.00
    0   14   16     -4.27      0.00
    1   14   16     -5.67      0.00
    2   14   16      7.35      0.00
    3   14   16     -1.70      0.00
    4   14   16     -0.52      0.00
    5   14   16     -1.60      0.00
    6   14   16      4.74      0.00
    7   14   16      2.19      0.00
    8   14   16      1.97      0.00
    9   14   16     -0.37      0.00
   10   14   16      0.45      0.00
   11   14   16     -0.98      0.00
    0   15   16     -0.11      0.00
    1   15   16      2.91      0.00
    2   15   16     -7.04      0.00
    3   15   16     -2.72      0.00
    4   15   16     -5.26      0.00
    5   15   16     -2.68      0.00
    6   15   16     -0.45      0.00
    7   15   16     -1.33      0.00
    8   15   16     -2.38      0.00
    9   15   16      1.41      0.00
   10   15   16      2.41      0.00
    0   16   16      2.26      0.00
    1   16   16      7.98      0.00
    2   16   16     -2.85      0.00
    3   16   16     -0.87      0.00
    4   16   16     -3.32      0.00
    5   16   16      2.53      0.00
    6   16   16     -0.87      0.00
    7   16   16     -1.95      0.00
    8   16   16     -2.02      0.00
    0   17   16      8.16      0.00
    1   17   16     -0.79      0.00
    2   17   16      3.51      0.00
    3   17   16      1.01      0.00
    4   17   16      3.06      0.00
    5   17   16      0.97      0.00
    6   17   16      0.75      0.00
    0   18   16      0.17      0.00
    1   18   16     -1.25      0.00
    0    1   17     -2.38      0.00
    0    2   17     14.48      0.00
    1    2   17      7.44      0.00
    0    3   17      6.89      0.00
    0    4   17    -11.50      0.00
    0    5   17    -29.03      0.00
    0    6   17    -18.43      0.00
    4    6   17    -25.61      0.00
    5    6   17     -6.65      0.00
    0    7   17     13.67      0.00
    1    7   17     17.60      0.00
    2    7   17     19.59      0.00
    3    7   17      8.13      0.00
    4    7   17      1.32      0.00
    5    7   17     -1.58      0.00
    6    7   17     -3.39      0.00
    0    8   17     -3.95      0.00
    1    8   17     -9.94      0.00
    2    8   17     16.52      0.00
    3    8   17      0.10      0.00
    4    8   17      2.70      0.00
    5    8   17     -1.57      0.00
    6    8   17      9.75      0.00
    7    8   17      7.69      0.00
    0    9   17    -15.42      0.00
    1    9   17    -11.56      0.00
    2    9   17     -7.68      0.00
    3    9   17     -2.08      0.00
    4    9   17      0.64      0.00
    5    9   17     -1.14      0.00
    6    9   17      3.05      0.00
    7    9   17      6.62      0.00
    8    9   17      8.65      0.00
    0   10   17     -4.87      0.00
    1   10   17      0.34      0.00
    2   10   17     -2.67      0.00
    3   10   17      5.04      0.00
    4   10   17     -2.65      0.00
    5   10   17     -0.65      0.00
    6   10   17     -1.60      0.00
    7   10   17     -0.48      0.00
    8   10   17      0.55      0.00
    9   10   17     -2.64      0.00
    0   11   17      3.86      0.00
    1   11   17      4.53      0.00
    2   11   17      0.45      0.00
    3   11   17      6.87      0.00
    4   11   17      3.22      0.00
    5   11   17     -1.40      0.00
    6   11   17     -4.82      0.00
    7   11   17     -2.85      0.00
    8   11   17     -1.52      0.00
    9   11   17     -3.89      0.00
   10   11   17     -3.26      0.00
    0   12   17      0.32      0.00
    1   12   17     -3.54      0.00
    2   12   17      3.55      0.00
    3   12   17      4.42      0.00
    4   12   17      2.87      0.00
    5   12   17     -1.38      0.00
    6   12   17     -1.50      0.00
    7   12   17      4.52      0.00
    8   12   17     -0.07      0.00
    9   12   17      4.31      0.00
    0   13   17     -3.21      0.00
    1   13   17     -1.19      0.00
    2   13   17     -2.40      0.00
    3   13   17     -0.35      0.00
    4   13   17      2.43      0.00
    5   13   17      0.02      0.00
    6   13   17      1.62      0.00
    7   13   17      4.88      0.00
    8   13   17      4.15      0.00
    0   14   17     -1.81      0.00
    1   14   17     -3.22      0.00
    2   14   17     -0.97      0.00
    3   14   17     -2.93      0.00
    4   14   17      1.17      0.00
    5   14   17     -0.94      0.00
    6   14   17      2.12      0.00
    0   15   17     -0.44      0.00
    1   15   17      0.15      0.00
    2   15   17     -0.99      0.00
    3   15   17      0.10      0.00
    0    0    0      0.00      0.00
# SQUEEZE RESULTS (Version = 150216)
# Note: Data are Listed for all Voids in the P1 Unit Cell
# i.e. Centre of Gravity, Solvent Accessible Volume,
# Recovered number of Electrons in the Void and
# Details about the Squeezed Material
loop_
  _platon_squeeze_void_nr
  _platon_squeeze_void_average_x
  _platon_squeeze_void_average_y
  _platon_squeeze_void_average_z
  _platon_squeeze_void_volume
  _platon_squeeze_void_count_electrons
  _platon_squeeze_void_content
   1  0.000  0.000 -0.025      2654       460 ' '
   2  0.104  0.363  0.000         6         1 ' '
   3  0.104  0.637  0.000         6         1 ' '
   4  0.186  0.367  0.000        11         3 ' '
   5  0.186  0.633  0.000        11         3 ' '
   6  0.500  0.500 -0.020      1705       383 ' '
   7  0.821  0.367  0.000        13         4 ' '
   8  0.821  0.633  0.000        12         4 ' '
   9  0.905  0.363  0.000         4         0 ' '
  10  0.905  0.637  0.000         4         0 ' '
  11  0.367  0.179  0.500        13         4 ' '
  12  0.367  0.821  0.500        13         4 ' '
  13  0.633  0.179  0.500        12         4 ' '
  14  0.633  0.821  0.500        12         4 ' '
  15  0.363  0.095  0.500         4         0 ' '
  16  0.363  0.905  0.500         4         0 ' '
  17  0.637  0.095  0.500         4         0 ' '
  18  0.637  0.905  0.500         4         0 ' '
# Missing Reflections Below sin(th)/lambda = 0.25
loop_
  _platon_missing_refln_index_h
  _platon_missing_refln_index_k
  _platon_missing_refln_index_l
  _platon_missing_refln_theta
    0    1    0     1.812
    1    1    0     2.563
    0    8    0    14.650
    0    9    0    16.531
_platon_squeeze_void_probe_radius                  1.20
_platon_squeeze_details
)
TITL exp_1054-28-L41 in P4(2)/mmc
CELL   24.3839   24.3839   14.8719     90.00     90.00     90.00
SPGR P42/mmc
# Solvent Accessible Volume =      4479
# Electrons Found in S.A.V. =       871
# Note: Atoms in Void as Cxxx and Qxxx all others
Q101 0.431 0.998 0.266 !       2.37 eA-3
Q102 0.500 0.104 0.061 !       2.34 eA-3
C103 0.894 0.273 0.503 !       2.02 eA-3
C104 0.118 0.682 0.467 !       1.94 eA-3
C105 0.790 0.497 0.203 !       1.69 eA-3
Q106 0.500 0.871 0.285 !       1.60 eA-3
Q107 0.576 0.999 0.188 !       1.50 eA-3
Q108 1.000 0.434 0.433 !       1.34 eA-3
C109 0.148 0.203 0.500 !       1.28 eA-3
C110 0.500 0.270 0.235 !       1.20 eA-3
C111 0.500 0.753 0.343 !       1.17 eA-3
C112 0.269 0.085 0.104 !       1.12 eA-3
C113 0.500 0.723 0.170 !       1.11 eA-3
Q114 0.664 0.266 0.173 !       1.10 eA-3
Q115 0.522 0.117 0.003 !       1.10 eA-3
C116 0.087 0.733 0.444 !       1.09 eA-3
C117 0.500 0.222 0.235 !       1.08 eA-3
Q118 0.076 0.500 0.172 !       1.05 eA-3
Q119 0.819 0.453 0.109 !       1.04 eA-3
Q120 0.584 0.124 0.454 !       1.03 eA-3
C121 0.500 0.741 0.279 !       1.01 eA-3
Q122 0.749 0.211-0.005 !       1.01 eA-3
C123 0.500 0.667 0.155 !       1.01 eA-3
Q124 0.249 0.499 0.094 !       1.00 eA-3
C125 0.111 0.187 0.497 !       1.00 eA-3
C126 0.961 0.249 0.693 !       0.99 eA-3
C127 0.039 0.751 0.307 !       0.99 eA-3
Q128 0.235 0.502 0.031 !       0.98 eA-3
C129 0.500 0.510 0.046 !       0.98 eA-3
Q130 0.814 0.757 0.434 !       0.98 eA-3
C131 0.765 0.047 0.001 !       0.97 eA-3
Q132 0.288 0.028 0.627 !       0.96 eA-3
Q133 0.712 0.972 0.373 !       0.96 eA-3
C134 0.131 0.250 0.495 !       0.96 eA-3
Q135 0.980 0.717 0.187 !       0.96 eA-3
Q136 0.742 0.979 0.795 !       0.96 eA-3
Q137 0.603 0.171 0.437 !       0.95 eA-3
C138 0.111 0.225 0.466 !       0.95 eA-3
C139 0.500 0.398-0.002 !       0.95 eA-3
Q140 1.000 0.681 0.125 !       0.94 eA-3
Q141 0.673 0.070 0.237 !       0.93 eA-3
C142 0.842 0.758 0.459 !       0.93 eA-3
Q143 0.862 0.344-0.005 !       0.92 eA-3
Q144 0.921 0.303 0.481 !       0.92 eA-3
Q145 0.500 0.039 0.035 !       0.92 eA-3
Q146 0.600 0.172 0.496 !       0.92 eA-3
Q147 0.856 0.788 0.440 !       0.91 eA-3
C148 0.298 0.500 0.484 !       0.87 eA-3
Q149 1.000 0.321 0.234 !       0.87 eA-3
C150 0.635 0.484-0.003 !       0.87 eA-3
C151 0.500 0.669 0.222 !       0.87 eA-3
C152 0.271 1.000 0.500 !       0.87 eA-3
C153 0.720 1.000 0.437 !       0.87 eA-3
C154 0.464 0.414 0.000 !       0.86 eA-3
Q155 0.041 0.731 0.892 !       0.86 eA-3
C156 0.892 0.996 0.219 !       0.85 eA-3
Q157 0.765 0.999 0.109 !       0.85 eA-3
Q158 0.820 0.784 0.435 !       0.85 eA-3
C159 1.000 0.740 0.176 !       0.85 eA-3
C160 0.500 0.406 0.503 !       0.85 eA-3
C161 0.500 0.660 0.026 !       0.85 eA-3
Q162 0.799 0.588 0.046 !       0.85 eA-3
Q163 0.259 0.571 0.095 !       0.84 eA-3
C164 0.946 0.215 0.265 !       0.84 eA-3
Q165 0.961 0.703 0.235 !       0.84 eA-3
Q166 1.000 0.703 0.189 !       0.83 eA-3
C167 0.945 0.205 0.203 !       0.83 eA-3
Q168 0.781 0.581 0.108 !       0.83 eA-3
C169 0.500 0.625 0.077 !       0.83 eA-3
C170 0.695 0.498 0.406 !       0.82 eA-3
C171 0.305 0.502 0.594 !       0.82 eA-3
C172 0.446 0.533 0.372 !       0.82 eA-3
C173 0.687 0.483 0.470 !       0.82 eA-3
Q174 0.651 0.587 0.373 !       0.81 eA-3
C175 0.547 0.539 0.186 !       0.81 eA-3
C176 0.704 0.453-0.002 !       0.81 eA-3
C177 0.312 0.500 0.031 !       0.80 eA-3
C178 0.946 0.238 0.251 !       0.80 eA-3
C179 0.540 0.766 0.360 !       0.80 eA-3
Q180 0.697 0.477 0.429 !       0.79 eA-3
Q181 0.719 0.461 0.505 !       0.79 eA-3
C182 0.478 0.244 0.237 !       0.78 eA-3
C183 0.265 0.525 0.031 !       0.78 eA-3
C184 0.062 0.771 0.328 !       0.78 eA-3
C185 0.563 0.430 0.495 !       0.78 eA-3
C186 0.077 0.267 0.332 !       0.77 eA-3
C187 0.819 0.504 0.234 !       0.76 eA-3
Q188 0.230 0.166 0.128 !       0.76 eA-3
Q189 0.385 0.852 0.456 !       0.75 eA-3
Q190 0.467 0.023 0.498 !       0.75 eA-3
C191 1.000 0.021 0.033 !       0.75 eA-3
C192 0.500 0.641 0.110 !       0.75 eA-3
C193 0.500 0.302 0.278 !       0.75 eA-3
C194 0.936 0.213 0.154 !       0.75 eA-3
C195 0.728 0.485 0.455 !       0.74 eA-3
C196 0.493 0.502 0.125 !       0.73 eA-3
C197 1.000 0.840 0.471 !       0.73 eA-3
C198 1.000 0.272 0.252 !       0.73 eA-3
C199 0.779 0.034 0.062 !       0.73 eA-3
)
;
_shelx_fab_checksum              92683
loop_
_space_group_symop_operation_xyz
'x, y, z'
'-y, x, z+1/2'
'-x, -y, z'
'y, -x, z+1/2'
'x, -y, -z'
'-x, y, -z'
'y, x, -z+1/2'
'-y, -x, -z+1/2'
'-x, -y, -z'
'y, -x, -z-1/2'
'x, y, -z'
'-y, x, -z-1/2'
'-x, y, z'
'x, -y, z'
'-y, -x, z-1/2'
'y, x, z-1/2'
loop_
_atom_site_label
_atom_site_type_symbol
_atom_site_fract_x
_atom_site_fract_y
_atom_site_fract_z
_atom_site_U_iso_or_equiv
_atom_site_adp_type
_atom_site_occupancy
_atom_site_site_symmetry_order
_atom_site_calc_flag
_atom_site_refinement_flags_posn
_atom_site_refinement_flags_adp
_atom_site_refinement_flags_occupancy
_atom_site_disorder_assembly
_atom_site_disorder_group
Zr1 Zr 0.42768(4) 0.0000 0.11831(8) 0.0478(4) Uani 1 2 d S TU P . .
Zr2 Zr 0.5000 0.10036(4) 0.0000 0.0290(4) Uani 1 4 d S T P . .
F1 F 0.3773(6) 0.3273(5) 0.0605(10) 0.225(7) Uani 0.719(7) 1 d D U P A 1
F2 F 0.2942(6) 0.3375(6) 0.0748(11) 0.242(7) Uani 0.719(7) 1 d D U P A 1
F3 F 0.3463(7) 0.3651(4) 0.1724(10) 0.226(6) Uani 0.719(7) 1 d D U P A 1
F1A F 0.2068(6) 0.1795(13) 0.3239(17) 0.201(9) Uani 0.281(7) 1 d D U P A 2
F2A F 0.2548(12) 0.2201(10) 0.4160(13) 0.195(9) Uani 0.281(7) 1 d D U P A 2
F3A F 0.2699(12) 0.1399(9) 0.3868(17) 0.190(9) Uani 0.281(7) 1 d D U P A 2
O1 O 0.4451(2) 0.1478(2) 0.0885(5) 0.0533(16) Uani 1 1 d . . . . .
O2 O 0.3980(3) 0.0834(3) 0.1658(6) 0.091(3) Uani 1 1 d . . . . .
O3 O 0.4297(8) 0.0000 0.2653(10) 0.130(4) Uani 1 2 d DS TU P . .
O5 O 0.5000 0.0490(4) 0.1173(9) 0.086(4) Uani 1 2 d S T P . .
O6 O 0.4278(5) 0.0492(4) 0.0000 0.075(3) Uani 1 2 d S T P . .
O7 O 0.3373(4) 0.0000 0.1075(10) 0.092(3) Uani 1 2 d S TU P . .
C1 C 0.2974(3) 0.2552(3) 0.2348(6) 0.137(4) Uani 1 1 d D U . . .
C2 C 0.3343(3) 0.2675(3) 0.1662(6) 0.132(3) Uani 1 1 d D U . . .
H2 H 0.3349 0.3031 0.1401 0.158 Uiso 0.281(7) 1 calc R U P A 2
C3 C 0.3706(3) 0.2271(3) 0.1362(5) 0.116(3) Uani 1 1 d D U . . .
H3 H 0.3959 0.2352 0.0895 0.140 Uiso 1 1 calc R U . . .
C4 C 0.3696(3) 0.1752(3) 0.1743(6) 0.113(3) Uani 1 1 d D U . . .
C5 C 0.3331(4) 0.1631(3) 0.2423(7) 0.136(4) Uani 1 1 d D U . . .
H5 H 0.3328 0.1276 0.2684 0.163 Uiso 1 1 calc R U . . .
C6 C 0.2964(4) 0.2033(4) 0.2730(7) 0.151(4) Uani 1 1 d D U . . .
H6 H 0.2710 0.1950 0.3196 0.181 Uiso 0.719(7) 1 calc R U P A 1
C7 C 0.4079(4) 0.1323(4) 0.1424(7) 0.065(3) Uani 1 1 d . . . . .
C8 C 0.3379(5) 0.3226(4) 0.1211(8) 0.174(5) Uani 0.719(7) 1 d D U P A 1
C9 C 0.4253(8) 0.0000 0.3503(11) 0.140(4) Uani 0.5 2 d DS TU P . .
C10 C 0.46913(17) 0.0000 0.4211(3) 0.153(5) Uani 0.5 2 d DS TU P . .
C11 C 0.48459(11) -0.04943(15) 0.4606(2) 0.164(5) Uani 0.5 1 d D U P . .
C12 C 0.46924(2) -0.0990(3) 0.4212(3) 0.171(5) Uani 0.5 1 d D U P . .
H12 H 0.4482(2) -0.0990(8) 0.3674(5) 0.205 Uiso 0.5 1 d D U P . .
C13 C 0.48448(18) -0.1486(3) 0.4606(3) 0.176(6) Uani 0.5 1 d D U P . .
H13 H 0.4740(4) -0.1823(5) 0.4334(9) 0.211 Uiso 0.5 1 d D U P . .
C8A C 0.2579(6) 0.1871(6) 0.3472(10) 0.173(6) Uani 0.281(7) 1 d D U P A 2
O4 O 0.3782(15) -0.021(3) 0.3628(19) 0.24(4) Uani 0.25 1 d D U P . .
loop_
_atom_site_aniso_label
_atom_site_aniso_U_11
_atom_site_aniso_U_22
_atom_site_aniso_U_33
_atom_site_aniso_U_23
_atom_site_aniso_U_13
_atom_site_aniso_U_12
Zr1 0.0441(6) 0.0248(5) 0.0745(9) 0.000 0.0283(5) 0.000
Zr2 0.0178(6) 0.0150(6) 0.0542(8) 0.000 0.000 0.000
F1 0.235(12) 0.109(9) 0.330(15) 0.068(9) 0.145(11) 0.079(9)
F2 0.218(11) 0.190(13) 0.318(15) 0.079(11) 0.067(10) 0.093(11)
F3 0.246(14) 0.075(7) 0.357(15) -0.003(9) 0.119(11) 0.016(9)
F1A 0.154(12) 0.144(18) 0.30(2) -0.002(16) 0.140(13) 0.005(14)
F2A 0.191(18) 0.141(16) 0.252(16) -0.025(14) 0.146(14) 0.048(16)
F3A 0.188(18) 0.130(13) 0.252(19) 0.003(12) 0.159(15) 0.024(15)
O1 0.037(3) 0.030(3) 0.093(5) -0.011(3) 0.019(3) 0.002(2)
O2 0.092(6) 0.032(3) 0.148(8) -0.012(4) 0.071(5) 0.007(4)
O3 0.179(8) 0.130(8) 0.080(3) 0.000 0.033(5) 0.000
O5 0.047(6) 0.042(5) 0.168(12) 0.046(7) 0.000 0.000
O6 0.104(9) 0.052(6) 0.070(6) 0.000 0.000 -0.052(6)
O7 0.047(4) 0.047(5) 0.182(9) 0.000 0.045(5) 0.000
C1 0.113(7) 0.074(5) 0.224(9) -0.032(6) 0.089(6) 0.024(6)
C2 0.120(6) 0.069(4) 0.206(7) -0.015(5) 0.074(5) 0.037(4)
C3 0.090(6) 0.047(4) 0.212(8) -0.017(5) 0.078(6) 0.016(5)
C4 0.081(6) 0.043(4) 0.215(9) -0.018(6) 0.087(6) 0.009(5)
C5 0.116(7) 0.060(5) 0.231(9) -0.015(6) 0.107(6) 0.019(5)
C6 0.131(7) 0.087(6) 0.235(9) -0.021(6) 0.116(6) 0.021(6)
C7 0.066(6) 0.031(5) 0.099(8) -0.013(5) 0.030(6) 0.011(4)
C8 0.170(9) 0.086(6) 0.266(10) 0.017(7) 0.093(8) 0.064(7)
C9 0.193(9) 0.144(9) 0.083(4) 0.000 0.023(7) 0.000
C10 0.207(10) 0.156(9) 0.096(5) 0.000 0.010(7) 0.000
C11 0.220(11) 0.161(10) 0.111(7) 0.004(4) -0.001(8) 0.002(5)
C12 0.229(12) 0.161(10) 0.123(8) 0.005(6) -0.005(9) 0.000(7)
C13 0.234(13) 0.164(10) 0.128(9) 0.009(7) -0.006(10) 0.000(8)
C8A 0.153(10) 0.111(10) 0.253(12) -0.017(9) 0.134(9) 0.025(9)
O4 0.24(4) 0.24(4) 0.24(4) 0.002(10) 0.004(10) -0.003(10)
loop_
_atom_type_symbol
_atom_type_description
_atom_type_scat_dispersion_real
_atom_type_scat_dispersion_imag
_atom_type_scat_source
C C 0.0181 0.0091 'International Tables Vol C Tables 4.2.6.8 and 6.1.1.4'
H H 0.0000 0.0000 'International Tables Vol C Tables 4.2.6.8 and 6.1.1.4'
O O 0.0492 0.0322 'International Tables Vol C Tables 4.2.6.8 and 6.1.1.4'
F F 0.0727 0.0534 'International Tables Vol C Tables 4.2.6.8 and 6.1.1.4'
Zr Zr -0.1862 2.2449 'International Tables Vol C Tables 4.2.6.8 and 6.1.1.4'
loop_
_geom_angle_atom_site_label_1
_geom_angle_atom_site_label_2
_geom_angle_atom_site_label_3
_geom_angle
_geom_angle_site_symmetry_1
_geom_angle_site_symmetry_3
O5 Zr1 O5 68.2(4) . 3_655
O5 Zr1 O6 108.0(5) . 5
O5 Zr1 O6 71.2(4) 3_655 5
O5 Zr1 O6 71.2(4) . .
O5 Zr1 O6 108.0(5) 3_655 .
O6 Zr1 O6 68.6(4) 5 .
O5 Zr1 O3 89.4(5) . .
O5 Zr1 O3 89.4(5) 3_655 .
O6 Zr1 O3 145.7(2) 5 .
O6 Zr1 O3 145.7(2) . .
O5 Zr1 O7 145.6(2) . .
O5 Zr1 O7 145.6(2) 3_655 .
O6 Zr1 O7 86.6(4) 5 .
O6 Zr1 O7 86.6(4) . .
O3 Zr1 O7 95.4(6) . .
O5 Zr1 O2 76.4(3) . .
O5 Zr1 O2 140.2(3) 3_655 .
O6 Zr1 O2 139.6(3) 5 .
O6 Zr1 O2 75.7(3) . .
O3 Zr1 O2 72.3(3) . .
O7 Zr1 O2 72.8(3) . .
O5 Zr1 O2 140.2(3) . 14
O5 Zr1 O2 76.4(3) 3_655 14
O6 Zr1 O2 75.7(3) 5 14
O6 Zr1 O2 139.6(3) . 14
O3 Zr1 O2 72.3(3) . 14
O7 Zr1 O2 72.8(3) . 14
O2 Zr1 O2 127.1(4) . 14
O5 Zr1 Zr2 88.3(3) . 9_655
O5 Zr1 Zr2 35.4(3) 3_655 9_655
O6 Zr1 Zr2 35.7(2) 5 9_655
O6 Zr1 Zr2 88.7(3) . 9_655
O3 Zr1 Zr2 119.5(3) . 9_655
O7 Zr1 Zr2 117.8(2) . 9_655
O2 Zr1 Zr2 160.94(18) . 9_655
O2 Zr1 Zr2 71.96(18) 14 9_655
O5 Zr1 Zr2 35.4(3) . .
O5 Zr1 Zr2 88.3(3) 3_655 .
O6 Zr1 Zr2 88.7(3) 5 .
O6 Zr1 Zr2 35.7(2) . .
O3 Zr1 Zr2 119.5(3) . .
O7 Zr1 Zr2 117.8(2) . .
O2 Zr1 Zr2 71.96(18) . .
O2 Zr1 Zr2 160.94(18) 14 .
Zr2 Zr1 Zr2 88.98(3) 9_655 .
O5 Zr1 Zr1 89.6(4) . 11
O5 Zr1 Zr1 89.6(4) 3_655 11
O6 Zr1 Zr1 34.3(2) 5 11
O6 Zr1 Zr1 34.3(2) . 11
O3 Zr1 Zr1 178.7(5) . 11
O7 Zr1 Zr1 85.8(4) . 11
O2 Zr1 Zr1 108.1(2) . 11
O2 Zr1 Zr1 108.1(2) 14 11
Zr2 Zr1 Zr1 59.74(2) 9_655 11
Zr2 Zr1 Zr1 59.74(2) . 11
O5 Zr1 Zr1 34.1(2) . 3_655
O5 Zr1 Zr1 34.1(2) 3_655 3_655
O6 Zr1 Zr1 89.9(3) 5 3_655
O6 Zr1 Zr1 89.9(3) . 3_655
O3 Zr1 Zr1 88.7(5) . 3_655
O7 Zr1 Zr1 175.8(4) . 3_655
O2 Zr1 Zr1 108.6(2) . 3_655
O2 Zr1 Zr1 108.6(2) 14 3_655
Zr2 Zr1 Zr1 59.669(19) 9_655 3_655
Zr2 Zr1 Zr1 59.669(19) . 3_655
Zr1 Zr1 Zr1 90.0 11 3_655
O5 Zr2 O5 108.6(7) . 11
O5 Zr2 O6 70.3(2) . .
O5 Zr2 O6 70.3(2) 11 .
O5 Zr2 O6 70.3(2) . 13_655
O5 Zr2 O6 70.3(2) 11 13_655
O6 Zr2 O6 109.4(6) . 13_655
O5 Zr2 O1 79.7(3) . .
O5 Zr2 O1 142.28(17) 11 .
O6 Zr2 O1 78.9(3) . .
O6 Zr2 O1 142.99(19) 13_655 .
O5 Zr2 O1 79.7(3) . 13_655
O5 Zr2 O1 142.28(17) 11 13_655
O6 Zr2 O1 142.99(19) . 13_655
O6 Zr2 O1 78.9(3) 13_655 13_655
O1 Zr2 O1 74.7(3) . 13_655
O5 Zr2 O1 142.28(17) . 11
O5 Zr2 O1 79.7(3) 11 11
O6 Zr2 O1 78.9(3) . 11
O6 Zr2 O1 142.99(19) 13_655 11
O1 Zr2 O1 73.3(4) . 11
O1 Zr2 O1 116.7(3) 13_655 11
O5 Zr2 O1 142.28(17) . 6_655
O5 Zr2 O1 79.7(3) 11 6_655
O6 Zr2 O1 142.99(19) . 6_655
O6 Zr2 O1 78.9(3) 13_655 6_655
O1 Zr2 O1 116.7(3) . 6_655
O1 Zr2 O1 73.3(4) 13_655 6_655
O1 Zr2 O1 74.7(3) 11 6_655
O5 Zr2 Zr1 90.0(3) . 11
O5 Zr2 Zr1 35.10(17) 11 11
O6 Zr2 Zr1 35.20(16) . 11
O6 Zr2 Zr1 90.4(3) 13_655 11
O1 Zr2 Zr1 111.22(15) . 11
O1 Zr2 Zr1 167.15(16) 13_655 11
O1 Zr2 Zr1 76.14(15) 11 11
O1 Zr2 Zr1 111.92(18) 6_655 11
O5 Zr2 Zr1 90.0(3) . 9_655
O5 Zr2 Zr1 35.10(17) 11 9_655
O6 Zr2 Zr1 90.4(3) . 9_655
O6 Zr2 Zr1 35.20(16) 13_655 9_655
O1 Zr2 Zr1 167.15(15) . 9_655
O1 Zr2 Zr1 111.22(15) 13_655 9_655
O1 Zr2 Zr1 111.92(18) 11 9_655
O1 Zr2 Zr1 76.14(15) 6_655 9_655
Zr1 Zr2 Zr1 60.66(4) 11 9_655
O5 Zr2 Zr1 35.10(17) . 3_655
O5 Zr2 Zr1 90.0(3) 11 3_655
O6 Zr2 Zr1 90.4(3) . 3_655
O6 Zr2 Zr1 35.20(16) 13_655 3_655
O1 Zr2 Zr1 111.92(18) . 3_655
O1 Zr2 Zr1 76.14(15) 13_655 3_655
O1 Zr2 Zr1 167.15(15) 11 3_655
O1 Zr2 Zr1 111.22(15) 6_655 3_655
Zr1 Zr2 Zr1 91.02(3) 11 3_655
Zr1 Zr2 Zr1 60.51(4) 9_655 3_655
O5 Zr2 Zr1 35.10(17) . .
O5 Zr2 Zr1 90.0(3) 11 .
O6 Zr2 Zr1 35.20(16) . .
O6 Zr2 Zr1 90.4(3) 13_655 .
O1 Zr2 Zr1 76.14(15) . .
O1 Zr2 Zr1 111.92(18) 13_655 .
O1 Zr2 Zr1 111.22(15) 11 .
O1 Zr2 Zr1 167.15(16) 6_655 .
Zr1 Zr2 Zr1 60.51(4) 11 .
Zr1 Zr2 Zr1 91.02(3) 9_655 .
Zr1 Zr2 Zr1 60.66(4) 3_655 .
C7 O1 Zr2 131.0(5) . .
C7 O2 Zr1 134.2(6) . .
C9 O3 C9 0.0(18) 14 .
C9 O3 Zr1 173.9(16) 14 .
C9 O3 Zr1 173.9(16) . .
Zr1 O5 Zr1 111.8(4) 3_655 .
Zr1 O5 Zr2 109.5(4) 3_655 .
Zr1 O5 Zr2 109.5(4) . .
Zr1 O6 Zr1 111.4(4) 11 .
Zr1 O6 Zr2 109.0(4) 11 .
Zr1 O6 Zr2 109.0(4) . .
C6 C1 C2 120.5(5) . .
C6 C1 C1 118.8(7) . 7
C2 C1 C1 120.6(7) . 7
C1 C2 C3 119.4(5) . .
C1 C2 C8 123.7(6) . .
C3 C2 C8 116.9(6) . .
C4 C3 C2 120.2(5) . .
C5 C4 C3 120.3(5) . .
C5 C4 C7 119.4(7) . .
C3 C4 C7 120.3(7) . .
C4 C5 C6 120.1(5) . .
C1 C6 C5 119.5(5) . .
C1 C6 C8A 123.4(7) . .
C5 C6 C8A 117.1(7) . .
O2 C7 O1 126.3(8) . .
O2 C7 C4 117.2(8) . .
O1 C7 C4 116.3(8) . .
F3 C8 F2 102.4(10) . .
F3 C8 F1 102.5(10) . .
F2 C8 F1 101.9(10) . .
F3 C8 C2 117.3(8) . .
F2 C8 C2 115.7(9) . .
F1 C8 C2 115.0(8) . .
C9 C9 O3 0(10) 14 .
C9 C9 O4 0(10) 14 14
O3 C9 O4 102.9(11) . 14
C9 C9 O4 0(10) 14 .
O3 C9 O4 102.9(11) . .
O4 C9 O4 47(7) 14 .
C9 C9 C10 0(10) 14 14
O3 C9 C10 130(2) . 14
O4 C9 C10 123(2) 14 14
O4 C9 C10 123(2) . 14
C9 C9 C10 0(10) 14 .
O3 C9 C10 130(2) . .
O4 C9 C10 123(2) 14 .
O4 C9 C10 123(2) . .
C10 C9 C10 0.0(3) 14 .
C10 C10 C11 0(10) 14 14
C10 C10 C11 0(10) 14 .
C11 C10 C11 119.9(5) 14 .
C10 C10 C9 0(10) 14 14
C11 C10 C9 119.3(2) 14 14
C11 C10 C9 119.3(2) . 14
C10 C10 C9 0(10) 14 .
C11 C10 C9 119.3(2) 14 .
C11 C10 C9 119.3(2) . .
C9 C10 C9 0.0(8) 14 .
C10 C10 C10 0(10) 14 3_655
C11 C10 C10 74.30(14) 14 3_655
C11 C10 C10 74.30(14) . 3_655
C9 C10 C10 135.4(9) 14 3_655
C9 C10 C10 135.4(9) . 3_655
C10 C10 C11 0(10) 14 3_655
C11 C10 C11 24.38(18) 14 3_655
C11 C10 C11 106.2(4) . 3_655
C9 C10 C11 133.9(3) 14 3_655
C9 C10 C11 133.9(3) . 3_655
C10 C10 C11 49.92(18) 3_655 3_655
C10 C10 C11 0(10) 14 13_655
C11 C10 C11 106.2(4) 14 13_655
C11 C10 C11 24.38(18) . 13_655
C9 C10 C11 133.9(3) 14 13_655
C9 C10 C11 133.9(3) . 13_655
C10 C10 C11 49.92(18) 3_655 13_655
C11 C10 C11 86.9(3) 3_655 13_655
C11 C11 C11 90.000(2) 13_655 11_556
C11 C11 C10 105.70(14) 13_655 .
C11 C11 C10 114.94(19) 11_556 .
C11 C11 C10 105.70(14) 13_655 14
C11 C11 C10 114.94(19) 11_556 14
C10 C11 C10 0.0(5) . 14
C11 C11 C11 57.34(15) 13_655 6_656
C11 C11 C11 32.66(15) 11_556 6_656
C10 C11 C11 120.1(2) . 6_656
C10 C11 C11 120.1(2) 14 6_656
C11 C11 C12 105.57(11) 13_655 .
C11 C11 C12 114.8(2) 11_556 .
C10 C11 C12 120.0(4) . .
C10 C11 C12 120.0(4) 14 .
C11 C11 C12 119.9(3) 6_656 .
C11 C11 C10 49.92(18) 13_655 3_655
C11 C11 C10 109.59(18) 11_556 3_655
C10 C11 C10 55.8(3) . 3_655
C10 C11 C10 55.8(3) 14 3_655
C11 C11 C10 86.3(3) 6_656 3_655
C12 C11 C10 128.9(2) . 3_655
C11 C11 C12 50.03(18) 13_655 13_655
C11 C11 C12 109.51(19) 11_556 13_655
C10 C11 C12 129.0(3) . 13_655
C10 C11 C12 129.0(3) 14 13_655
C11 C11 C12 86.3(3) 6_656 13_655
C12 C11 C12 55.5(2) . 13_655
C10 C11 C12 87.1(2) 3_655 13_655
C13 C12 C11 120.3(4) . .
C13 C12 C12 74.54(19) . 13_655
C11 C12 C12 74.43(11) . 13_655
C13 C12 C11 106.7(3) . 13_655
C11 C12 C11 24.40(19) . 13_655
C12 C12 C11 50.03(17) 13_655 13_655
C13 C12 C13 24.6(3) . 13_655
C11 C12 C13 106.6(3) . 13_655
C12 C12 C13 50.0(2) 13_655 13_655
C11 C12 C13 87.18(19) 13_655 13_655
C13 C13 C13 89.999(3) 13_655 11_556
C13 C13 C12 105.46(19) 13_655 .
C13 C13 C12 114.8(2) 11_556 .
C13 C13 C13 57.2(4) 13_655 6_656
C13 C13 C13 32.8(4) 11_556 6_656
C12 C13 C13 119.8(2) . 6_656
C13 C13 C12 50.0(2) 13_655 13_655
C13 C13 C12 109.49(19) 11_556 13_655
C12 C13 C12 55.5(2) . 13_655
C13 C13 C12 86.1(4) 6_656 13_655
F2A C8A F1A 104.0(11) . .
F2A C8A F3A 101.5(11) . .
F1A C8A F3A 101.8(11) . .
F2A C8A C6 116.8(10) . .
F1A C8A C6 116.0(10) . .
F3A C8A C6 114.6(9) . .
O4 O4 C9 66(4) 14 .
O4 O4 C9 66(4) 14 14
C9 O4 C9 0(2) . 14
loop_
_geom_bond_atom_site_label_1
_geom_bond_atom_site_label_2
_geom_bond_distance
_geom_bond_site_symmetry_2
Zr1 O5 2.129(6) .
Zr1 O5 2.129(6) 3_655
Zr1 O6 2.130(6) 5
Zr1 O6 2.130(6) .
Zr1 O3 2.187(15) .
Zr1 O7 2.210(10) .
Zr1 O2 2.272(6) .
Zr1 O2 2.272(6) 14
Zr1 Zr2 3.4920(10) 9_655
Zr1 Zr2 3.4920(10) .
Zr1 Zr1 3.519(2) 11
Zr1 Zr1 3.527(2) 3_655
Zr2 O5 2.148(11) .
Zr2 O5 2.148(11) 11
Zr2 O6 2.158(9) .
Zr2 O6 2.158(9) 13_655
Zr2 O1 2.204(6) .
Zr2 O1 2.204(6) 13_655
Zr2 O1 2.204(6) 11
Zr2 O1 2.204(6) 6_655
Zr2 Zr1 3.4920(10) 11
Zr2 Zr1 3.4920(10) 9_655
Zr2 Zr1 3.4920(10) 3_655
F1 C8 1.322(9) .
F2 C8 1.318(9) .
F3 C8 1.303(9) .
F1A C8A 1.306(9) .
F2A C8A 1.304(9) .
F3A C8A 1.326(9) .
O1 C7 1.268(12) .
O2 C7 1.266(12) .
O3 C9 1.268(10) 14
O3 C9 1.268(10) .
O5 Zr1 2.129(6) 3_655
O6 Zr1 2.130(6) 11
C1 C6 1.389(7) .
C1 C2 1.394(7) .
C1 C1 1.522(13) 7
C2 C3 1.397(7) .
C2 C8 1.504(8) .
C3 C4 1.386(7) .
C4 C5 1.380(7) .
C4 C7 1.480(10) .
C5 C6 1.403(7) .
C6 C8A 1.501(9) .
C9 C9 0.00(3) 14
C9 O4 1.269(10) 14
C9 O4 1.269(10) .
C9 C10 1.501(10) 14
C9 C10 1.501(10) .
C10 C10 0.000(12) 14
C10 C11 1.393(5) 14
C10 C11 1.393(5) .
C10 C9 1.501(10) 14
C10 C10 1.505(8) 3_655
C10 C11 1.753(4) 3_655
C10 C11 1.753(4) 13_655
C11 C11 0.752(5) 13_655
C11 C11 1.173(7) 11_556
C11 C10 1.393(5) 14
C11 C11 1.393(8) 6_656
C11 C12 1.395(7) .
C11 C10 1.753(4) 3_655
C11 C12 1.753(5) 13_655
C12 C13 1.394(7) .
C12 C12 1.5002(10) 13_655
C12 C11 1.753(5) 13_655
C12 C13 1.755(6) 13_655
C13 C13 0.757(9) 13_655
C13 C13 1.172(9) 11_556
C13 C13 1.396(8) 6_656
C13 C12 1.755(6) 13_655
O4 O4 1.02(14) 14
O4 C9 1.269(10) 14
