#------------------------------------------------------------------------------
#$Date: 2019-05-25 03:10:27 +0300 (Sat, 25 May 2019) $
#$Revision: 215502 $
#$URL: file:///home/coder/svn-repositories/cod/cif/7/12/35/7123537.cif $
#------------------------------------------------------------------------------
#
# This file is available in the Crystallography Open Database (COD),
# http://www.crystallography.net/
#
# All data on this site have been placed in the public domain by the
# contributors.
#
data_7123537
loop_
_publ_author_name
'Jeoung, Sungeun'
'Lee, Songho'
'Lee, Jae Hwa'
'Lee, Soochan'
'Choe, Wonyoung'
'Moon, Dohyun'
'Moon, Hoi Ri'
_publ_section_title
;
 Tuning of the flexibility in metal-organic frameworks based on pendant
 arm macrocycles
;
_journal_name_full               'Chemical Communications'
_journal_paper_doi               10.1039/C9CC02819F
_journal_year                    2019
_chemical_formula_moiety         'C88 H124 N32 Ni4 O16'
_chemical_formula_sum            'C88 H124 N32 Ni4 O16'
_chemical_formula_weight         2121.02
_chemical_name_systematic        cp-flexMOF(CN)
_space_group_crystal_system      triclinic
_space_group_IT_number           2
_space_group_name_Hall           '-P 1'
_space_group_name_H-M_alt        'P -1'
_symmetry_space_group_name_Hall  '-P 1'
_symmetry_space_group_name_H-M   'P -1'
_atom_sites_solution_hydrogens   geom
_audit_creation_method           SHELXL-2018/3
_audit_update_record
;
2019-05-17 deposited with the CCDC.    2019-05-24 downloaded from the CCDC.
;
_cell_angle_alpha                86.837(8)
_cell_angle_beta                 74.753(5)
_cell_angle_gamma                78.205(9)
_cell_formula_units_Z            1
_cell_length_a                   10.063(2)
_cell_length_b                   15.927(3)
_cell_length_c                   16.581(3)
_cell_measurement_reflns_used    44291
_cell_measurement_temperature    100(2)
_cell_measurement_theta_max      32.853
_cell_measurement_theta_min      1.795
_cell_volume                     2509.8(8)
_computing_cell_refinement       'HKL3000sm(Otwinowski & Minor, 1997)'
_computing_data_collection       'PAL BL2D-SMDC Program(Shin et.al, 2016)'
_computing_data_reduction        'HKL3000sm(Otwinowski & Minor, 1997)'
_computing_molecular_graphics    'ORTEP 3'
_computing_publication_material  CIFTAB
_computing_structure_refinement  'SHELXL-2018(Sheldrick, 2015b)'
_computing_structure_solution    'SHELXT-2018(Sheldrick, 2015a)'
_diffrn_ambient_temperature      100(2)
_diffrn_measured_fraction_theta_full 0.932
_diffrn_measured_fraction_theta_max 0.931
_diffrn_measurement_device_type  'ADSC Q210 CCD area detector'
_diffrn_measurement_method       'omega scan'
_diffrn_radiation_type           synchrotron
_diffrn_radiation_wavelength     0.700
_diffrn_reflns_av_R_equivalents  0.0677
_diffrn_reflns_av_unetI/netI     0.0968
_diffrn_reflns_Laue_measured_fraction_full 0.932
_diffrn_reflns_Laue_measured_fraction_max 0.931
_diffrn_reflns_limit_h_max       12
_diffrn_reflns_limit_h_min       -12
_diffrn_reflns_limit_k_max       18
_diffrn_reflns_limit_k_min       -18
_diffrn_reflns_limit_l_max       20
_diffrn_reflns_limit_l_min       -20
_diffrn_reflns_number            16553
_diffrn_reflns_point_group_measured_fraction_full 0.932
_diffrn_reflns_point_group_measured_fraction_max 0.931
_diffrn_reflns_theta_full        24.835
_diffrn_reflns_theta_max         25.000
_diffrn_reflns_theta_min         1.795
_diffrn_source                   'PLSII 2D bending magnet'
_exptl_absorpt_coefficient_mu    0.782
_exptl_absorpt_correction_T_max  1.000
_exptl_absorpt_correction_T_min  0.962
_exptl_absorpt_correction_type   empirical
_exptl_absorpt_process_details   'HKL3000sm Scalepack(Otwinowski et.al,2003)'
_exptl_crystal_colour            purple
_exptl_crystal_density_diffrn    1.403
_exptl_crystal_description       needle
_exptl_crystal_F_000             1116
_exptl_crystal_size_max          0.050
_exptl_crystal_size_mid          0.030
_exptl_crystal_size_min          0.010
_refine_diff_density_max         0.631
_refine_diff_density_min         -0.666
_refine_diff_density_rms         0.091
_refine_ls_extinction_method     none
_refine_ls_goodness_of_fit_ref   0.977
_refine_ls_hydrogen_treatment    constr
_refine_ls_matrix_type           full
_refine_ls_number_parameters     637
_refine_ls_number_reflns         8602
_refine_ls_number_restraints     599
_refine_ls_restrained_S_all      0.960
_refine_ls_R_factor_all          0.1338
_refine_ls_R_factor_gt           0.0723
_refine_ls_shift/su_max          0.000
_refine_ls_shift/su_mean         0.000
_refine_ls_structure_factor_coef Fsqd
_refine_ls_weighting_details
'w=1/[\s^2^(Fo^2^)+(0.1179P)^2^] where P=(Fo^2^+2Fc^2^)/3'
_refine_ls_weighting_scheme      calc
_refine_ls_wR_factor_gt          0.1769
_refine_ls_wR_factor_ref         0.2083
_reflns_Friedel_coverage         0.000
_reflns_number_gt                4676
_reflns_number_total             8602
_reflns_threshold_expression     'I > 2\s(I)'
_cod_data_source_file            c9cc02819f2.cif
_cod_data_source_block           cp_CN_sq
_cod_database_code               7123537
_shelx_shelxl_version_number     2018/3
_shelx_space_group_comment
;
The symmetry employed for this shelxl refinement is uniquely defined
by the following loop, which should always be used as a source of
symmetry information in preference to the above space-group names.
They are only intended as comments.
;
_shelx_estimated_absorpt_t_min   0.962
_shelx_estimated_absorpt_t_max   0.992
_shelx_res_file
;
TITL cp_CN_sq.res
    cp_CN_sq.res
    created by SHELXL-2018/3 at 17:58:31 on 02-May-2019
CELL  0.70000  10.0630  15.9270  16.5810   86.837   74.753   78.205
ZERR    1.000   0.0020   0.0030   0.0030    0.008    0.005    0.009
LATT 1
SFAC C  H  N  O Ni
DISP C          0.0030         0.0016          10.98
DISP H          0.0000         0.0000           0.67
DISP N          0.0059         0.0032          18.71
DISP O          0.0105         0.0059          30.82
DISP Ni         0.3420         1.0875        4371.60
UNIT 88 124 32 16 4
ACTA
OMIT -3 50
OMIT 0 -1 2
OMIT 1 5 3
OMIT -1 -4 2
OMIT 0 3 1
OMIT 0 0 2
OMIT -1 0 1
omit 0 -1 1
L.S. 10 0   20
LIST 4
BOND $H
FMAP -2
PLAN -10
CONF
EQIV $1 -x, -y+1, -z
EQIV $2 -x, -y+1, -z+1
HTAB N1 O1_$1
HTAB N6 O3
HTAB N9 N4
HTAB N10 O5
HTAB N13 O7_$2
HTAB N14 O3_$2
SIZE 0.050 0.030 0.010
TEMP -173
ABIN
SIMU
DELU
WGHT    0.117900
FVAR       0.29185
NI1   5    0.000000    0.500000    0.000000    10.50000    0.06219    0.03328 =
         0.03329    0.00317   -0.00844    0.00289
NI2   5    0.000000    0.000000    0.500000    10.50000    0.06530    0.04729 =
         0.03902    0.01402   -0.00482   -0.00126
NI3   5    0.500000    0.000000    0.000000    10.50000    0.04860    0.03377 =
         0.06233    0.00103   -0.00016    0.00298
NI4   5    0.000000    0.500000    0.500000    10.50000    0.07198    0.05554 =
         0.03348    0.00252   -0.00690   -0.00396
O1    4   -0.273618    0.436922    0.156616    11.00000    0.06647    0.07516 =
         0.06322    0.03028   -0.01253   -0.00964
O2    4   -0.042514    0.403210    0.096381    11.00000    0.06723    0.04867 =
         0.03510    0.00608   -0.00520    0.00017
O3    4   -0.139346    0.226784    0.521170    11.00000    0.10627    0.05163 =
         0.04138    0.00760    0.00030   -0.00375
O4    4   -0.017630    0.118743    0.434336    11.00000    0.07540    0.05113 =
         0.04293    0.01393    0.00018   -0.00141
O5    4    0.576570    0.014301    0.192672    11.00000    0.06984    0.07968 =
         0.08244   -0.01275   -0.01585    0.02587
O6    4    0.411081    0.055395    0.122606    11.00000    0.05474    0.05357 =
         0.06471   -0.00766   -0.00383    0.00205
O7    4    0.187624    0.293662    0.514993    11.00000    0.10784    0.06358 =
         0.04611    0.00357   -0.01926    0.01183
O8    4    0.094828    0.382064    0.426104    11.00000    0.07574    0.05035 =
         0.04256    0.00304   -0.00861    0.00084
N1    3    0.198757    0.429537   -0.041145    11.00000    0.06144    0.04010 =
         0.03214    0.00117   -0.00568    0.00204
AFIX  13
H1    2    0.252109    0.464773   -0.084741    11.00000   -1.20000
AFIX   0
N2    3    0.060926    0.567910    0.080237    11.00000    0.06541    0.03455 =
         0.03883    0.00303   -0.01175    0.00274
AFIX  13
H2    2    0.106749    0.613778    0.047760    11.00000   -1.20000
AFIX   0
N3    3    0.290281    0.477556    0.063096    11.00000    0.05999    0.04030 =
         0.03786    0.00538   -0.00866    0.00286
N4    3    0.509347    0.246011    0.101608    11.00000    0.08536    0.05142 =
         0.07489    0.01105   -0.02416   -0.00787
N5    3    0.208382    0.006782    0.485842    11.00000    0.08978    0.04239 =
         0.09095    0.02195   -0.02141   -0.00654
AFIX  13
H5    2    0.218986    0.066609    0.468102    11.00000   -1.20000
AFIX   0
N6    3   -0.067604    0.060124    0.614257    11.00000    0.11774    0.05337 =
         0.04580    0.01191   -0.01503   -0.00436
AFIX  13
H6    2   -0.075282    0.123298    0.604832    11.00000   -1.20000
AFIX   0
N7    3    0.167567    0.041461    0.630850    11.00000    0.15845    0.07370 =
         0.12507    0.00849   -0.08326   -0.02013
ISOR 0.005 N8
N8    3    0.333590    0.283199    0.700333    11.00000    0.19808    0.12827 =
         0.12520   -0.02074   -0.01525   -0.06339
N9    3    0.563980    0.113144   -0.040233    11.00000    0.05505    0.03551 =
         0.07101    0.00398   -0.00682    0.00075
AFIX  13
H9    2    0.553413    0.148777    0.009708    11.00000   -1.20000
AFIX   0
N10   3    0.682724   -0.054703    0.030530    11.00000    0.04713    0.03941 =
         0.07226    0.00208   -0.00469   -0.00011
AFIX  13
H10   2    0.677502   -0.031626    0.086397    11.00000   -1.20000
AFIX   0
N11   3    0.808297    0.053503   -0.041091    11.00000    0.05282    0.05962 =
         0.09792    0.01215   -0.01157   -0.00904
N12   3    1.034646    0.187411   -0.135552    11.00000    0.09089    0.09634 =
         0.12222    0.03532   -0.01785   -0.03482
N13   3   -0.078932    0.546166    0.402712    11.00000    0.07714    0.05480 =
         0.03985    0.00175   -0.00648   -0.00166
AFIX  13
H13   2   -0.121513    0.608255    0.413630    11.00000   -1.20000
AFIX   0
N14   3    0.178978    0.550940    0.460234    11.00000    0.07995    0.06374 =
         0.04349   -0.00310   -0.00597   -0.00383
AFIX  13
H14   2    0.153851    0.613221    0.475060    11.00000   -1.20000
AFIX   0
N15   3    0.144420    0.581739    0.320037    11.00000    0.09256    0.05980 =
         0.03790    0.00614   -0.00298   -0.01390
ISOR 0.005 N16
N16   3    0.328914    0.679561    0.126110    11.00000    0.12158    0.06360 =
         0.08262    0.00850    0.01866   -0.01917
C1    1   -0.152065    0.397974    0.153904    11.00000    0.06144    0.04860 =
         0.05685    0.01345   -0.01201   -0.00595
C2    1   -0.132083    0.344291    0.229688    11.00000    0.05859    0.03862 =
         0.04595    0.00451   -0.00846   -0.00561
C3    1   -0.248168    0.331723    0.293639    11.00000    0.05183    0.04928 =
         0.05561    0.01282   -0.00928   -0.00168
AFIX  43
H3    2   -0.340680    0.355119    0.289162    11.00000   -1.20000
AFIX   0
C4    1   -0.227064    0.284437    0.364268    11.00000    0.06434    0.05345 =
         0.04867    0.01039   -0.00387   -0.01518
AFIX  43
H4    2   -0.306620    0.275497    0.407132    11.00000   -1.20000
AFIX   0
C5    1   -0.093403    0.249968    0.373974    11.00000    0.05540    0.05055 =
         0.03993    0.00878   -0.00413   -0.00336
C6    1    0.022780    0.265000    0.310910    11.00000    0.05966    0.04732 =
         0.04096    0.00258   -0.00472   -0.00063
C7    1    0.001699    0.311523    0.240036    11.00000    0.05560    0.03557 =
         0.03956    0.00897   -0.00100   -0.00413
AFIX  43
H7    2    0.081162    0.321158    0.197469    11.00000   -1.20000
AFIX   0
C8    1   -0.082389    0.196852    0.450788    11.00000    0.06782    0.04140 =
         0.04831    0.00713   -0.00227   -0.00364
C9    1    0.462882    0.058415    0.183347    11.00000    0.06232    0.05523 =
         0.06598    0.00092   -0.00877    0.00259
C10   1    0.382875    0.122701    0.251779    11.00000    0.05821    0.04149 =
         0.05556    0.00387   -0.00056   -0.00074
C11   1    0.247740    0.166588    0.252549    11.00000    0.05721    0.04652 =
         0.04389    0.00965   -0.00913   -0.00691
AFIX  43
H11   2    0.207016    0.155774    0.209533    11.00000   -1.20000
AFIX   0
C12   1    0.170214    0.226223    0.314983    11.00000    0.05795    0.03871 =
         0.04087    0.01481    0.00273   -0.00457
C13   1    0.232563    0.244646    0.377343    11.00000    0.06055    0.05440 =
         0.04199    0.00495   -0.00227    0.00004
C14   1    0.365854    0.199558    0.374921    11.00000    0.06429    0.05837 =
         0.05243    0.00704   -0.00943   -0.00643
AFIX  43
H14A  2    0.408128    0.209674    0.417448    11.00000   -1.20000
AFIX   0
C15   1    0.441409    0.139889    0.313058    11.00000    0.05812    0.04998 =
         0.06745    0.00501   -0.01086    0.00085
AFIX  43
H15   2    0.533755    0.111084    0.313433    11.00000   -1.20000
AFIX   0
C16   1    0.165012    0.311140    0.445587    11.00000    0.07967    0.05305 =
         0.04313    0.00847   -0.00907   -0.00058
C17   1    0.161158    0.514752    0.123380    11.00000    0.06247    0.04247 =
         0.04018    0.00440   -0.01202    0.00154
AFIX  23
H17A  2    0.182381    0.550759    0.163347    11.00000   -1.20000
H17B  2    0.117991    0.468425    0.155288    11.00000   -1.20000
AFIX   0
C18   1    0.282125    0.403322    0.018166    11.00000    0.06664    0.04184 =
         0.03854    0.00257   -0.01160    0.00943
AFIX  23
H18A  2    0.377928    0.374327   -0.011707    11.00000   -1.20000
H18B  2    0.239356    0.362025    0.058453    11.00000   -1.20000
AFIX   0
C19   1    0.178056    0.356085   -0.085328    11.00000    0.06603    0.04178 =
         0.04443   -0.00080   -0.00838    0.01054
AFIX  23
H19A  2    0.141361    0.313454   -0.044271    11.00000   -1.20000
H19B  2    0.268628    0.327616   -0.122310    11.00000   -1.20000
AFIX   0
C20   1   -0.073698    0.609088    0.136736    11.00000    0.06353    0.04280 =
         0.04203   -0.00740   -0.00975    0.00688
AFIX  23
H20A  2   -0.059036    0.656446    0.167584    11.00000   -1.20000
H20B  2   -0.110992    0.566743    0.177933    11.00000   -1.20000
AFIX   0
C21   1    0.413444    0.466413    0.097729    11.00000    0.05875    0.05070 =
         0.05670    0.00259   -0.01167   -0.00679
AFIX  23
H21A  2    0.415595    0.522232    0.120324    11.00000   -1.20000
H21B  2    0.499197    0.451015    0.051423    11.00000   -1.20000
AFIX   0
C22   1    0.419590    0.397284    0.168108    11.00000    0.05467    0.06004 =
         0.05167    0.00112   -0.01681    0.00026
AFIX  23
H22A  2    0.484827    0.408152    0.200016    11.00000   -1.20000
H22B  2    0.325191    0.402210    0.207210    11.00000   -1.20000
AFIX   0
C23   1    0.466369    0.310488    0.133913    11.00000    0.06248    0.05548 =
         0.05789    0.00888   -0.01567   -0.01129
C24   1   -0.208017    0.043224    0.651438    11.00000    0.11033    0.04305 =
         0.06846    0.00665    0.02446    0.00339
AFIX  23
H24A  2   -0.258202    0.084649    0.697041    11.00000   -1.20000
H24B  2   -0.200975   -0.015298    0.675524    11.00000   -1.20000
AFIX   0
C25   1    0.287448   -0.051226    0.413474    11.00000    0.07778    0.05022 =
         0.11734    0.01810    0.01816    0.00340
AFIX  23
H25A  2    0.380441   -0.036100    0.388989    11.00000   -1.20000
H25B  2    0.302856   -0.111356    0.433247    11.00000   -1.20000
AFIX   0
ISOR 0.005 C26
C26   1    0.029596    0.031576    0.668000    11.00000    0.13381    0.10014 =
         0.08428    0.00092   -0.04169   -0.01136
AFIX  23
H26A  2   -0.005985    0.064684    0.720744    11.00000   -1.20000
H26B  2    0.030141   -0.029647    0.682308    11.00000   -1.20000
AFIX   0
C27   1    0.254380   -0.011150    0.564633    11.00000    0.10027    0.07811 =
         0.14325    0.03380   -0.06444   -0.01282
AFIX  23
H27A  2    0.253980   -0.071957    0.580501    11.00000   -1.20000
H27B  2    0.351926   -0.002232    0.554655    11.00000   -1.20000
AFIX   0
ISOR 0.005 C28
C28   1    0.196562    0.124080    0.631587    11.00000    0.15775    0.12416 =
         0.14709    0.00408   -0.05334   -0.03339
AFIX  23
H28A  2    0.106861    0.165055    0.652430    11.00000   -1.20000
H28B  2    0.238402    0.140649    0.573448    11.00000   -1.20000
AFIX   0
C29   1    0.290053    0.132042    0.682048    11.00000    0.10721    0.09259 =
         0.17433   -0.02817   -0.03937   -0.01178
AFIX  23
H29A  2    0.380875    0.093102    0.658436    11.00000   -1.20000
H29B  2    0.250894    0.110439    0.738662    11.00000   -1.20000
AFIX   0
C30   1    0.319312    0.215342    0.691473    11.00000    0.13933    0.09670 =
         0.11875   -0.03470    0.01139   -0.02975
C31   1    0.680250   -0.147549    0.041508    11.00000    0.05933    0.03593 =
         0.08319    0.00124   -0.00677    0.00431
AFIX  23
H31A  2    0.748779   -0.175028    0.072979    11.00000   -1.20000
H31B  2    0.706353   -0.175699   -0.013751    11.00000   -1.20000
AFIX   0
C32   1    0.465137    0.157460   -0.088526    11.00000    0.06772    0.03870 =
         0.08297    0.00938   -0.00969    0.00035
AFIX  23
H32A  2    0.489798    0.131791   -0.144865    11.00000   -1.20000
H32B  2    0.470129    0.218991   -0.094977    11.00000   -1.20000
AFIX   0
C33   1    0.808784   -0.035617   -0.027114    11.00000    0.05406    0.04692 =
         0.09821    0.01076   -0.00423   -0.00031
AFIX  23
H33A  2    0.890552   -0.061466   -0.005239    11.00000   -1.20000
H33B  2    0.821482   -0.063230   -0.081397    11.00000   -1.20000
AFIX   0
C34   1    0.712484    0.098194   -0.088979    11.00000    0.06066    0.04991 =
         0.08356    0.01879   -0.00688   -0.01228
AFIX  23
H34A  2    0.723230    0.063954   -0.139161    11.00000   -1.20000
H34B  2    0.738371    0.154053   -0.108107    11.00000   -1.20000
AFIX   0
C35   1    0.809567    0.099887    0.030955    11.00000    0.05451    0.08049 =
         0.09085    0.01239   -0.01211   -0.01135
AFIX  23
H35A  2    0.879368    0.065899    0.058456    11.00000   -1.20000
H35B  2    0.716116    0.106385    0.071340    11.00000   -1.20000
AFIX   0
C36   1    0.845387    0.189604    0.009189    11.00000    0.07139    0.06677 =
         0.11332    0.01635   -0.01639   -0.01178
AFIX  23
H36A  2    0.759145    0.230907    0.005456    11.00000   -1.20000
H36B  2    0.879330    0.208809    0.054583    11.00000   -1.20000
AFIX   0
C37   1    0.954100    0.189655   -0.070921    11.00000    0.07683    0.06946 =
         0.11560    0.02472   -0.02773   -0.02278
C38   1    0.276770    0.507485    0.508218    11.00000    0.07248    0.07796 =
         0.05579    0.00167   -0.01398   -0.00510
AFIX  23
H38A  2    0.350155    0.541194    0.505924    11.00000   -1.20000
H38B  2    0.323197    0.450038    0.484340    11.00000   -1.20000
AFIX   0
C39   1   -0.193672    0.501013    0.401739    11.00000    0.07061    0.07256 =
         0.04644    0.00254   -0.01058   -0.00398
AFIX  23
H39A  2   -0.154079    0.443581    0.376175    11.00000   -1.20000
H39B  2   -0.255529    0.534085    0.368629    11.00000   -1.20000
AFIX   0
C40   1    0.241889    0.543048    0.367518    11.00000    0.08050    0.06911 =
         0.04048    0.00155    0.00166   -0.01078
AFIX  23
H40A  2    0.324795    0.570655    0.352136    11.00000   -1.20000
H40B  2    0.274505    0.481558    0.352676    11.00000   -1.20000
AFIX   0
C41   1    0.027008    0.539926    0.322587    11.00000    0.08629    0.05093 =
         0.04049   -0.00223   -0.00470   -0.00367
AFIX  23
H41A  2    0.064654    0.478517    0.308790    11.00000   -1.20000
H41B  2   -0.019250    0.565589    0.278726    11.00000   -1.20000
AFIX   0
C42   1    0.104676    0.675720    0.322523    11.00000    0.10133    0.05747 =
         0.04968   -0.00112   -0.00537   -0.01465
AFIX  23
H42A  2    0.064732    0.694670    0.381327    11.00000   -1.20000
H42B  2    0.031146    0.694646    0.292148    11.00000   -1.20000
AFIX   0
C43   1    0.230014    0.717746    0.283359    11.00000    0.13011    0.05621 =
         0.06715    0.00644   -0.00756   -0.02726
AFIX  23
H43A  2    0.200042    0.780815    0.288863    11.00000   -1.20000
H43B  2    0.303480    0.699007    0.313812    11.00000   -1.20000
AFIX   0
C44   1    0.288032    0.695647    0.196018    11.00000    0.11186    0.04602 =
         0.07381    0.00479    0.01533   -0.01026
HKLF 4




REM  cp_CN_sq.res
REM wR2 = 0.2083, GooF = S = 0.977, Restrained GooF = 0.960 for all data
REM R1 = 0.0723 for 4676 Fo > 4sig(Fo) and 0.1338 for all 8602 data
REM 637 parameters refined using 599 restraints

END

WGHT      0.1178      0.0000

REM Highest difference peak  0.631,  deepest hole -0.666,  1-sigma level  0.091
Q1    1  -0.0455  0.0607  0.4834  11.00000  0.05   -0.67
Q2    1  -0.1190  0.4921  0.0184  11.00000  0.05    0.63
Q3    1   0.1169  0.0066  0.4790  11.00000  0.05    0.62
Q4    1   0.0503  0.5014  0.0648  11.00000  0.05   -0.60
Q5    1   0.5510 -0.0501  0.0101  11.00000  0.05   -0.59
Q6    1  -0.0522  0.5539  0.4832  11.00000  0.05   -0.56
Q7    1   0.1243  0.5087  0.4798  11.00000  0.05    0.55
Q8    1   0.0778  0.4584  0.0208  11.00000  0.05   -0.54
Q9    1   0.0103  0.0245  0.4422  11.00000  0.05   -0.54
Q10   1   0.3998 -0.0104  0.0142  11.00000  0.05    0.51
;
_shelx_res_checksum              66531
_shelx_fab_file
;
    0    0    2    -17.13      0.00
    0    0    3    -11.13      0.00
    0    0    4     14.63      0.00
    0    0    5      3.52      0.00
    0    0    6     -5.38      0.00
    0    0    7      1.95      0.00
    0    0    8      1.56      0.00
    0    0    9     -2.26      0.00
    0    0   10     -1.68      0.00
    0    0   11      1.16      0.00
    0    0   12      0.73      0.00
    0    0   13      0.51      0.00
    0    0   14     -1.13      0.00
    0    0   15      0.35      0.00
    0    0   16      0.81      0.00
    0    0   17     -0.86      0.00
    0    0   18     -0.29      0.00
    0    0   19      0.23      0.00
    0    0   20      0.44      0.00
    0    0   21     -0.11      0.00
    0    0   22     -0.25      0.00
    0   -1   22      0.09      0.00
    0   -1   21     -0.02      0.00
    0   -1   20      0.31      0.00
    0   -1   19     -0.31      0.00
    0   -1   18     -0.22      0.00
    0   -1   17      0.38      0.00
    0   -1   16     -0.62      0.00
    0   -1   15      0.73      0.00
    0   -1   14      0.15      0.00
    0   -1   13      0.10      0.00
    0   -1   12     -0.61      0.00
    0   -1   11     -0.46      0.00
    0   -1   10      0.60      0.00
    0   -1    9      0.57      0.00
    0   -1    8     -3.01      0.00
    0   -1    7     -0.40      0.00
    0   -1    6      9.43      0.00
    0   -1    5     -1.78      0.00
    0   -1    4     -6.91      0.00
    0   -1    3     -8.95      0.00
    0   -1    2     11.21      0.00
    0   -1    1      6.26      0.00
    0    1    1      5.90      0.00
    0    1    2     -6.91      0.00
    0    1    3     -0.12      0.00
    0    1    4     -6.24      0.00
    0    1    5     10.83      0.00
    0    1    6      2.23      0.00
    0    1    7     -4.26      0.00
    0    1    8     -2.66      0.00
    0    1    9      1.15      0.00
    0    1   10      0.67      0.00
    0    1   11     -0.30      0.00
    0    1   12      0.28      0.00
    0    1   13     -0.11      0.00
    0    1   14      0.91      0.00
    0    1   15     -0.83      0.00
    0    1   16      0.07      0.00
    0    1   17     -0.03      0.00
    0    1   18     -0.18      0.00
    0    1   19      0.04      0.00
    0    1   20     -0.07      0.00
    0    1   21      0.47      0.00
    0    1   22      0.35      0.00
    0   -2   22     -0.34      0.00
    0   -2   21      0.49      0.00
    0   -2   20      0.62      0.00
    0   -2   19     -0.06      0.00
    0   -2   18     -1.28      0.00
    0   -2   17      0.40      0.00
    0   -2   16      0.93      0.00
    0   -2   15     -0.66      0.00
    0   -2   14      0.16      0.00
    0   -2   13     -0.11      0.00
    0   -2   12      0.51      0.00
    0   -2   11     -0.73      0.00
    0   -2   10     -1.07      0.00
    0   -2    9      0.47      0.00
    0   -2    8      3.22      0.00
    0   -2    7     -1.99      0.00
    0   -2    6     -2.48      0.00
    0   -2    5      6.69      0.00
    0   -2    4     -3.25      0.00
    0   -2    3     -6.89      0.00
    0   -2    2     -9.03      0.00
    0   -2    1     28.57      0.00
    0    2    1    -18.34      0.00
    0    2    2    -12.64      0.00
    0    2    3     14.72      0.00
    0    2    4     10.65      0.00
    0    2    5     -7.91      0.00
    0    2    6     -2.33      0.00
    0    2    7      2.23      0.00
    0    2    8     -1.11      0.00
    0    2    9     -2.18      0.00
    0    2   10      1.44      0.00
    0    2   11      1.56      0.00
    0    2   12      0.45      0.00
    0    2   13     -1.18      0.00
    0    2   14     -0.39      0.00
    0    2   15      0.68      0.00
    0    2   16     -0.44      0.00
    0    2   17     -0.36      0.00
    0    2   18      0.21      0.00
    0    2   19      0.47      0.00
    0    2   20      0.41      0.00
    0    2   21     -0.64      0.00
    0    2   22      0.04      0.00
    0   -3   22      0.27      0.00
    0   -3   21      0.97      0.00
    0   -3   20     -0.44      0.00
    0   -3   19     -0.75      0.00
    0   -3   18      0.20      0.00
    0   -3   17      0.11      0.00
    0   -3   16      0.38      0.00
    0   -3   15      0.17      0.00
    0   -3   14     -0.37      0.00
    0   -3   13     -0.59      0.00
    0   -3   12     -0.38      0.00
    0   -3   11      0.86      0.00
    0   -3   10      1.41      0.00
    0   -3    9     -1.26      0.00
    0   -3    8     -1.62      0.00
    0   -3    7      3.09      0.00
    0   -3    6      1.50      0.00
    0   -3    5     -5.32      0.00
    0   -3    4     -5.55      0.00
    0   -3    3      8.22      0.00
    0   -3    2     11.28      0.00
    0   -3    1    -13.41      0.00
    0    3    1      0.23      0.00
    0    3    2      7.73      0.00
    0    3    3     -8.37      0.00
    0    3    4      3.31      0.00
    0    3    5      4.97      0.00
    0    3    6     -1.88      0.00
    0    3    7     -5.18      0.00
    0    3    8      0.66      0.00
    0    3    9      2.53      0.00
    0    3   10      0.13      0.00
    0    3   11     -0.28      0.00
    0    3   12     -0.41      0.00
    0    3   13      0.90      0.00
    0    3   14     -0.69      0.00
    0    3   15     -0.48      0.00
    0    3   16      0.02      0.00
    0    3   17      0.34      0.00
    0    3   18      0.28      0.00
    0    3   19     -0.11      0.00
    0    3   20      0.02      0.00
    0    3   21      0.46      0.00
    0    3   22     -1.08      0.00
    0   -4   22      0.54      0.00
    0   -4   21      0.55      0.00
    0   -4   20     -0.19      0.00
    0   -4   19     -1.30      0.00
    0   -4   18      0.16      0.00
    0   -4   17      0.92      0.00
    0   -4   16     -0.04      0.00
    0   -4   15     -0.33      0.00
    0   -4   14     -0.33      0.00
    0   -4   13      0.40      0.00
    0   -4   12     -0.04      0.00
    0   -4   11     -0.04      0.00
    0   -4   10     -0.18      0.00
    0   -4    9      1.46      0.00
    0   -4    8     -0.63      0.00
    0   -4    7     -2.29      0.00
    0   -4    6      0.42      0.00
    0   -4    5      2.66      0.00
    0   -4    4      0.25      0.00
    0   -4    3     -6.99      0.00
    0   -4    2      7.19      0.00
    0   -4    1      5.97      0.00
    0    4    1     -8.51      0.00
    0    4    2      5.71      0.00
    0    4    3     10.99      0.00
    0    4    4     -4.63      0.00
    0    4    5     -5.21      0.00
    0    4    6      1.33      0.00
    0    4    7      1.02      0.00
    0    4    8     -1.27      0.00
    0    4    9      0.37      0.00
    0    4   10      1.73      0.00
    0    4   11      0.21      0.00
    0    4   12     -0.76      0.00
    0    4   13     -0.99      0.00
    0    4   14      0.26      0.00
    0    4   15     -0.09      0.00
    0    4   16      0.15      0.00
    0    4   17      0.62      0.00
    0    4   18      0.09      0.00
    0    4   19      0.16      0.00
    0    4   20     -0.89      0.00
    0    4   21     -0.36      0.00
    0    4   22      0.48      0.00
    0   -5   22      1.05      0.00
    0   -5   21     -0.73      0.00
    0   -5   20     -0.83      0.00
    0   -5   19     -0.10      0.00
    0   -5   18      0.87      0.00
    0   -5   17      0.07      0.00
    0   -5   16     -0.10      0.00
    0   -5   15     -0.39      0.00
    0   -5   14     -0.08      0.00
    0   -5   13     -0.34      0.00
    0   -5   12      1.36      0.00
    0   -5   11      0.34      0.00
    0   -5   10     -0.90      0.00
    0   -5    9     -1.46      0.00
    0   -5    8      0.36      0.00
    0   -5    7      2.07      0.00
    0   -5    6     -0.86      0.00
    0   -5    5     -2.56      0.00
    0   -5    4      2.01      0.00
    0   -5    3      6.78      0.00
    0   -5    2     -7.64      0.00
    0    5    1      8.16      0.00
    0    5    2     -6.13      0.00
    0    5    3     -4.02      0.00
    0    5    4      4.92      0.00
    0    5    5      2.09      0.00
    0    5    6     -4.67      0.00
    0    5    7     -0.85      0.00
    0    5    8      2.92      0.00
    0    5    9      0.65      0.00
    0    5   10     -1.17      0.00
    0    5   11     -0.42      0.00
    0    5   12      0.76      0.00
    0    5   13     -0.12      0.00
    0    5   14     -0.91      0.00
    0    5   15      0.20      0.00
    0    5   16      0.77      0.00
    0    5   17      0.30      0.00
    0    5   18     -0.43      0.00
    0    5   19     -0.59      0.00
    0    5   20      0.53      0.00
    0    5   21     -0.48      0.00
    0    5   22      0.18      0.00
    0   -6   22     -0.08      0.00
    0   -6   21     -0.07      0.00
    0   -6   20     -0.79      0.00
    0   -6   19      0.42      0.00
    0   -6   18      0.19      0.00
    0   -6   17      0.32      0.00
    0   -6   16     -0.44      0.00
    0   -6   15      0.12      0.00
    0   -6   14      0.21      0.00
    0   -6   13      0.21      0.00
    0   -6   12     -0.65      0.00
    0   -6   11      0.04      0.00
    0   -6   10      0.17      0.00
    0   -6    9      0.29      0.00
    0   -6    8     -0.56      0.00
    0   -6    7     -1.00      0.00
    0   -6    6      2.34      0.00
    0   -6    5      1.34      0.00
    0   -6    4     -2.94      0.00
    0   -6    3     -3.01      0.00
    0   -6    1      0.57      0.00
    0    6    1     -2.25      0.00
    0    6    2      6.10      0.00
    0    6    3      0.88      0.00
    0    6    4     -4.34      0.00
    0    6    5     -0.80      0.00
    0    6    6      2.10      0.00
    0    6    7      0.38      0.00
    0    6    8     -1.18      0.00
    0    6    9      0.83      0.00
    0    6   10      0.43      0.00
    0    6   11     -0.07      0.00
    0    6   12     -1.04      0.00
    0    6   13     -0.09      0.00
    0    6   14      0.28      0.00
    0    6   15      0.29      0.00
    0    6   16      0.81      0.00
    0    6   17     -0.36      0.00
    0    6   18     -0.54      0.00
    0    6   19     -0.51      0.00
    0    6   20     -0.06      0.00
    0    6   21      0.86      0.00
    0   -7   21     -0.19      0.00
    0   -7   20     -0.22      0.00
    0   -7   19      0.68      0.00
    0   -7   18      0.03      0.00
    0   -7   17     -0.33      0.00
    0   -7   16      0.03      0.00
    0   -7   15      0.30      0.00
    0   -7   14     -0.57      0.00
    0   -7   13      0.73      0.00
    0   -7   12      0.02      0.00
    0   -7   11     -0.68      0.00
    0   -7   10     -0.78      0.00
    0   -7    9      0.54      0.00
    0   -7    8      1.31      0.00
    0   -7    7      0.32      0.00
    0   -7    6     -1.28      0.00
    0   -7    5     -0.86      0.00
    0   -7    4      2.08      0.00
    0   -7    3     -0.76      0.00
    0   -7    2     -2.99      0.00
    0    7    1     -1.73      0.00
    0    7    2     -4.80      0.00
    0    7    3      1.81      0.00
    0    7    4      3.22      0.00
    0    7    5     -1.47      0.00
    0    7    6     -1.50      0.00
    0    7    7      1.26      0.00
    0    7    8      0.56      0.00
    0    7    9     -1.25      0.00
    0    7   10     -0.12      0.00
    0    7   11      0.78      0.00
    0    7   12      0.63      0.00
    0    7   13     -1.11      0.00
    0    7   14     -0.19      0.00
    0    7   15      0.81      0.00
    0    7   16      0.11      0.00
    0    7   17     -0.59      0.00
    0    7   18     -0.39      0.00
    0    7   19      0.55      0.00
    0    7   20      0.28      0.00
    0    7   21     -0.18      0.00
    0   -8   21     -0.33      0.00
    0   -8   20      0.49      0.00
    0   -8   19     -0.48      0.00
    0   -8   18      0.20      0.00
    0   -8   17     -0.15      0.00
    0   -8   16      0.57      0.00
    0   -8   15     -0.17      0.00
    0   -8   14      0.04      0.00
    0   -8   13     -1.16      0.00
    0   -8   12      0.48      0.00
    0   -8   11      0.29      0.00
    0   -8   10      0.97      0.00
    0   -8    9     -0.80      0.00
    0   -8    8     -0.60      0.00
    0   -8    7      0.47      0.00
    0   -8    6      0.96      0.00
    0   -8    5     -0.43      0.00
    0   -8    4     -2.84      0.00
    0   -8    3      2.15      0.00
    0   -8    2      2.01      0.00
    0    8    2      2.03      0.00
    0    8    3     -1.77      0.00
    0    8    4     -1.55      0.00
    0    8    5      2.11      0.00
    0    8    6      0.95      0.00
    0    8    7     -2.08      0.00
    0    8    8     -0.38      0.00
    0    8    9      1.30      0.00
    0    8   10      0.52      0.00
    0    8   11     -0.76      0.00
    0    8   12     -0.50      0.00
    0    8   13      0.52      0.00
    0    8   14     -0.25      0.00
    0    8   15      0.48      0.00
    0    8   16      0.01      0.00
    0    8   17     -0.57      0.00
    0    8   18     -0.24      0.00
    0    8   19      0.34      0.00
    0    8   20      0.63      0.00
    0    8   21      0.18      0.00
    0   -9   21     -0.32      0.00
    0   -9   20     -0.23      0.00
    0   -9   19      0.23      0.00
    0   -9   18     -0.13      0.00
    0   -9   17      0.29      0.00
    0   -9   16      0.24      0.00
    0   -9   15     -0.50      0.00
    0   -9   14     -0.23      0.00
    0   -9   13      0.41      0.00
    0   -9   12     -0.10      0.00
    0   -9   11     -0.37      0.00
    0   -9   10      0.19      0.00
    0   -9    9      0.91      0.00
    0   -9    8     -0.08      0.00
    0   -9    7     -0.48      0.00
    0   -9    6     -1.22      0.00
    0   -9    5      0.63      0.00
    0   -9    4      0.95      0.00
    0   -9    3     -0.68      0.00
    0    9    2     -0.57      0.00
    0    9    3      1.78      0.00
    0    9    4      1.65      0.00
    0    9    5     -1.18      0.00
    0    9    6     -0.82      0.00
    0    9    7     -0.01      0.00
    0    9    8     -0.10      0.00
    0    9    9     -0.07      0.00
    0    9   10      0.82      0.00
    0    9   11      0.92      0.00
    0    9   12     -0.84      0.00
    0    9   13     -1.43      0.00
    0    9   14      0.77      0.00
    0    9   15      0.47      0.00
    0    9   16     -0.29      0.00
    0    9   17      0.03      0.00
    0    9   18      0.32      0.00
    0    9   19      0.29      0.00
    0    9   20     -0.75      0.00
    0    9   21      0.16      0.00
    0  -10   20     -0.35      0.00
    0  -10   19     -0.09      0.00
    0  -10   18      0.05      0.00
    0  -10   17      0.63      0.00
    0  -10   16     -0.11      0.00
    0  -10   15     -0.23      0.00
    0  -10   14     -0.95      0.00
    0  -10   13      0.32      0.00
    0  -10   12      0.61      0.00
    0  -10   11      1.03      0.00
    0  -10   10     -1.06      0.00
    0  -10    9     -0.48      0.00
    0  -10    8     -0.04      0.00
    0  -10    7      0.75      0.00
    0  -10    6     -0.02      0.00
    0  -10    5     -1.08      0.00
    0  -10    4      0.69      0.00
    0  -10    3      0.39      0.00
    0   10    4      1.23      0.00
    0   10    5      0.30      0.00
    0   10    6     -1.89      0.00
    0   10    7     -0.83      0.00
    0   10    8      1.84      0.00
    0   10    9      0.82      0.00
    0   10   10     -0.64      0.00
    0   10   11     -0.89      0.00
    0   10   12      0.50      0.00
    0   10   13     -0.41      0.00
    0   10   14     -0.09      0.00
    0   10   15      0.80      0.00
    0   10   16      0.14      0.00
    0   10   17     -0.62      0.00
    0   10   18     -0.09      0.00
    0   10   19      0.40      0.00
    0   10   20      0.22      0.00
    0   10   21     -0.77      0.00
    0  -11   21     -0.79      0.00
    0  -11   20      0.40      0.00
    0  -11   19      0.26      0.00
    0  -11   18      0.28      0.00
    0  -11   17      0.06      0.00
    0  -11   16     -0.35      0.00
    0  -11   15     -0.57      0.00
    0  -11   14      0.33      0.00
    0  -11   13      0.26      0.00
    0  -11   12      0.03      0.00
    0  -11   11     -0.19      0.00
    0  -11   10      0.66      0.00
    0  -11    9     -0.20      0.00
    0  -11    8     -0.29      0.00
    0  -11    7     -1.20      0.00
    0  -11    6      0.64      0.00
    0  -11    5      0.86      0.00
    0  -11    4      0.26      0.00
    0   11    3      1.89      0.00
    0   11    4     -0.61      0.00
    0   11    5     -1.77      0.00
    0   11    6     -0.13      0.00
    0   11    7      1.08      0.00
    0   11    8     -0.42      0.00
    0   11    9      0.47      0.00
    0   11   10      0.75      0.00
    0   11   11     -0.04      0.00
    0   11   12     -2.39      0.00
    0   11   13      0.66      0.00
    0   11   14      1.22      0.00
    0   11   15      0.12      0.00
    0   11   16     -0.38      0.00
    0   11   17      0.05      0.00
    0   11   18      0.15      0.00
    0   11   19     -1.02      0.00
    0   11   20      0.63      0.00
    0  -12   21      0.27      0.00
    0  -12   20     -0.32      0.00
    0  -12   19     -0.04      0.00
    0  -12   18      0.41      0.00
    0  -12   17      0.19      0.00
    0  -12   16     -0.30      0.00
    0  -12   15     -0.70      0.00
    0  -12   14     -0.08      0.00
    0  -12   13      0.74      0.00
    0  -12   12      0.91      0.00
    0  -12   11     -0.42      0.00
    0  -12   10     -0.93      0.00
    0  -12    9     -0.24      0.00
    0  -12    8      0.40      0.00
    0  -12    7      0.28      0.00
    0  -12    6     -0.19      0.00
    0  -12    5      0.71      0.00
    0   12    4     -0.42      0.00
    0   12    5     -0.71      0.00
    0   12    6     -0.74      0.00
    0   12    7      1.24      0.00
    0   12    8      0.80      0.00
    0   12    9     -0.37      0.00
    0   12   10     -0.96      0.00
    0   12   11      0.25      0.00
    0   12   12      0.17      0.00
    0   12   13     -0.54      0.00
    0   12   14      0.74      0.00
    0   12   15      0.80      0.00
    0   12   16     -0.77      0.00
    0   12   17     -0.95      0.00
    0   12   18      0.44      0.00
    0   12   19      0.97      0.00
    0   12   20     -0.96      0.00
    0  -13   20      0.39      0.00
    0  -13   19      0.29      0.00
    0  -13   17     -0.44      0.00
    0  -13   16     -0.48      0.00
    0  -13   15      0.16      0.00
    0  -13   14      0.43      0.00
    0  -13   13      0.36      0.00
    0  -13   12     -0.07      0.00
    0  -13   11      0.00      0.00
    0  -13   10     -0.34      0.00
    0  -13    9     -0.45      0.00
    0  -13    8     -0.45      0.00
    0  -13    7      0.75      0.00
    0  -13    6      0.94      0.00
    0  -13    5     -0.19      0.00
    0   13    5      0.02      0.00
    0   13    6      1.14      0.00
    0   13    7     -0.48      0.00
    0   13    8      0.04      0.00
    0   13    9      0.42      0.00
    0   13   10      0.68      0.00
    0   13   11     -2.19      0.00
    0   13   12      0.22      0.00
    0   13   13      1.33      0.00
    0   13   14      0.54      0.00
    0   13   15     -1.25      0.00
    0   13   16      0.11      0.00
    0   13   17      0.48      0.00
    0   13   18     -0.79      0.00
    0   13   19      0.45      0.00
    0   13   20      0.16      0.00
    0  -14   19      0.13      0.00
    0  -14   18      0.31      0.00
    0  -14   17     -0.24      0.00
    0  -14   16     -0.36      0.00
    0  -14   15     -0.20      0.00
    0  -14   14      0.62      0.00
    0  -14   13      0.56      0.00
    0  -14   12      0.13      0.00
    0  -14   11     -1.25      0.00
    0  -14   10     -0.38      0.00
    0  -14    9      0.30      0.00
    0  -14    8      0.84      0.00
    0  -14    7      0.07      0.00
    0  -14    6      0.38      0.00
    0   14    5     -0.45      0.00
    0   14    6      0.18      0.00
    0   14    7      0.66      0.00
    0   14    8      0.11      0.00
    0   14    9     -0.62      0.00
    0   14   10     -0.16      0.00
    0   14   11      0.55      0.00
    0   14   12     -0.71      0.00
    0   14   13      0.09      0.00
    0   14   14      0.96      0.00
    0   14   15      0.08      0.00
    0   14   16     -1.59      0.00
    0   14   17      0.30      0.00
    0   14   18      1.47      0.00
    0   14   19     -0.92      0.00
    0   14   20     -0.14      0.00
    0  -15   17     -0.30      0.00
    0  -15   16      0.22      0.00
    0  -15   15      0.54      0.00
    0  -15   14      0.18      0.00
    0  -15   13      0.06      0.00
    0  -15   12     -0.63      0.00
    0  -15   11     -0.09      0.00
    0  -15   10     -0.49      0.00
    0  -15    8      0.43      0.00
    0  -15    7      0.80      0.00
    0   15    6      0.02      0.00
    0   15    7     -0.09      0.00
    0   15    8      0.19      0.00
    0   15    9      0.46      0.00
    0   15   10     -1.24      0.00
    0   15   11     -0.29      0.00
    0   15   12      0.90      0.00
    0   15   13      1.07      0.00
    0   15   14     -1.53      0.00
    0   15   15     -0.03      0.00
    0   15   16      0.90      0.00
    0   15   17     -0.34      0.00
    0   15   18     -0.40      0.00
    0  -16   16     -0.11      0.00
    0  -16   15      0.26      0.00
    0  -16   14      0.05      0.00
    0  -16   13      0.28      0.00
    0  -16   12     -0.67      0.00
    0  -16   11     -0.44      0.00
    0  -16    9      0.66      0.00
    0  -16    8      0.11      0.00
    0   16    7      0.24      0.00
    0   16    8     -0.25      0.00
    0   16    9     -0.37      0.00
    0   16   10      0.32      0.00
    0   16   11     -0.49      0.00
    0   16   12     -0.03      0.00
    0   16   13      0.65      0.00
    0   16   14      1.00      0.00
    0   16   15     -1.80      0.00
    0   16   16     -0.16      0.00
    0   16   17      1.24      0.00
    0  -17   14      0.17      0.00
    0  -17   11     -0.35      0.00
    0  -17   10      0.65      0.00
    0   17    8     -0.38      0.00
    0   17    9     -0.32      0.00
    0   17   10     -0.36      0.00
    0   17   11      0.76      0.00
    0   17   12      1.08      0.00
    0   17   13     -1.13      0.00
    0   18   10     -0.09      0.00
    0   18   11      0.12      0.00
    0   18   12      0.14      0.00
    0   18   13      0.84      0.00
   -1   18   12     -0.04      0.00
   -1   18   11      0.81      0.00
   -1   18   10      0.56      0.00
   -1   17   15     -0.72      0.00
   -1   17   14      0.08      0.00
   -1   17   11      0.12      0.00
   -1   17   10      0.39      0.00
   -1   17    9     -0.39      0.00
    1  -17   11      0.69      0.00
    1  -17   12     -0.61      0.00
    1  -17   13     -0.16      0.00
   -1   16   16      1.14      0.00
   -1   16   15      0.75      0.00
   -1   16   14     -1.96      0.00
   -1   16   13     -0.13      0.00
   -1   16   12      1.31      0.00
   -1   16   11      0.78      0.00
   -1   16   10     -1.02      0.00
   -1   16    9     -0.53      0.00
   -1   16    8      0.13      0.00
   -1   16    7      0.21      0.00
    1  -16   10      1.02      0.00
    1  -16   11     -0.23      0.00
    1  -16   12     -0.30      0.00
    1  -16   13     -0.88      0.00
    1  -16   14      0.50      0.00
    1  -16   16      0.55      0.00
   -1   15   17      0.93      0.00
   -1   15   16     -0.62      0.00
   -1   15   15     -0.62      0.00
   -1   15   14      0.55      0.00
   -1   15   13      0.08      0.00
   -1   15   12      0.14      0.00
   -1   15   11      0.15      0.00
   -1   15   10     -0.10      0.00
   -1   15    9     -0.77      0.00
   -1   15    8     -0.09      0.00
   -1   15    7      1.09      0.00
   -1   15    6     -0.09      0.00
    1  -15    8      0.83      0.00
    1  -15    9      0.77      0.00
    1  -15   10      0.57      0.00
    1  -15   11     -0.82      0.00
    1  -15   12     -0.86      0.00
    1  -15   13      0.29      0.00
    1  -15   14      0.41      0.00
    1  -15   15      0.41      0.00
   -1   14   18     -1.04      0.00
   -1   14   17      0.87      0.00
   -1   14   16      0.94      0.00
   -1   14   15     -1.27      0.00
   -1   14   14     -0.68      0.00
   -1   14   13      1.18      0.00
   -1   14   12      1.03      0.00
   -1   14   11     -1.32      0.00
   -1   14   10     -0.64      0.00
   -1   14    9      0.51      0.00
   -1   14    8      0.42      0.00
   -1   14    7     -0.29      0.00
   -1   14    6      0.19      0.00
    1  -14    8      0.11      0.00
    1  -14    9      0.85      0.00
    1  -14   10     -0.34      0.00
    1  -14   11     -0.34      0.00
    1  -14   12     -0.89      0.00
    1  -14   13      0.35      0.00
    1  -14   14      0.45      0.00
    1  -14   15      0.45      0.00
    1  -14   16      0.03      0.00
    1  -14   17     -0.65      0.00
    1  -14   19      0.44      0.00
    1  -14   20      0.74      0.00
   -1   13   19     -0.59      0.00
   -1   13   18      1.43      0.00
   -1   13   17     -0.09      0.00
   -1   13   16     -0.65      0.00
   -1   13   15      0.02      0.00
   -1   13   14     -0.01      0.00
   -1   13   13      0.02      0.00
   -1   13   12      0.30      0.00
   -1   13   11      0.67      0.00
   -1   13   10     -1.25      0.00
   -1   13    9     -0.32      0.00
   -1   13    8      0.76      0.00
   -1   13    7      0.66      0.00
   -1   13    6     -0.63      0.00
   -1   13    5     -0.11      0.00
    1  -13    6     -0.44      0.00
    1  -13    7      0.67      0.00
    1  -13    8      1.27      0.00
    1  -13    9     -0.10      0.00
    1  -13   10     -0.79      0.00
    1  -13   11     -1.14      0.00
    1  -13   12      0.55      0.00
    1  -13   13      0.51      0.00
    1  -13   14      0.54      0.00
    1  -13   15     -0.53      0.00
    1  -13   16     -0.06      0.00
    1  -13   17     -0.21      0.00
    1  -13   18      0.41      0.00
    1  -13   19     -0.11      0.00
    1  -13   20     -0.05      0.00
   -1   12   20      0.29      0.00
   -1   12   19     -0.73      0.00
   -1   12   18      0.58      0.00
   -1   12   17      0.79      0.00
   -1   12   16     -0.61      0.00
   -1   12   15     -1.24      0.00
   -1   12   14      0.58      0.00
   -1   12   13      1.60      0.00
   -1   12   12     -0.73      0.00
   -1   12   11     -1.16      0.00
   -1   12   10      0.50      0.00
   -1   12    9      0.64      0.00
   -1   12    8     -0.60      0.00
   -1   12    7     -0.09      0.00
   -1   12    6      1.02      0.00
   -1   12    5     -0.11      0.00
   -1   12    4     -1.23      0.00
    1  -12    6      1.08      0.00
    1  -12    7      0.03      0.00
    1  -12    8     -0.47      0.00
    1  -12    9     -0.04      0.00
    1  -12   10     -0.11      0.00
    1  -12   11     -0.18      0.00
    1  -12   12     -0.29      0.00
    1  -12   13      0.52      0.00
    1  -12   14      0.44      0.00
    1  -12   15      0.25      0.00
    1  -12   16     -0.83      0.00
    1  -12   17     -0.32      0.00
    1  -12   18      0.11      0.00
    1  -12   19      0.81      0.00
    1  -12   20     -0.16      0.00
   -1   11   20     -0.80      0.00
   -1   11   19      1.27      0.00
   -1   11   18      0.18      0.00
   -1   11   17     -0.40      0.00
   -1   11   16     -0.74      0.00
   -1   11   15     -0.09      0.00
   -1   11   14      0.28      0.00
   -1   11   13      0.61      0.00
   -1   11   12      1.07      0.00
   -1   11   11     -1.31      0.00
   -1   11   10     -1.08      0.00
   -1   11    9      0.19      0.00
   -1   11    8      1.40      0.00
   -1   11    7     -0.07      0.00
   -1   11    6     -0.16      0.00
   -1   11    5     -0.48      0.00
   -1   11    4     -0.16      0.00
   -1   11    3     -0.52      0.00
    1  -11    5      0.13      0.00
    1  -11    6     -0.06      0.00
    1  -11    7      1.01      0.00
    1  -11    8     -0.40      0.00
    1  -11    9     -0.52      0.00
    1  -11   10     -0.84      0.00
    1  -11   11      0.51      0.00
    1  -11   12      0.65      0.00
    1  -11   13      0.29      0.00
    1  -11   14     -0.45      0.00
    1  -11   15     -0.04      0.00
    1  -11   16     -0.22      0.00
    1  -11   17      0.25      0.00
    1  -11   18     -0.04      0.00
    1  -11   19     -0.23      0.00
    1  -11   20     -0.15      0.00
    1  -11   21      0.67      0.00
   -1   10   20     -0.46      0.00
   -1   10   19      0.12      0.00
   -1   10   18      0.38      0.00
   -1   10   17     -0.10      0.00
   -1   10   16     -0.98      0.00
   -1   10   15      0.16      0.00
   -1   10   14      1.54      0.00
   -1   10   13      0.16      0.00
   -1   10   12     -1.71      0.00
   -1   10   11      0.06      0.00
   -1   10   10      0.78      0.00
   -1   10    9     -0.38      0.00
   -1   10    8     -0.27      0.00
   -1   10    7      1.28      0.00
   -1   10    6      0.18      0.00
   -1   10    5     -1.90      0.00
   -1   10    4     -0.74      0.00
   -1   10    3      2.35      0.00
   -1   10    2      0.44      0.00
    1  -10    4      0.36      0.00
    1  -10    5      1.13      0.00
    1  -10    6     -0.55      0.00
    1  -10    7     -1.50      0.00
    1  -10    8      0.52      0.00
    1  -10    9      0.40      0.00
    1  -10   10      0.60      0.00
    1  -10   11     -0.99      0.00
    1  -10   12      0.15      0.00
    1  -10   13      0.34      0.00
    1  -10   14      0.64      0.00
    1  -10   15     -0.84      0.00
    1  -10   16     -0.13      0.00
    1  -10   17     -0.23      0.00
    1  -10   18      0.66      0.00
    1  -10   19     -0.23      0.00
    1  -10   20      0.29      0.00
    1  -10   21     -0.40      0.00
   -1    9   20      0.55      0.00
   -1    9   19      0.08      0.00
   -1    9   18      0.00      0.00
   -1    9   17     -0.53      0.00
   -1    9   16     -0.07      0.00
   -1    9   15      0.22      0.00
   -1    9   14      0.53      0.00
   -1    9   13      0.73      0.00
   -1    9   12     -0.57      0.00
   -1    9   11     -1.65      0.00
   -1    9   10     -0.17      0.00
   -1    9    9      1.53      0.00
   -1    9    8      1.00      0.00
   -1    9    7     -0.59      0.00
   -1    9    6     -1.23      0.00
   -1    9    5      0.66      0.00
   -1    9    4     -0.50      0.00
   -1    9    3     -0.08      0.00
   -1    9    2      0.88      0.00
    1   -9    4     -0.16      0.00
    1   -9    5     -1.22      0.00
    1   -9    6      0.52      0.00
    1   -9    7      0.29      0.00
    1   -9    8     -0.10      0.00
    1   -9    9     -0.64      0.00
    1   -9   10      0.01      0.00
    1   -9   11      0.84      0.00
    1   -9   12      0.11      0.00
    1   -9   13     -0.47      0.00
    1   -9   14     -0.05      0.00
    1   -9   15      0.09      0.00
    1   -9   16     -0.10      0.00
    1   -9   17     -0.04      0.00
    1   -9   18     -0.23      0.00
    1   -9   19      0.25      0.00
    1   -9   20      0.48      0.00
    1   -9   21      0.14      0.00
    1   -9   22     -0.89      0.00
   -1    8   21     -0.59      0.00
   -1    8   20     -0.11      0.00
   -1    8   19      0.40      0.00
   -1    8   18      0.49      0.00
   -1    8   17     -0.42      0.00
   -1    8   16     -0.23      0.00
   -1    8   15      0.48      0.00
   -1    8   14      0.61      0.00
   -1    8   13     -1.25      0.00
   -1    8   12     -0.37      0.00
   -1    8   11      0.89      0.00
   -1    8   10     -0.09      0.00
   -1    8    9     -0.14      0.00
   -1    8    8      0.48      0.00
   -1    8    7      0.72      0.00
   -1    8    6     -1.61      0.00
   -1    8    5     -1.34      0.00
   -1    8    4      2.53      0.00
   -1    8    3      0.97      0.00
   -1    8    2     -1.62      0.00
    1   -8    3     -0.19      0.00
    1   -8    4      1.93      0.00
    1   -8    5     -1.00      0.00
    1   -8    6     -1.67      0.00
    1   -8    7      0.69      0.00
    1   -8    8      0.90      0.00
    1   -8    9      0.54      0.00
    1   -8   10     -1.09      0.00
    1   -8   11     -0.10      0.00
    1   -8   12      0.03      0.00
    1   -8   13      1.03      0.00
    1   -8   14     -0.75      0.00
    1   -8   15     -0.06      0.00
    1   -8   16     -0.32      0.00
    1   -8   17      0.45      0.00
    1   -8   18     -0.33      0.00
    1   -8   19      0.70      0.00
    1   -8   20     -0.18      0.00
    1   -8   21     -0.14      0.00
    1   -8   22     -0.55      0.00
   -1    7   21      0.27      0.00
   -1    7   20      0.27      0.00
   -1    7   19      0.25      0.00
   -1    7   18      0.04      0.00
   -1    7   17     -0.27      0.00
   -1    7   16     -0.48      0.00
   -1    7   15      0.33      0.00
   -1    7   14      0.46      0.00
   -1    7   13      0.52      0.00
   -1    7   12     -1.51      0.00
   -1    7   11     -0.57      0.00
   -1    7   10      1.13      0.00
   -1    7    9      1.46      0.00
   -1    7    8     -0.90      0.00
   -1    7    7     -1.59      0.00
   -1    7    6      1.65      0.00
   -1    7    5      0.47      0.00
   -1    7    4     -2.86      0.00
   -1    7    3      0.16      0.00
   -1    7    2      4.31      0.00
   -1    7    1     -0.38      0.00
    1   -7    3      0.43      0.00
    1   -7    4     -3.03      0.00
    1   -7    5      0.19      0.00
    1   -7    6      1.33      0.00
    1   -7    7     -0.07      0.00
    1   -7    8     -0.73      0.00
    1   -7    9     -0.27      0.00
    1   -7   10      1.07      0.00
    1   -7   11      0.14      0.00
    1   -7   12     -0.52      0.00
    1   -7   13     -0.61      0.00
    1   -7   14      0.74      0.00
    1   -7   15     -0.19      0.00
    1   -7   16     -0.08      0.00
    1   -7   17     -0.29      0.00
    1   -7   18      0.44      0.00
    1   -7   19      0.29      0.00
    1   -7   20      0.27      0.00
    1   -7   21     -1.00      0.00
    1   -7   22      0.10      0.00
   -1    6   21      0.10      0.00
   -1    6   20      0.74      0.00
   -1    6   19      0.68      0.00
   -1    6   18     -0.61      0.00
   -1    6   17     -0.66      0.00
   -1    6   16     -0.21      0.00
   -1    6   15      0.71      0.00
   -1    6   14      0.05      0.00
   -1    6   13     -0.69      0.00
   -1    6   12      0.84      0.00
   -1    6   11     -0.18      0.00
   -1    6   10     -0.11      0.00
   -1    6    9     -0.70      0.00
   -1    6    8      1.34      0.00
   -1    6    7     -0.05      0.00
   -1    6    6     -2.03      0.00
   -1    6    5      0.64      0.00
   -1    6    4      2.76      0.00
   -1    6    3     -0.94      0.00
   -1    6    2     -4.42      0.00
   -1    6    1      3.21      0.00
   -1    6    0      2.61      0.00
    1   -6    2     -3.41      0.00
    1   -6    3      3.13      0.00
    1   -6    4      1.20      0.00
    1   -6    5     -2.46      0.00
    1   -6    6     -0.69      0.00
    1   -6    7      1.98      0.00
    1   -6    8      0.33      0.00
    1   -6    9     -0.70      0.00
    1   -6   10     -0.42      0.00
    1   -6   11     -0.16      0.00
    1   -6   12      0.74      0.00
    1   -6   13     -0.28      0.00
    1   -6   14     -0.09      0.00
    1   -6   15     -0.05      0.00
    1   -6   16      0.16      0.00
    1   -6   17     -0.49      0.00
    1   -6   18      0.65      0.00
    1   -6   19      0.29      0.00
    1   -6   20     -0.17      0.00
    1   -6   21     -0.89      0.00
    1   -6   22      0.21      0.00
   -1    5   21      0.74      0.00
   -1    5   20     -0.21      0.00
   -1    5   19     -0.13      0.00
   -1    5   18     -0.41      0.00
   -1    5   17     -0.70      0.00
   -1    5   16      0.39      0.00
   -1    5   15      0.64      0.00
   -1    5   14      0.79      0.00
   -1    5   13     -0.71      0.00
   -1    5   12     -1.41      0.00
   -1    5   11      0.71      0.00
   -1    5   10      1.04      0.00
   -1    5    9     -0.19      0.00
   -1    5    8     -1.60      0.00
   -1    5    7      1.72      0.00
   -1    5    6      1.98      0.00
   -1    5    5     -4.25      0.00
   -1    5    4     -2.52      0.00
   -1    5    3      5.49      0.00
   -1    5    2      4.82      0.00
   -1    5    1     -8.13      0.00
   -1    5    0     -1.99      0.00
    1   -5    1      3.88      0.00
    1   -5    2      4.76      0.00
    1   -5    3     -5.76      0.00
    1   -5    4     -1.00      0.00
    1   -5    5      2.56      0.00
    1   -5    6      0.45      0.00
    1   -5    7     -1.16      0.00
    1   -5    8     -0.12      0.00
    1   -5    9      0.97      0.00
    1   -5   10      0.02      0.00
    1   -5   11     -0.76      0.00
    1   -5   12     -0.84      0.00
    1   -5   13      1.19      0.00
    1   -5   14      0.22      0.00
    1   -5   15     -0.26      0.00
    1   -5   16     -0.61      0.00
    1   -5   17      0.41      0.00
    1   -5   18      0.49      0.00
    1   -5   19      0.16      0.00
    1   -5   20     -0.91      0.00
    1   -5   21     -0.06      0.00
    1   -5   22     -0.07      0.00
   -1    4   21      0.47      0.00
   -1    4   20      0.36      0.00
   -1    4   19     -1.10      0.00
   -1    4   18     -0.64      0.00
   -1    4   17      0.32      0.00
   -1    4   16      0.67      0.00
   -1    4   15      0.67      0.00
   -1    4   14     -0.96      0.00
   -1    4   13      0.40      0.00
   -1    4   12     -0.07      0.00
   -1    4   11     -0.44      0.00
   -1    4   10     -0.92      0.00
   -1    4    9      1.27      0.00
   -1    4    8      2.02      0.00
   -1    4    7     -2.27      0.00
   -1    4    6     -2.22      0.00
   -1    4    5      3.54      0.00
   -1    4    4      2.06      0.00
   -1    4    3     -7.61      0.00
   -1    4    2      1.14      0.00
   -1    4    1      8.94      0.00
   -1    4    0     -1.32      0.00
    1   -4    1     -8.79      0.00
    1   -4    2     -0.97      0.00
    1   -4    3      9.91      0.00
    1   -4    4     -2.74      0.00
    1   -4    5     -3.90      0.00
    1   -4    6      1.59      0.00
    1   -4    7      1.97      0.00
    1   -4    8     -0.64      0.00
    1   -4    9     -1.74      0.00
    1   -4   10      0.41      0.00
    1   -4   11      0.55      0.00
    1   -4   12      0.31      0.00
    1   -4   13     -0.19      0.00
    1   -4   14      0.04      0.00
    1   -4   15     -0.15      0.00
    1   -4   16     -0.37      0.00
    1   -4   17      0.41      0.00
    1   -4   18      0.45      0.00
    1   -4   19      0.09      0.00
    1   -4   20     -1.30      0.00
    1   -4   21      0.13      0.00
    1   -4   22      0.75      0.00
   -1    3   21     -0.79      0.00
   -1    3   20     -0.76      0.00
   -1    3   19      0.03      0.00
   -1    3   18      0.14      0.00
   -1    3   17      0.45      0.00
   -1    3   16      0.48      0.00
   -1    3   15     -0.02      0.00
   -1    3   14      0.28      0.00
   -1    3   13     -1.95      0.00
   -1    3   12      0.48      0.00
   -1    3   11      0.54      0.00
   -1    3   10      1.00      0.00
   -1    3    9     -1.05      0.00
   -1    3    8      0.11      0.00
   -1    3    7      2.72      0.00
   -1    3    6     -2.57      0.00
   -1    3    5     -4.95      0.00
   -1    3    4      0.98      0.00
   -1    3    3     12.57      0.00
   -1    3    2     -6.18      0.00
   -1    3    1     -5.31      0.00
   -1    3    0     -3.48      0.00
    1   -3    1     10.96      0.00
    1   -3    2     -3.35      0.00
    1   -3    3     -4.09      0.00
    1   -3    4      3.28      0.00
    1   -3    5      1.13      0.00
    1   -3    6     -1.33      0.00
    1   -3    7     -1.55      0.00
    1   -3    8      1.32      0.00
    1   -3    9      0.75      0.00
    1   -3   10     -1.25      0.00
    1   -3   11     -0.30      0.00
    1   -3   12      0.96      0.00
    1   -3   13      0.55      0.00
    1   -3   14     -0.50      0.00
    1   -3   15     -0.80      0.00
    1   -3   16      0.25      0.00
    1   -3   17      0.87      0.00
    1   -3   18     -0.18      0.00
    1   -3   19     -0.95      0.00
    1   -3   20      0.22      0.00
    1   -3   21      0.04      0.00
    1   -3   22      0.69      0.00
   -1    2   21      0.08      0.00
   -1    2   20     -0.75      0.00
   -1    2   19     -0.28      0.00
   -1    2   18      1.05      0.00
   -1    2   17      0.33      0.00
   -1    2   16      0.17      0.00
   -1    2   15     -0.99      0.00
   -1    2   14     -0.06      0.00
   -1    2   13      0.62      0.00
   -1    2   12     -0.81      0.00
   -1    2   11     -0.15      0.00
   -1    2   10      0.43      0.00
   -1    2    9      2.72      0.00
   -1    2    8     -1.32      0.00
   -1    2    7     -4.10      0.00
   -1    2    6      1.57      0.00
   -1    2    5      5.03      0.00
   -1    2    4     -5.72      0.00
   -1    2    3     -3.52      0.00
   -1    2    2     13.43      0.00
   -1    2    1     -1.49      0.00
   -1    2    0    -10.30      0.00
    1   -2    1    -11.24      0.00
    1   -2    2     22.40      0.00
    1   -2    3      0.80      0.00
    1   -2    4     -8.35      0.00
    1   -2    5     -4.65      0.00
    1   -2    6      5.31      0.00
    1   -2    7      1.68      0.00
    1   -2    8     -3.39      0.00
    1   -2    9      0.67      0.00
    1   -2   10      1.38      0.00
    1   -2   11      0.06      0.00
    1   -2   12     -0.62      0.00
    1   -2   13     -0.21      0.00
    1   -2   14     -0.09      0.00
    1   -2   15      0.11      0.00
    1   -2   16      0.20      0.00
    1   -2   17     -0.10      0.00
    1   -2   18      0.43      0.00
    1   -2   19     -1.03      0.00
    1   -2   20      0.26      0.00
    1   -2   21      0.75      0.00
    1   -2   22     -0.16      0.00
   -1    1   21     -0.86      0.00
   -1    1   20      0.50      0.00
   -1    1   19      1.01      0.00
   -1    1   18      0.18      0.00
   -1    1   17     -0.23      0.00
   -1    1   16     -0.98      0.00
   -1    1   15      1.13      0.00
   -1    1   14     -1.48      0.00
   -1    1   13      0.30      0.00
   -1    1   12      0.38      0.00
   -1    1   11      1.33      0.00
   -1    1   10     -0.22      0.00
   -1    1    9     -1.62      0.00
   -1    1    8      1.37      0.00
   -1    1    7      0.45      0.00
   -1    1    6     -3.91      0.00
   -1    1    5     -4.76      0.00
   -1    1    4     15.41      0.00
   -1    1    3      0.87      0.00
   -1    1    2     -8.64      0.00
   -1    1    1    -14.55      0.00
   -1    1    0     13.08      0.00
    1   -1    1     10.54      0.00
    1   -1    2     -8.74      0.00
    1   -1    3     -0.55      0.00
    1   -1    4     -1.05      0.00
    1   -1    5      2.52      0.00
    1   -1    6     -4.18      0.00
    1   -1    7      2.15      0.00
    1   -1    8      2.78      0.00
    1   -1    9     -1.59      0.00
    1   -1   10     -1.09      0.00
    1   -1   11      0.40      0.00
    1   -1   12      0.73      0.00
    1   -1   13     -0.23      0.00
    1   -1   14     -0.67      0.00
    1   -1   15     -0.06      0.00
    1   -1   16      0.84      0.00
    1   -1   17     -0.09      0.00
    1   -1   18     -0.98      0.00
    1   -1   19      0.79      0.00
    1   -1   20      0.10      0.00
    1   -1   21      0.14      0.00
    1   -1   22     -0.44      0.00
   -1    0   21      0.04      0.00
   -1    0   20     -0.16      0.00
   -1    0   19      0.94      0.00
   -1    0   18     -0.14      0.00
   -1    0   17     -0.34      0.00
   -1    0   16     -0.60      0.00
   -1    0   14      1.30      0.00
   -1    0   13     -0.95      0.00
   -1    0   12      0.44      0.00
   -1    0   11     -0.36      0.00
   -1    0   10      1.56      0.00
   -1    0    9     -0.07      0.00
   -1    0    8     -3.45      0.00
   -1    0    7     -0.99      0.00
   -1    0    6      5.41      0.00
   -1    0    5      0.76      0.00
   -1    0    4     -7.29      0.00
   -1    0    3      9.24      0.00
   -1    0    2     -2.59      0.00
   -1    0    1     -2.87      0.00
    1    0    0    -16.93      0.00
    1    0    1     24.61      0.00
    1    0    2      6.00      0.00
    1    0    3    -11.15      0.00
    1    0    4    -12.43      0.00
    1    0    5      6.60      0.00
    1    0    6      8.42      0.00
    1    0    7     -3.69      0.00
    1    0    8     -1.68      0.00
    1    0    9      1.56      0.00
    1    0   10     -0.12      0.00
    1    0   11     -1.09      0.00
    1    0   12     -0.17      0.00
    1    0   13      0.27      0.00
    1    0   14      0.60      0.00
    1    0   15      0.01      0.00
    1    0   16     -0.63      0.00
    1    0   17      0.49      0.00
    1    0   18     -0.07      0.00
    1    0   19     -0.01      0.00
    1    0   20      0.27      0.00
    1    0   21     -0.59      0.00
    1    0   22      0.15      0.00
   -1   -1   21      0.20      0.00
   -1   -1   20      1.06      0.00
   -1   -1   19      0.10      0.00
   -1   -1   18     -0.63      0.00
   -1   -1   17     -1.35      0.00
   -1   -1   16      1.46      0.00
   -1   -1   15     -0.44      0.00
   -1   -1   14      0.03      0.00
   -1   -1   13      0.32      0.00
   -1   -1   12      0.65      0.00
   -1   -1   11     -0.06      0.00
   -1   -1   10     -1.69      0.00
   -1   -1    9     -0.45      0.00
   -1   -1    8      2.32      0.00
   -1   -1    7     -0.53      0.00
   -1   -1    6     -5.62      0.00
   -1   -1    5      8.78      0.00
   -1   -1    4      5.74      0.00
   -1   -1    3     -8.33      0.00
   -1   -1    2    -17.05      0.00
   -1   -1    1      8.51      0.00
    1    1    0     24.84      0.00
    1    1    2     -9.21      0.00
    1    1    3     -4.66      0.00
    1    1    4     11.12      0.00
    1    1    5     -3.74      0.00
    1    1    6     -0.18      0.00
    1    1    7      3.69      0.00
    1    1    8     -0.74      0.00
    1    1    9     -3.13      0.00
    1    1   10     -0.30      0.00
    1    1   11      1.51      0.00
    1    1   12      0.58      0.00
    1    1   13     -0.51      0.00
    1    1   14     -0.58      0.00
    1    1   15      0.53      0.00
    1    1   16      0.41      0.00
    1    1   17     -0.74      0.00
    1    1   18      0.59      0.00
    1    1   19     -0.05      0.00
    1    1   20     -0.34      0.00
    1    1   21     -0.31      0.00
    1    1   22      0.18      0.00
   -1   -2   21     -0.16      0.00
   -1   -2   20      0.50      0.00
   -1   -2   19     -0.24      0.00
   -1   -2   18     -0.32      0.00
   -1   -2   17     -0.13      0.00
   -1   -2   16     -0.17      0.00
   -1   -2   15      1.27      0.00
   -1   -2   14     -0.82      0.00
   -1   -2   13      0.30      0.00
   -1   -2   12     -0.76      0.00
   -1   -2   11      0.48      0.00
   -1   -2   10      0.43      0.00
   -1   -2    9     -0.90      0.00
   -1   -2    8     -1.81      0.00
   -1   -2    7      3.23      0.00
   -1   -2    6      3.74      0.00
   -1   -2    5     -6.29      0.00
   -1   -2    4      0.45      0.00
   -1   -2    3     -1.57      0.00
   -1   -2    2      6.75      0.00
   -1   -2    1    -11.80      0.00
    1    2    0     10.14      0.00
    1    2    1      7.12      0.00
    1    2    2     -7.16      0.00
    1    2    3    -11.74      0.00
    1    2    4      2.56      0.00
    1    2    5     12.61      0.00
    1    2    6     -1.36      0.00
    1    2    7     -5.11      0.00
    1    2    8     -0.19      0.00
    1    2    9      0.80      0.00
    1    2   10     -0.48      0.00
    1    2   11     -0.02      0.00
    1    2   12      0.35      0.00
    1    2   13      0.70      0.00
    1    2   14      0.01      0.00
    1    2   15     -0.55      0.00
    1    2   16     -0.01      0.00
    1    2   17      0.40      0.00
    1    2   18     -0.40      0.00
    1    2   19     -0.01      0.00
    1    2   20     -0.54      0.00
    1    2   21      0.77      0.00
    1    2   22      0.28      0.00
   -1   -3   21      0.67      0.00
   -1   -3   20      0.62      0.00
   -1   -3   19     -0.55      0.00
   -1   -3   18     -1.29      0.00
   -1   -3   17      0.90      0.00
   -1   -3   16      0.48      0.00
   -1   -3   15     -0.20      0.00
   -1   -3   14      0.16      0.00
   -1   -3   13     -0.13      0.00
   -1   -3   12     -0.19      0.00
   -1   -3   11     -0.83      0.00
   -1   -3   10     -0.19      0.00
   -1   -3    9      1.99      0.00
   -1   -3    8      0.95      0.00
   -1   -3    7     -3.24      0.00
   -1   -3    6      0.35      0.00
   -1   -3    5      4.95      0.00
   -1   -3    4     -2.83      0.00
   -1   -3    3     -9.53      0.00
   -1   -3    2      1.01      0.00
   -1   -3    1     22.71      0.00
    1    3    0     -8.22      0.00
    1    3    1    -13.72      0.00
    1    3    2     -4.97      0.00
    1    3    3     15.73      0.00
    1    3    4      0.12      0.00
    1    3    5     -5.51      0.00
    1    3    6      1.83      0.00
    1    3    7      1.70      0.00
    1    3    8     -3.38      0.00
    1    3    9     -1.38      0.00
    1    3   10      2.19      0.00
    1    3   11      1.38      0.00
    1    3   12     -0.42      0.00
    1    3   13     -1.05      0.00
    1    3   14      0.28      0.00
    1    3   15      0.52      0.00
    1    3   16     -0.45      0.00
    1    3   17     -0.11      0.00
    1    3   18      0.08      0.00
    1    3   19     -0.19      0.00
    1    3   20      0.21      0.00
    1    3   21     -0.08      0.00
    1    3   22      0.83      0.00
   -1   -4   21      0.46      0.00
   -1   -4   20     -0.27      0.00
   -1   -4   19     -0.25      0.00
   -1   -4   18     -0.08      0.00
   -1   -4   17      0.15      0.00
   -1   -4   16      0.52      0.00
   -1   -4   15     -0.45      0.00
   -1   -4   14     -0.05      0.00
   -1   -4   13     -0.63      0.00
   -1   -4   12      0.43      0.00
   -1   -4   11      0.73      0.00
   -1   -4   10      0.38      0.00
   -1   -4    9     -1.61      0.00
   -1   -4    8      0.52      0.00
   -1   -4    7      2.06      0.00
   -1   -4    6     -1.62      0.00
   -1   -4    5     -3.42      0.00
   -1   -4    4      0.37      0.00
   -1   -4    3      8.09      0.00
   -1   -4    2     -3.32      0.00
   -1   -4    1     -5.27      0.00
    1    4    0      3.97      0.00
    1    4    1      1.74      0.00
    1    4    2     -4.06      0.00
    1    4    3     -3.93      0.00
    1    4    4      7.78      0.00
    1    4    5      3.06      0.00
    1    4    6     -5.02      0.00
    1    4    7     -2.45      0.00
    1    4    8      1.10      0.00
    1    4    9      1.27      0.00
    1    4   10     -0.21      0.00
    1    4   11      0.01      0.00
    1    4   12      0.37      0.00
    1    4   13      0.39      0.00
    1    4   14     -0.33      0.00
    1    4   15     -0.69      0.00
    1    4   16      0.03      0.00
    1    4   17     -0.11      0.00
    1    4   18      0.40      0.00
    1    4   19     -0.20      0.00
    1    4   20      0.66      0.00
    1    4   21      0.19      0.00
    1    4   22     -1.00      0.00
   -1   -5   21      0.93      0.00
   -1   -5   20     -0.52      0.00
   -1   -5   19     -0.99      0.00
   -1   -5   18      0.13      0.00
   -1   -5   17      0.82      0.00
   -1   -5   16     -0.05      0.00
   -1   -5   15     -0.13      0.00
   -1   -5   14     -0.30      0.00
   -1   -5   13      0.19      0.00
   -1   -5   12     -0.55      0.00
   -1   -5   11      0.76      0.00
   -1   -5   10      0.59      0.00
   -1   -5    9      0.08      0.00
   -1   -5    8     -1.33      0.00
   -1   -5    7     -1.67      0.00
   -1   -5    6      2.32      0.00
   -1   -5    5      1.74      0.00
   -1   -5    4     -2.56      0.00
   -1   -5    3     -3.35      0.00
   -1   -5    2      9.15      0.00
   -1   -5    1     -0.63      0.00
    1    5    0     -9.07      0.00
    1    5    1     -3.12      0.00
    1    5    2     10.51      0.00
    1    5    3      3.05      0.00
    1    5    4     -6.88      0.00
    1    5    5     -1.07      0.00
    1    5    6      3.33      0.00
    1    5    7     -1.36      0.00
    1    5    8     -1.86      0.00
    1    5    9      1.39      0.00
    1    5   10      1.75      0.00
    1    5   11     -0.32      0.00
    1    5   12     -1.02      0.00
    1    5   13     -0.05      0.00
    1    5   14      0.27      0.00
    1    5   15     -0.37      0.00
    1    5   16     -0.19      0.00
    1    5   17      0.62      0.00
    1    5   18      0.03      0.00
    1    5   19      0.10      0.00
    1    5   20     -0.47      0.00
    1    5   21      0.40      0.00
    1    5   22     -0.35      0.00
   -1   -6   21     -0.63      0.00
   -1   -6   20     -0.18      0.00
   -1   -6   19     -0.24      0.00
   -1   -6   18      0.80      0.00
   -1   -6   17     -0.26      0.00
   -1   -6   16     -0.25      0.00
   -1   -6   15     -0.07      0.00
   -1   -6   14      0.07      0.00
   -1   -6   13      0.24      0.00
   -1   -6   12      0.91      0.00
   -1   -6   11     -0.49      0.00
   -1   -6   10     -1.15      0.00
   -1   -6    9     -0.65      0.00
   -1   -6    8      1.24      0.00
   -1   -6    7      1.47      0.00
   -1   -6    6     -2.31      0.00
   -1   -6    5     -0.11      0.00
   -1   -6    4      3.05      0.00
   -1   -6    3      1.29      0.00
   -1   -6    2     -7.29      0.00
   -1   -6    1      0.60      0.00
    1    6    0      5.79      0.00
    1    6    1      1.23      0.00
    1    6    2     -6.30      0.00
    1    6    3      0.26      0.00
    1    6    4      5.45      0.00
    1    6    5     -1.53      0.00
    1    6    6     -3.31      0.00
    1    6    7      0.14      0.00
    1    6    8      2.47      0.00
    1    6    9     -0.40      0.00
    1    6   10     -0.62      0.00
    1    6   11      0.09      0.00
    1    6   12      0.82      0.00
    1    6   13     -0.16      0.00
    1    6   14     -1.08      0.00
    1    6   15     -0.26      0.00
    1    6   16      0.45      0.00
    1    6   17      0.80      0.00
    1    6   18     -0.10      0.00
    1    6   19     -0.17      0.00
    1    6   20      0.12      0.00
    1    6   21     -0.87      0.00
    1    6   22      0.08      0.00
   -1   -7   21     -0.28      0.00
   -1   -7   20     -0.41      0.00
   -1   -7   19     -0.01      0.00
   -1   -7   18      0.36      0.00
   -1   -7   17      0.29      0.00
   -1   -7   16     -0.29      0.00
   -1   -7   15      0.01      0.00
   -1   -7   14      0.46      0.00
   -1   -7   13     -0.72      0.00
   -1   -7   12      0.23      0.00
   -1   -7   11      0.15      0.00
   -1   -7   10     -0.23      0.00
   -1   -7    9     -0.19      0.00
   -1   -7    8     -0.42      0.00
   -1   -7    7      0.84      0.00
   -1   -7    6      1.38      0.00
   -1   -7    5     -0.50      0.00
   -1   -7    4     -2.74      0.00
   -1   -7    3      0.55      0.00
   -1   -7    2      3.35      0.00
   -1   -7    1     -2.43      0.00
    1    7    1      2.44      0.00
    1    7    2      3.41      0.00
    1    7    3     -3.10      0.00
    1    7    4     -2.65      0.00
    1    7    5      2.00      0.00
    1    7    6      1.07      0.00
    1    7    7     -0.90      0.00
    1    7    8     -0.43      0.00
    1    7    9      1.09      0.00
    1    7   10      0.09      0.00
    1    7   11     -0.53      0.00
    1    7   12     -0.38      0.00
    1    7   13      0.19      0.00
    1    7   14     -0.20      0.00
    1    7   15     -0.09      0.00
    1    7   16      0.99      0.00
    1    7   17     -0.04      0.00
    1    7   18     -0.68      0.00
    1    7   19     -0.30      0.00
    1    7   20      0.30      0.00
    1    7   21      0.32      0.00
    1    7   22     -0.11      0.00
   -1   -8   21      0.16      0.00
   -1   -8   20     -0.26      0.00
   -1   -8   19      0.89      0.00
   -1   -8   18     -0.38      0.00
   -1   -8   17     -0.37      0.00
   -1   -8   16      0.09      0.00
   -1   -8   15      0.63      0.00
   -1   -8   14     -0.29      0.00
   -1   -8   13      0.46      0.00
   -1   -8   12     -1.06      0.00
   -1   -8   11     -0.31      0.00
   -1   -8   10     -0.34      0.00
   -1   -8    9      1.70      0.00
   -1   -8    8      1.10      0.00
   -1   -8    7     -1.31      0.00
   -1   -8    6     -1.29      0.00
   -1   -8    5     -0.07      0.00
   -1   -8    4      2.36      0.00
   -1   -8    3     -2.29      0.00
   -1   -8    2     -0.81      0.00
   -1   -8    1      2.61      0.00
    1    8    0      2.02      0.00
    1    8    1     -3.40      0.00
    1    8    3      3.21      0.00
    1    8    4      0.93      0.00
    1    8    5     -1.88      0.00
    1    8    6     -0.38      0.00
    1    8    7      1.78      0.00
    1    8    8     -0.58      0.00
    1    8    9     -1.10      0.00
    1    8   10      0.35      0.00
    1    8   11      1.07      0.00
    1    8   12      0.12      0.00
    1    8   13     -1.26      0.00
    1    8   14     -0.22      0.00
    1    8   15      0.61      0.00
    1    8   16      0.50      0.00
    1    8   17     -0.10      0.00
    1    8   18     -0.42      0.00
    1    8   19      0.18      0.00
    1    8   20     -0.26      0.00
    1    8   21     -0.15      0.00
    1    8   22      0.52      0.00
   -1   -9   21      0.08      0.00
   -1   -9   20      0.05      0.00
   -1   -9   19     -0.40      0.00
   -1   -9   18      0.36      0.00
   -1   -9   17     -0.04      0.00
   -1   -9   16      0.19      0.00
   -1   -9   15      0.19      0.00
   -1   -9   14     -0.58      0.00
   -1   -9   13     -0.67      0.00
   -1   -9   12      0.56      0.00
   -1   -9   11      0.47      0.00
   -1   -9   10      0.43      0.00
   -1   -9    9     -0.69      0.00
   -1   -9    8      0.16      0.00
   -1   -9    7     -0.03      0.00
   -1   -9    6      0.14      0.00
   -1   -9    5     -0.81      0.00
   -1   -9    4     -0.58      0.00
   -1   -9    3      2.13      0.00
   -1   -9    2     -0.09      0.00
   -1   -9    1     -1.06      0.00
    1    9    0     -1.03      0.00
    1    9    1      2.43      0.00
    1    9    2     -0.40      0.00
    1    9    3     -2.13      0.00
    1    9    4     -0.02      0.00
    1    9    5      2.44      0.00
    1    9    6      0.20      0.00
    1    9    7     -1.91      0.00
    1    9    8     -0.20      0.00
    1    9    9      1.18      0.00
    1    9   10     -0.05      0.00
    1    9   11     -0.56      0.00
    1    9   12      0.09      0.00
    1    9   13      0.43      0.00
    1    9   14     -0.70      0.00
    1    9   15      0.70      0.00
    1    9   16      0.18      0.00
    1    9   17     -0.94      0.00
    1    9   18      0.05      0.00
    1    9   19      0.50      0.00
    1    9   20      0.61      0.00
    1    9   21     -0.72      0.00
   -1  -10   20      0.13      0.00
   -1  -10   19      0.20      0.00
   -1  -10   18     -0.29      0.00
   -1  -10   17      0.06      0.00
   -1  -10   16      0.48      0.00
   -1  -10   15     -0.34      0.00
   -1  -10   14     -0.10      0.00
   -1  -10   13     -0.50      0.00
   -1  -10   12      0.19      0.00
   -1  -10   11      0.12      0.00
   -1  -10   10      1.15      0.00
   -1  -10    9      0.09      0.00
   -1  -10    8     -1.05      0.00
   -1  -10    7     -1.02      0.00
   -1  -10    6     -0.12      0.00
   -1  -10    5      1.78      0.00
   -1  -10    4      0.10      0.00
   -1  -10    3     -0.55      0.00
   -1  -10    2     -0.62      0.00
   -1  -10    1      1.06      0.00
    1   10    1     -1.53      0.00
    1   10    2      0.25      0.00
    1   10    3      0.89      0.00
    1   10    4      0.55      0.00
    1   10    5     -0.31      0.00
    1   10    6     -0.09      0.00
    1   10    7     -0.58      0.00
    1   10    8     -0.72      0.00
    1   10    9      0.71      0.00
    1   10   10      1.01      0.00
    1   10   11      0.32      0.00
    1   10   12     -1.29      0.00
    1   10   13     -0.47      0.00
    1   10   14      0.71      0.00
    1   10   15      0.05      0.00
    1   10   16     -0.06      0.00
    1   10   17      0.13      0.00
    1   10   18      0.31      0.00
    1   10   19     -0.30      0.00
    1   10   20     -0.54      0.00
    1   10   21      0.47      0.00
   -1  -11   20     -0.58      0.00
   -1  -11   19      0.23      0.00
   -1  -11   18      0.37      0.00
   -1  -11   17      0.03      0.00
   -1  -11   16     -0.01      0.00
   -1  -11   15     -0.28      0.00
   -1  -11   14     -0.68      0.00
   -1  -11   13      0.45      0.00
   -1  -11   12      0.79      0.00
   -1  -11   11      0.48      0.00
   -1  -11   10     -1.13      0.00
   -1  -11    9     -0.32      0.00
   -1  -11    8      0.08      0.00
   -1  -11    7      0.66      0.00
   -1  -11    6     -0.31      0.00
   -1  -11    5     -0.17      0.00
   -1  -11    4      0.55      0.00
   -1  -11    3     -0.23      0.00
   -1  -11    2      0.28      0.00
    1   11    2     -0.72      0.00
    1   11    3      0.01      0.00
    1   11    4      1.63      0.00
    1   11    5      0.37      0.00
    1   11    6     -2.13      0.00
    1   11    7     -0.81      0.00
    1   11    8      2.17      0.00
    1   11    9      0.11      0.00
    1   11   10     -0.78      0.00
    1   11   11     -0.40      0.00
    1   11   12      1.32      0.00
    1   11   13     -1.26      0.00
    1   11   14     -0.06      0.00
    1   11   15      0.71      0.00
    1   11   16     -0.12      0.00
    1   11   17     -0.26      0.00
    1   11   18      0.20      0.00
    1   11   19      0.75      0.00
    1   11   20     -1.24      0.00
    1   11   21      0.09      0.00
   -1  -12   19      0.12      0.00
   -1  -12   18     -0.13      0.00
   -1  -12   17     -0.08      0.00
   -1  -12   16     -0.11      0.00
   -1  -12   15     -0.19      0.00
   -1  -12   14      0.04      0.00
   -1  -12   13      0.04      0.00
   -1  -12   12      0.31      0.00
   -1  -12   11      0.33      0.00
   -1  -12   10     -0.01      0.00
   -1  -12    9     -0.72      0.00
   -1  -12    8     -0.48      0.00
   -1  -12    7      0.13      0.00
   -1  -12    6      0.89      0.00
   -1  -12    5      0.21      0.00
   -1  -12    4      0.08      0.00
   -1  -12    3     -0.72      0.00
    1   12    4     -0.23      0.00
    1   12    5     -1.36      0.00
    1   12    6      0.15      0.00
    1   12    7      0.06      0.00
    1   12    8      0.45      0.00
    1   12    9      0.46      0.00
    1   12   10      0.38      0.00
    1   12   11     -0.91      0.00
    1   12   12     -0.94      0.00
    1   12   13      0.95      0.00
    1   12   14      0.20      0.00
    1   12   15     -0.29      0.00
    1   12   16      0.30      0.00
    1   12   17      0.60      0.00
    1   12   18     -0.69      0.00
    1   12   19     -0.96      0.00
    1   12   20      0.90      0.00
    1   12   21     -0.18      0.00
   -1  -13   19      0.44      0.00
   -1  -13   18     -0.21      0.00
   -1  -13   17      0.06      0.00
   -1  -13   16     -0.21      0.00
   -1  -13   15     -0.27      0.00
   -1  -13   14     -0.12      0.00
   -1  -13   13      0.79      0.00
   -1  -13   12      0.34      0.00
   -1  -13   11     -0.48      0.00
   -1  -13   10     -0.82      0.00
   -1  -13    9      0.29      0.00
   -1  -13    8      0.52      0.00
   -1  -13    7     -0.22      0.00
   -1  -13    6     -0.01      0.00
   -1  -13    5      0.43      0.00
   -1  -13    4     -0.47      0.00
    1   13    4      0.14      0.00
    1   13    5     -0.92      0.00
    1   13    6     -0.78      0.00
    1   13    7      1.85      0.00
    1   13    8      0.09      0.00
    1   13    9     -0.63      0.00
    1   13   10     -0.94      0.00
    1   13   11      1.73      0.00
    1   13   12     -0.90      0.00
    1   13   13     -0.67      0.00
    1   13   14      0.51      0.00
    1   13   15      1.12      0.00
    1   13   16     -0.89      0.00
    1   13   17     -0.50      0.00
    1   13   18      0.98      0.00
    1   13   19     -0.76      0.00
    1   13   20     -0.14      0.00
   -1  -14   17     -0.13      0.00
   -1  -14   16     -0.12      0.00
   -1  -14   15      0.32      0.00
   -1  -14   14      0.08      0.00
   -1  -14   13      0.26      0.00
   -1  -14   12     -0.03      0.00
   -1  -14   11     -0.06      0.00
   -1  -14   10     -0.46      0.00
   -1  -14    9     -0.37      0.00
   -1  -14    8      0.29      0.00
   -1  -14    7      0.61      0.00
   -1  -14    6      0.09      0.00
    1   14    5      0.59      0.00
    1   14    6      0.35      0.00
    1   14    7     -0.09      0.00
    1   14    8      0.07      0.00
    1   14    9      0.26      0.00
    1   14   10     -0.19      0.00
    1   14   11     -1.09      0.00
    1   14   12      0.87      0.00
    1   14   13      0.50      0.00
    1   14   14     -0.51      0.00
    1   14   15     -0.40      0.00
    1   14   16      1.21      0.00
    1   14   17     -0.56      0.00
    1   14   18     -1.11      0.00
    1   14   19      0.94      0.00
    1   14   20     -0.04      0.00
   -1  -15   16      0.13      0.00
   -1  -15   15     -0.37      0.00
   -1  -15   14      0.77      0.00
   -1  -15   13      0.01      0.00
   -1  -15   12      0.17      0.00
   -1  -15   11     -1.15      0.00
   -1  -15   10      0.28      0.00
   -1  -15    9      0.29      0.00
   -1  -15    8      0.16      0.00
   -1  -15    7     -0.01      0.00
   -1  -15    6      0.53      0.00
    1   15    6      0.62      0.00
    1   15    7      0.33      0.00
    1   15    8     -0.09      0.00
    1   15    9     -0.89      0.00
    1   15   10      1.06      0.00
    1   15   11     -0.16      0.00
    1   15   12     -0.77      0.00
    1   15   13     -0.34      0.00
    1   15   14      1.90      0.00
    1   15   15     -0.74      0.00
    1   15   16     -1.10      0.00
    1   15   17      0.88      0.00
    1   15   18      0.24      0.00
    1   15   19     -0.57      0.00
   -1  -16   15      0.48      0.00
   -1  -16   14     -0.08      0.00
   -1  -16   13     -0.31      0.00
   -1  -16   12     -0.41      0.00
   -1  -16   11      0.18      0.00
   -1  -16   10     -0.29      0.00
   -1  -16    9      0.46      0.00
   -1  -16    8      0.39      0.00
   -1  -16    7     -0.08      0.00
    1   16    8     -0.20      0.00
    1   16    9      0.08      0.00
    1   16   10     -0.68      0.00
    1   16   11      0.43      0.00
    1   16   12      0.41      0.00
    1   16   13     -0.11      0.00
    1   16   14     -1.09      0.00
    1   16   15      1.52      0.00
    1   16   16     -0.12      0.00
    1   16   17     -0.94      0.00
    1   16   18      0.14      0.00
   -1  -17   15      0.47      0.00
   -1  -17   11      0.22      0.00
   -1  -17   10      0.17      0.00
   -1  -17    9      0.22      0.00
   -1  -17    8     -0.17      0.00
    1   17    8     -0.26      0.00
    1   17    9     -0.08      0.00
    1   17   10      0.24      0.00
    1   17   11     -0.55      0.00
    1   17   12     -0.52      0.00
    1   17   13      1.72      0.00
    1   17   14      0.07      0.00
    1   17   15     -1.56      0.00
    1   17   16      0.29      0.00
    1   17   17      0.82      0.00
   -1  -18   12      0.83      0.00
   -1  -18   11     -0.27      0.00
    1   18    9      0.06      0.00
    1   18   10      0.13      0.00
    1   18   11      0.28      0.00
   -2   17   13     -0.71      0.00
   -2   17   12      0.17      0.00
   -2   17   11      1.22      0.00
   -2   17   10     -0.35      0.00
   -2   17    9     -0.33      0.00
   -2   17    8     -0.51      0.00
    2  -17   14     -0.42      0.00
   -2   16   15     -0.09      0.00
   -2   16   14      0.30      0.00
   -2   16   13     -0.52      0.00
   -2   16   12      0.23      0.00
   -2   16   11      0.38      0.00
   -2   16   10      0.27      0.00
   -2   16    9     -0.69      0.00
   -2   16    8     -0.46      0.00
   -2   16    7      0.45      0.00
    2  -16   11      1.06      0.00
    2  -16   12     -0.72      0.00
    2  -16   13     -0.26      0.00
    2  -16   14     -0.30      0.00
    2  -16   15      0.78      0.00
    2  -16   16     -0.16      0.00
   -2   15   15     -0.41      0.00
   -2   15   14     -1.17      0.00
   -2   15   13      0.24      0.00
   -2   15   12      1.48      0.00
   -2   15   11     -0.25      0.00
   -2   15   10     -0.81      0.00
   -2   15    9     -0.45      0.00
   -2   15    8      0.52      0.00
   -2   15    7     -0.28      0.00
   -2   15    6      1.05      0.00
    2  -15    9      0.56      0.00
    2  -15   10      0.84      0.00
    2  -15   11      0.04      0.00
    2  -15   12     -0.42      0.00
    2  -15   13     -0.93      0.00
    2  -15   14      0.67      0.00
    2  -15   15      0.18      0.00
    2  -15   16      0.65      0.00
   -2   14   17      0.04      0.00
   -2   14   16     -0.07      0.00
   -2   14   15      0.07      0.00
   -2   14   14     -0.29      0.00
   -2   14   13      0.27      0.00
   -2   14   12      0.16      0.00
   -2   14   11      0.53      0.00
   -2   14   10     -0.94      0.00
   -2   14    9     -0.55      0.00
   -2   14    8      0.38      0.00
   -2   14    6     -0.59      0.00
   -2   14    5     -0.53      0.00
    2  -14    8      0.87      0.00
    2  -14    9      0.10      0.00
    2  -14   10      0.80      0.00
    2  -14   11     -0.79      0.00
    2  -14   12     -0.42      0.00
    2  -14   13     -0.12      0.00
    2  -14   14      0.70      0.00
    2  -14   15      0.01      0.00
    2  -14   16     -0.51      0.00
    2  -14   19     -0.09      0.00
    2  -14   20     -0.23      0.00
   -2   13   18     -0.95      0.00
   -2   13   17      1.27      0.00
   -2   13   16      0.24      0.00
   -2   13   15     -0.72      0.00
   -2   13   14     -0.17      0.00
   -2   13   13      0.95      0.00
   -2   13   12     -0.18      0.00
   -2   13   11     -0.89      0.00
   -2   13   10      0.16      0.00
   -2   13    9      0.47      0.00
   -2   13    8     -0.18      0.00
   -2   13    7      0.18      0.00
   -2   13    6      0.33      0.00
   -2   13    5     -0.35      0.00
   -2   13    4     -0.30      0.00
    2  -13    7     -0.67      0.00
    2  -13    8      0.12      0.00
    2  -13    9      1.13      0.00
    2  -13   10     -0.04      0.00
    2  -13   11     -0.36      0.00
    2  -13   12     -1.06      0.00
    2  -13   13      0.69      0.00
    2  -13   14      0.06      0.00
    2  -13   15      0.64      0.00
    2  -13   16     -0.58      0.00
    2  -13   17     -0.06      0.00
    2  -13   18     -0.38      0.00
    2  -13   19      0.76      0.00
    2  -13   20      0.09      0.00
   -2   12   18      0.33      0.00
   -2   12   17      0.45      0.00
   -2   12   16      0.14      0.00
   -2   12   15     -0.40      0.00
   -2   12   14     -0.32      0.00
   -2   12   13     -0.29      0.00
   -2   12   12      1.19      0.00
   -2   12   11     -0.19      0.00
   -2   12   10     -0.87      0.00
   -2   12    9     -0.38      0.00
   -2   12    8      1.56      0.00
   -2   12    7     -0.25      0.00
   -2   12    6     -0.78      0.00
   -2   12    5     -0.09      0.00
   -2   12    4      0.77      0.00
    2  -12    6     -0.71      0.00
    2  -12    7      1.03      0.00
    2  -12    8      0.72      0.00
    2  -12    9     -0.32      0.00
    2  -12   10     -0.62      0.00
    2  -12   11     -0.34      0.00
    2  -12   12      0.36      0.00
    2  -12   13      0.14      0.00
    2  -12   14      0.09      0.00
    2  -12   15     -0.41      0.00
    2  -12   16      0.69      0.00
    2  -12   17     -0.17      0.00
    2  -12   18      0.01      0.00
    2  -12   19     -0.69      0.00
    2  -12   20      0.42      0.00
   -2   11   19     -0.88      0.00
   -2   11   18      1.06      0.00
   -2   11   17      0.56      0.00
   -2   11   16     -0.25      0.00
   -2   11   15     -0.83      0.00
   -2   11   14      0.11      0.00
   -2   11   13      0.29      0.00
   -2   11   12     -0.27      0.00
   -2   11   11      0.53      0.00
   -2   11   10      0.16      0.00
   -2   11    9     -0.32      0.00
   -2   11    8     -0.78      0.00
   -2   11    7      0.82      0.00
   -2   11    6      0.19      0.00
   -2   11    5      0.02      0.00
   -2   11    4     -1.17      0.00
   -2   11    3      0.60      0.00
    2  -11    6      0.06      0.00
    2  -11    7     -0.62      0.00
    2  -11    8      0.54      0.00
    2  -11    9      0.27      0.00
    2  -11   10     -0.15      0.00
    2  -11   11     -0.79      0.00
    2  -11   12      0.18      0.00
    2  -11   13      0.25      0.00
    2  -11   14      0.60      0.00
    2  -11   15     -0.29      0.00
    2  -11   16     -0.13      0.00
    2  -11   17     -0.35      0.00
    2  -11   18      0.32      0.00
    2  -11   19      0.21      0.00
    2  -11   20     -0.36      0.00
    2  -11   21     -0.38      0.00
   -2   10   20     -0.15      0.00
   -2   10   19      0.41      0.00
   -2   10   18      0.61      0.00
   -2   10   17      0.01      0.00
   -2   10   16     -0.60      0.00
   -2   10   15     -0.76      0.00
   -2   10   14     -0.23      0.00
   -2   10   13      1.63      0.00
   -2   10   12      0.88      0.00
   -2   10   11     -1.38      0.00
   -2   10   10     -1.49      0.00
   -2   10    9      1.20      0.00
   -2   10    8      0.71      0.00
   -2   10    7     -0.51      0.00
   -2   10    6     -0.20      0.00
   -2   10    5      0.60      0.00
   -2   10    4     -0.13      0.00
   -2   10    3     -1.65      0.00
   -2   10    2      1.54      0.00
   -2   10    1      0.77      0.00
    2  -10    4     -0.25      0.00
    2  -10    5     -0.60      0.00
    2  -10    6      0.49      0.00
    2  -10    7      0.94      0.00
    2  -10    8     -1.00      0.00
    2  -10    9     -0.39      0.00
    2  -10   10     -0.21      0.00
    2  -10   11      0.90      0.00
    2  -10   12     -0.08      0.00
    2  -10   13     -0.16      0.00
    2  -10   14     -0.33      0.00
    2  -10   15      0.89      0.00
    2  -10   16     -0.42      0.00
    2  -10   17     -0.02      0.00
    2  -10   18     -0.81      0.00
    2  -10   19      0.44      0.00
    2  -10   20      0.02      0.00
    2  -10   21      0.70      0.00
   -2    9   20     -0.43      0.00
   -2    9   19      0.57      0.00
   -2    9   18      0.22      0.00
   -2    9   17     -0.05      0.00
   -2    9   16     -0.79      0.00
   -2    9   15     -0.06      0.00
   -2    9   14      0.55      0.00
   -2    9   13      0.31      0.00
   -2    9   12      0.04      0.00
   -2    9   11      0.03      0.00
   -2    9   10     -0.50      0.00
   -2    9    9     -0.97      0.00
   -2    9    8      0.66      0.00
   -2    9    7      1.09      0.00
   -2    9    6      0.48      0.00
   -2    9    5     -2.07      0.00
   -2    9    4      0.39      0.00
   -2    9    3      1.07      0.00
   -2    9    2     -0.16      0.00
   -2    9    1     -0.82      0.00
    2   -9    3      0.48      0.00
    2   -9    4      0.78      0.00
    2   -9    5      0.52      0.00
    2   -9    6     -1.61      0.00
    2   -9    7     -0.32      0.00
    2   -9    8      0.99      0.00
    2   -9    9      0.39      0.00
    2   -9   10     -0.53      0.00
    2   -9   11     -0.50      0.00
    2   -9   12      0.43      0.00
    2   -9   13      0.60      0.00
    2   -9   14     -0.28      0.00
    2   -9   15     -0.34      0.00
    2   -9   16     -0.05      0.00
    2   -9   17      0.11      0.00
    2   -9   18      0.13      0.00
    2   -9   19     -0.57      0.00
    2   -9   20      0.36      0.00
    2   -9   21      0.46      0.00
    2   -9   22      0.38      0.00
   -2    8   20      0.03      0.00
   -2    8   19      0.19      0.00
   -2    8   18     -0.14      0.00
   -2    8   17     -0.12      0.00
   -2    8   16     -0.45      0.00
   -2    8   15     -0.10      0.00
   -2    8   14      1.05      0.00
   -2    8   13      1.08      0.00
   -2    8   12     -1.08      0.00
   -2    8   11     -2.15      0.00
   -2    8   10      0.76      0.00
   -2    8    9      1.29      0.00
   -2    8    8      0.52      0.00
   -2    8    7     -0.84      0.00
   -2    8    6      0.28      0.00
   -2    8    5      0.37      0.00
   -2    8    4     -2.14      0.00
   -2    8    3      0.56      0.00
   -2    8    2      1.72      0.00
   -2    8    1      1.11      0.00
   -2    8    0     -3.18      0.00
    2   -8    1      0.12      0.00
    2   -8    2      1.33      0.00
    2   -8    4     -1.13      0.00
    2   -8    5     -0.36      0.00
    2   -8    6      0.76      0.00
    2   -8    7     -0.50      0.00
    2   -8    8     -0.03      0.00
    2   -8    9     -0.32      0.00
    2   -8   10      0.83      0.00
    2   -8   11      0.06      0.00
    2   -8   12     -0.20      0.00
    2   -8   13     -0.75      0.00
    2   -8   14      0.89      0.00
    2   -8   15     -0.21      0.00
    2   -8   16      0.00      0.00
    2   -8   17     -0.73      0.00
    2   -8   18      0.33      0.00
    2   -8   19      0.12      0.00
    2   -8   20      0.93      0.00
    2   -8   21     -0.18      0.00
    2   -8   22     -0.77      0.00
   -2    7   20      0.17      0.00
   -2    7   19      0.07      0.00
   -2    7   18      0.27      0.00
   -2    7   17     -0.24      0.00
   -2    7   16      0.05      0.00
   -2    7   15     -0.05      0.00
   -2    7   14      0.34      0.00
   -2    7   13     -0.40      0.00
   -2    7   12      0.30      0.00
   -2    7   11     -0.25      0.00
   -2    7   10     -0.81      0.00
   -2    7    9      0.31      0.00
   -2    7    8      1.35      0.00
   -2    7    7      0.82      0.00
   -2    7    6     -2.50      0.00
   -2    7    5     -0.30      0.00
   -2    7    4      2.06      0.00
   -2    7    3     -0.38      0.00
   -2    7    2     -2.05      0.00
   -2    7    1      1.06      0.00
   -2    7    0      2.69      0.00
    2   -7    1     -2.24      0.00
    2   -7    2     -1.45      0.00
    2   -7    3      1.32      0.00
    2   -7    4      1.84      0.00
    2   -7    5     -2.02      0.00
    2   -7    6     -1.17      0.00
    2   -7    7      1.65      0.00
    2   -7    8      0.74      0.00
    2   -7    9     -0.62      0.00
    2   -7   10     -1.03      0.00
    2   -7   11      0.64      0.00
    2   -7   12      0.58      0.00
    2   -7   13     -0.14      0.00
    2   -7   14     -0.83      0.00
    2   -7   15      0.37      0.00
    2   -7   16      0.29      0.00
    2   -7   17     -0.09      0.00
    2   -7   18     -0.60      0.00
    2   -7   19      0.64      0.00
    2   -7   20      0.50      0.00
    2   -7   21      0.00      0.00
    2   -7   22     -1.25      0.00
   -2    6   20      0.00      0.00
   -2    6   19      0.09      0.00
   -2    6   18      0.50      0.00
   -2    6   17     -0.17      0.00
   -2    6   16     -0.55      0.00
   -2    6   15      0.19      0.00
   -2    6   14      0.64      0.00
   -2    6   13      0.24      0.00
   -2    6   12     -2.03      0.00
   -2    6   11      0.32      0.00
   -2    6   10      1.14      0.00
   -2    6    9      1.39      0.00
   -2    6    8     -1.56      0.00
   -2    6    7     -0.40      0.00
   -2    6    6      1.32      0.00
   -2    6    5     -1.45      0.00
   -2    6    4     -1.93      0.00
   -2    6    3      2.16      0.00
   -2    6    2      4.09      0.00
   -2    6    1     -3.53      0.00
   -2    6    0     -2.80      0.00
    2   -6    1      1.77      0.00
    2   -6    2      2.73      0.00
    2   -6    3     -1.84      0.00
    2   -6    4     -1.21      0.00
    2   -6    5      1.27      0.00
    2   -6    6      0.28      0.00
    2   -6    7     -0.71      0.00
    2   -6    8     -0.12      0.00
    2   -6    9      0.40      0.00
    2   -6   10      0.42      0.00
    2   -6   11      0.06      0.00
    2   -6   12     -1.09      0.00
    2   -6   13      0.32      0.00
    2   -6   14      0.34      0.00
    2   -6   15      0.18      0.00
    2   -6   16     -0.57      0.00
    2   -6   17      0.17      0.00
    2   -6   18     -0.02      0.00
    2   -6   19      0.88      0.00
    2   -6   20     -0.29      0.00
    2   -6   21     -0.77      0.00
    2   -6   22     -0.47      0.00
   -2    5   20      0.59      0.00
   -2    5   19      0.36      0.00
   -2    5   18     -0.36      0.00
   -2    5   17     -0.24      0.00
   -2    5   16     -0.46      0.00
   -2    5   15      0.24      0.00
   -2    5   14      0.09      0.00
   -2    5   13      0.21      0.00
   -2    5   12      0.49      0.00
   -2    5   11     -1.07      0.00
   -2    5   10      0.14      0.00
   -2    5    9      0.58      0.00
   -2    5    8      1.23      0.00
   -2    5    7     -1.96      0.00
   -2    5    6     -1.25      0.00
   -2    5    5      2.57      0.00
   -2    5    4      0.66      0.00
   -2    5    3     -3.14      0.00
   -2    5    2     -0.78      0.00
   -2    5    1      6.29      0.00
   -2    5    0     -1.77      0.00
    2   -5    1     -4.55      0.00
    2   -5    2     -0.91      0.00
    2   -5    3      5.74      0.00
    2   -5    4     -0.45      0.00
    2   -5    5     -3.39      0.00
    2   -5    6      0.77      0.00
    2   -5    7      1.53      0.00
    2   -5    8     -0.45      0.00
    2   -5    9     -1.08      0.00
    2   -5   10      0.69      0.00
    2   -5   11      0.49      0.00
    2   -5   12     -0.13      0.00
    2   -5   13     -1.21      0.00
    2   -5   14      0.62      0.00
    2   -5   15      0.74      0.00
    2   -5   16     -0.23      0.00
    2   -5   17     -0.71      0.00
    2   -5   18      0.40      0.00
    2   -5   19      0.54      0.00
    2   -5   20     -0.14      0.00
    2   -5   21     -1.07      0.00
    2   -5   22      0.43      0.00
   -2    4   21      0.28      0.00
   -2    4   20      0.11      0.00
   -2    4   19      0.32      0.00
   -2    4   18     -0.37      0.00
   -2    4   17     -0.85      0.00
   -2    4   16      0.19      0.00
   -2    4   15      0.40      0.00
   -2    4   14      1.10      0.00
   -2    4   13     -1.31      0.00
   -2    4   12     -0.53      0.00
   -2    4   11      0.89      0.00
   -2    4   10      1.22      0.00
   -2    4    9     -1.27      0.00
   -2    4    8     -1.35      0.00
   -2    4    7      2.28      0.00
   -2    4    6      0.23      0.00
   -2    4    5     -4.03      0.00
   -2    4    4      0.45      0.00
   -2    4    3      7.17      0.00
   -2    4    2     -1.55      0.00
   -2    4    0      1.57      0.00
    2   -4    1      5.08      0.00
    2   -4    2      0.03      0.00
    2   -4    3     -4.87      0.00
    2   -4    4      2.63      0.00
    2   -4    5      1.27      0.00
    2   -4    6     -2.07      0.00
    2   -4    7     -0.06      0.00
    2   -4    8      0.84      0.00
    2   -4    9      0.86      0.00
    2   -4   10     -0.53      0.00
    2   -4   11     -1.05      0.00
    2   -4   12     -0.23      0.00
    2   -4   13      0.94      0.00
    2   -4   14      0.57      0.00
    2   -4   15     -0.57      0.00
    2   -4   16     -0.17      0.00
    2   -4   17     -0.28      0.00
    2   -4   18      0.93      0.00
    2   -4   19     -0.51      0.00
    2   -4   20     -0.18      0.00
    2   -4   21     -0.49      0.00
    2   -4   22      0.62      0.00
   -2    3   21      0.84      0.00
   -2    3   20      0.00      0.00
   -2    3   19     -1.13      0.00
   -2    3   18     -0.46      0.00
   -2    3   17      0.32      0.00
   -2    3   16      0.34      0.00
   -2    3   15      0.66      0.00
   -2    3   14     -0.66      0.00
   -2    3   13      1.02      0.00
   -2    3   12     -1.28      0.00
   -2    3   11      0.00      0.00
   -2    3   10     -0.21      0.00
   -2    3    9      1.43      0.00
   -2    3    8     -0.22      0.00
   -2    3    7     -2.31      0.00
   -2    3    6      1.53      0.00
   -2    3    5      2.37      0.00
   -2    3    4     -1.64      0.00
   -2    3    3     -6.18      0.00
   -2    3    2      8.19      0.00
   -2    3    1      2.22      0.00
   -2    3    0     -4.73      0.00
    2   -3    1     -7.66      0.00
    2   -3    2      7.92      0.00
    2   -3    3      5.52      0.00
    2   -3    4     -6.23      0.00
    2   -3    5     -2.35      0.00
    2   -3    6      2.65      0.00
    2   -3    7      1.43      0.00
    2   -3    8     -1.55      0.00
    2   -3    9     -0.35      0.00
    2   -3   10      0.96      0.00
    2   -3   11     -0.24      0.00
    2   -3   12     -0.94      0.00
    2   -3   13      0.60      0.00
    2   -3   14      0.89      0.00
    2   -3   15     -0.31      0.00
    2   -3   16     -0.88      0.00
    2   -3   17      0.23      0.00
    2   -3   18      0.51      0.00
    2   -3   19      0.04      0.00
    2   -3   20     -1.09      0.00
    2   -3   21      0.89      0.00
    2   -3   22     -0.05      0.00
    2   -3   23      0.04      0.00
   -2    2   21     -0.28      0.00
   -2    2   20     -0.38      0.00
   -2    2   19     -0.26      0.00
   -2    2   18     -0.31      0.00
   -2    2   17      0.74      0.00
   -2    2   16      0.20      0.00
   -2    2   15      0.50      0.00
   -2    2   14     -0.42      0.00
   -2    2   13     -1.36      0.00
   -2    2   12      1.03      0.00
   -2    2   11      0.44      0.00
   -2    2   10     -0.02      0.00
   -2    2    9     -1.80      0.00
   -2    2    8      1.80      0.00
   -2    2    7      1.88      0.00
   -2    2    6     -3.81      0.00
   -2    2    5     -2.43      0.00
   -2    2    4      6.50      0.00
   -2    2    3      3.73      0.00
   -2    2    2    -10.63      0.00
   -2    2    1      0.57      0.00
   -2    2    0      4.17      0.00
    2   -2    1      6.14      0.00
    2   -2    2    -10.86      0.00
    2   -2    3      2.94      0.00
    2   -2    4      3.57      0.00
    2   -2    5     -1.37      0.00
    2   -2    6     -2.22      0.00
    2   -2    7      0.79      0.00
    2   -2    8      2.07      0.00
    2   -2    9     -1.16      0.00
    2   -2   10     -1.27      0.00
    2   -2   11      0.16      0.00
    2   -2   12      1.17      0.00
    2   -2   13      0.73      0.00
    2   -2   14     -0.92      0.00
    2   -2   15     -0.56      0.00
    2   -2   16     -0.18      0.00
    2   -2   17      1.21      0.00
    2   -2   18     -0.83      0.00
    2   -2   19      0.06      0.00
    2   -2   20     -0.18      0.00
    2   -2   21      0.43      0.00
    2   -2   22      0.30      0.00
    2   -2   23     -0.51      0.00
   -2    1   21     -0.24      0.00
   -2    1   20     -1.27      0.00
   -2    1   19     -0.21      0.00
   -2    1   18      1.39      0.00
   -2    1   17      0.26      0.00
   -2    1   16      0.36      0.00
   -2    1   15     -1.54      0.00
   -2    1   14      1.07      0.00
   -2    1   13     -0.72      0.00
   -2    1   12     -0.14      0.00
   -2    1   11     -0.20      0.00
   -2    1   10      0.90      0.00
   -2    1    9      1.32      0.00
   -2    1    8     -2.33      0.00
   -2    1    7     -0.87      0.00
   -2    1    6      2.80      0.00
   -2    1    5      2.10      0.00
   -2    1    4     -9.40      0.00
   -2    1    3      4.90      0.00
   -2    1    2      7.55      0.00
   -2    1    1     -1.25      0.00
   -2    1    0    -14.04      0.00
    2   -1    1      2.07      0.00
    2   -1    2     15.94      0.00
    2   -1    3     -5.48      0.00
    2   -1    4     -6.71      0.00
    2   -1    5     -0.09      0.00
    2   -1    6      5.48      0.00
    2   -1    7     -1.63      0.00
    2   -1    8     -2.23      0.00
    2   -1    9      1.89      0.00
    2   -1   10      0.43      0.00
    2   -1   11     -0.99      0.00
    2   -1   12      0.16      0.00
    2   -1   13      0.41      0.00
    2   -1   14     -0.02      0.00
    2   -1   15     -0.71      0.00
    2   -1   16      0.37      0.00
    2   -1   17      0.01      0.00
    2   -1   18      0.40      0.00
    2   -1   19     -1.17      0.00
    2   -1   20      1.32      0.00
    2   -1   21     -0.11      0.00
    2   -1   22     -0.46      0.00
    2   -1   23     -0.13      0.00
   -2    0   21     -0.66      0.00
   -2    0   20      0.38      0.00
   -2    0   19      0.39      0.00
   -2    0   18      0.75      0.00
   -2    0   17     -0.35      0.00
   -2    0   16     -0.59      0.00
   -2    0   15      0.41      0.00
   -2    0   14     -1.31      0.00
   -2    0   13      1.30      0.00
   -2    0   12     -0.17      0.00
   -2    0   11      0.75      0.00
   -2    0   10     -1.41      0.00
   -2    0    9      0.20      0.00
   -2    0    8      2.05      0.00
   -2    0    7     -1.54      0.00
   -2    0    6     -3.47      0.00
   -2    0    5      2.27      0.00
   -2    0    4      8.30      0.00
   -2    0    3     -8.37      0.00
   -2    0    2     -2.02      0.00
   -2    0    1     -1.47      0.00
    2    0    0     12.78      0.00
    2    0    1    -10.39      0.00
    2    0    2     -0.63      0.00
    2    0    3      4.60      0.00
    2    0    4      1.36      0.00
    2    0    5     -4.31      0.00
    2    0    6     -2.03      0.00
    2    0    7      4.36      0.00
    2    0    8      0.49      0.00
    2    0    9     -2.16      0.00
    2    0   10     -0.13      0.00
    2    0   11      1.07      0.00
    2    0   12      0.61      0.00
    2    0   13     -0.90      0.00
    2    0   14     -0.81      0.00
    2    0   15      0.22      0.00
    2    0   16      1.16      0.00
    2    0   17     -0.73      0.00
    2    0   18     -0.30      0.00
    2    0   19      0.63      0.00
    2    0   20      0.10      0.00
    2    0   21      0.05      0.00
    2    0   22     -0.78      0.00
    2    0   23      0.19      0.00
   -2   -1   21     -0.53      0.00
   -2   -1   20     -0.11      0.00
   -2   -1   19      1.37      0.00
   -2   -1   18     -0.06      0.00
   -2   -1   17     -0.14      0.00
   -2   -1   16     -1.54      0.00
   -2   -1   15      0.92      0.00
   -2   -1   14      0.18      0.00
   -2   -1   13     -0.26      0.00
   -2   -1   12      0.13      0.00
   -2   -1   11      0.05      0.00
   -2   -1   10      1.24      0.00
   -2   -1    9     -1.05      0.00
   -2   -1    8     -2.38      0.00
   -2   -1    7      1.68      0.00
   -2   -1    6      4.41      0.00
   -2   -1    5     -6.01      0.00
   -2   -1    4     -1.72      0.00
   -2   -1    3      7.92      0.00
   -2   -1    2      2.53      0.00
   -2   -1    1    -11.82      0.00
    2    1    0     -7.53      0.00
    2    1    1     21.50      0.00
    2    1    2     -0.21      0.00
    2    1    8      1.15      0.00
    2    1    9      1.45      0.00
    2    1   10     -1.32      0.00
    2    1   11     -0.68      0.00
    2    1   12      0.09      0.00
    2    1   13      0.57      0.00
    2    1   14     -0.18      0.00
    2    1   15      0.34      0.00
    2    1   16     -0.59      0.00
    2    1   17      0.61      0.00
    2    1   18     -0.70      0.00
    2    1   19      1.04      0.00
    2    1   20     -0.12      0.00
    2    1   21     -0.94      0.00
    2    1   22     -0.03      0.00
    2    1   23      0.40      0.00
   -2   -2   21      0.56      0.00
   -2   -2   20      0.44      0.00
   -2   -2   19      0.28      0.00
   -2   -2   18     -0.73      0.00
   -2   -2   17     -0.86      0.00
   -2   -2   16      0.91      0.00
   -2   -2   15     -0.61      0.00
   -2   -2   14      1.14      0.00
   -2   -2   13     -0.45      0.00
   -2   -2   12      0.50      0.00
   -2   -2   11     -1.04      0.00
   -2   -2   10     -0.42      0.00
   -2   -2    9      1.08      0.00
   -2   -2    8      0.77      0.00
   -2   -2    7     -2.22      0.00
   -2   -2    6     -0.98      0.00
   -2   -2    5      6.62      0.00
   -2   -2    4     -2.60      0.00
   -2   -2    3     -4.19      0.00
   -2   -2    2     -5.63      0.00
   -2   -2    1     13.58      0.00
    2    2    0     -1.27      0.00
    2    2    1     -6.82      0.00
    2    2    2      0.66      0.00
    2    2    3      3.93      0.00
    2    2    4     -1.03      0.00
    2    2    5     -5.40      0.00
    2    2    6      3.94      0.00
    2    2    7      3.67      0.00
    2    2    8     -2.47      0.00
    2    2    9     -2.03      0.00
    2    2   10      0.65      0.00
    2    2   11      1.05      0.00
    2    2   12     -0.22      0.00
    2    2   13     -0.97      0.00
    2    2   14      0.27      0.00
    2    2   15      0.79      0.00
    2    2   16      0.03      0.00
    2    2   17     -0.69      0.00
    2    2   18      0.82      0.00
    2    2   19     -0.30      0.00
    2    2   20     -0.28      0.00
    2    2   21     -0.69      0.00
    2    2   22      0.52      0.00
    2    2   23      0.67      0.00
   -2   -3   21     -0.32      0.00
   -2   -3   20      0.44      0.00
   -2   -3   19     -0.01      0.00
   -2   -3   18     -0.04      0.00
   -2   -3   17     -0.84      0.00
   -2   -3   16      0.49      0.00
   -2   -3   15      0.51      0.00
   -2   -3   14     -0.36      0.00
   -2   -3   13      0.21      0.00
   -2   -3   12     -0.49      0.00
   -2   -3   11      0.63      0.00
   -2   -3   10     -0.05      0.00
   -2   -3    9     -1.44      0.00
   -2   -3    8      0.26      0.00
   -2   -3    7      3.25      0.00
   -2   -3    6     -0.92      0.00
   -2   -3    5     -5.00      0.00
   -2   -3    4      3.00      0.00
   -2   -3    3      4.50      0.00
   -2   -3    2     -2.94      0.00
   -2   -3    1    -10.97      0.00
    2    3    0     13.61      0.00
    2    3    1      4.90      0.00
    2    3    2     -7.70      0.00
    2    3    3    -10.07      0.00
    2    3    4      7.27      0.00
    2    3    5      6.63      0.00
    2    3    6     -3.73      0.00
    2    3    7     -1.71      0.00
    2    3    8      1.49      0.00
    2    3    9     -0.48      0.00
    2    3   10     -1.14      0.00
    2    3   11      0.00      0.00
    2    3   12      0.77      0.00
    2    3   13      0.45      0.00
    2    3   14      0.19      0.00
    2    3   15     -0.58      0.00
    2    3   16      0.19      0.00
    2    3   17     -0.22      0.00
    2    3   18      0.25      0.00
    2    3   19     -0.08      0.00
    2    3   20     -0.75      0.00
    2    3   21      0.44      0.00
    2    3   22      0.29      0.00
   -2   -4   21      0.15      0.00
   -2   -4   20      0.29      0.00
   -2   -4   19     -0.58      0.00
   -2   -4   18     -0.49      0.00
   -2   -4   17      0.58      0.00
   -2   -4   16      0.13      0.00
   -2   -4   15      0.48      0.00
   -2   -4   14     -0.50      0.00
   -2   -4   13      0.06      0.00
   -2   -4   12     -0.81      0.00
   -2   -4   11      0.03      0.00
   -2   -4   10      0.86      0.00
   -2   -4    9      1.16      0.00
   -2   -4    8     -1.16      0.00
   -2   -4    7     -1.67      0.00
   -2   -4    6      1.68      0.00
   -2   -4    5      1.86      0.00
   -2   -4    4     -2.94      0.00
   -2   -4    3     -4.58      0.00
   -2   -4    2      7.28      0.00
   -2   -4    1      5.66      0.00
    2    4    0     -8.65      0.00
    2    4    1     -4.60      0.00
    2    4    2      5.14      0.00
    2    4    3      4.77      0.00
    2    4    4     -5.48      0.00
    2    4    5     -1.28      0.00
    2    4    6      5.21      0.00
    2    4    7     -0.69      0.00
    2    4    8     -2.99      0.00
    2    4    9     -0.66      0.00
    2    4   10      1.87      0.00
    2    4   11      0.45      0.00
    2    4   12     -0.77      0.00
    2    4   13     -0.17      0.00
    2    4   14      0.59      0.00
    2    4   15      0.55      0.00
    2    4   16     -0.78      0.00
    2    4   17     -0.01      0.00
    2    4   18     -0.29      0.00
    2    4   19     -0.06      0.00
    2    4   20     -0.15      0.00
    2    4   21      0.62      0.00
    2    4   22      0.75      0.00
   -2   -5   21     -0.21      0.00
   -2   -5   20      0.35      0.00
   -2   -5   19      0.21      0.00
   -2   -5   18     -0.38      0.00
   -2   -5   17      0.01      0.00
   -2   -5   16      0.13      0.00
   -2   -5   15     -0.15      0.00
   -2   -5   14      0.17      0.00
   -2   -5   13     -0.48      0.00
   -2   -5   12      0.77      0.00
   -2   -5   11     -0.07      0.00
   -2   -5   10     -0.17      0.00
   -2   -5    9     -0.71      0.00
   -2   -5    8      0.79      0.00
   -2   -5    7      1.10      0.00
   -2   -5    6     -2.68      0.00
   -2   -5    5     -0.80      0.00
   -2   -5    4      3.66      0.00
   -2   -5    3      2.26      0.00
   -2   -5    2     -6.98      0.00
   -2   -5    1      0.93      0.00
    2    5    0      6.03      0.00
    2    5    1     -1.34      0.00
    2    5    2     -6.84      0.00
    2    5    3      1.18      0.00
    2    5    4      6.69      0.00
    2    5    5     -0.89      0.00
    2    5    6     -3.49      0.00
    2    5    7      0.35      0.00
    2    5    8      0.71      0.00
    2    5    9     -0.47      0.00
    2    5   10     -0.48      0.00
    2    5   11      0.55      0.00
    2    5   12      0.82      0.00
    2    5   13      0.37      0.00
    2    5   14     -0.38      0.00
    2    5   15     -0.65      0.00
    2    5   16     -0.45      0.00
    2    5   17      0.11      0.00
    2    5   18      0.46      0.00
    2    5   19     -0.08      0.00
    2    5   20      0.38      0.00
    2    5   21      0.07      0.00
    2    5   22     -0.19      0.00
   -2   -6   21      0.71      0.00
   -2   -6   20     -0.41      0.00
   -2   -6   19     -0.32      0.00
   -2   -6   18     -0.32      0.00
   -2   -6   17      0.73      0.00
   -2   -6   16      0.17      0.00
   -2   -6   15     -0.47      0.00
   -2   -6   14     -0.08      0.00
   -2   -6   13     -0.11      0.00
   -2   -6   12     -0.04      0.00
   -2   -6   11      1.15      0.00
   -2   -6   10     -0.05      0.00
   -2   -6    9     -0.86      0.00
   -2   -6    8     -1.26      0.00
   -2   -6    7      0.02      0.00
   -2   -6    6      2.94      0.00
   -2   -6    5     -0.59      0.00
   -2   -6    4     -2.42      0.00
   -2   -6    3      0.25      0.00
   -2   -6    2      5.12      0.00
   -2   -6    1     -3.69      0.00
    2    6    0     -5.23      0.00
    2    6    1      3.46      0.00
    2    6    2      5.72      0.00
    2    6    3     -2.49      0.00
    2    6    4     -5.16      0.00
    2    6    5      3.60      0.00
    2    6    6      1.59      0.00
    2    6    7     -1.76      0.00
    2    6    8     -1.96      0.00
    2    6    9      1.73      0.00
    2    6   10      0.82      0.00
    2    6   11     -0.24      0.00
    2    6   12     -0.57      0.00
    2    6   13      0.35      0.00
    2    6   14      0.39      0.00
    2    6   15     -0.69      0.00
    2    6   16     -0.51      0.00
    2    6   17      0.27      0.00
    2    6   18      0.36      0.00
    2    6   19      0.05      0.00
    2    6   20      0.24      0.00
    2    6   21      0.47      0.00
    2    6   22     -0.84      0.00
   -2   -7   20      0.09      0.00
   -2   -7   19     -0.40      0.00
   -2   -7   18      0.10      0.00
   -2   -7   17     -0.23      0.00
   -2   -7   16      0.25      0.00
   -2   -7   15      0.15      0.00
   -2   -7   14     -0.17      0.00
   -2   -7   13      0.75      0.00
   -2   -7   12     -0.32      0.00
   -2   -7   11     -0.52      0.00
   -2   -7   10     -0.67      0.00
   -2   -7    9     -0.06      0.00
   -2   -7    8      1.64      0.00
   -2   -7    7      0.02      0.00
   -2   -7    6     -1.39      0.00
   -2   -7    5      0.62      0.00
   -2   -7    4      1.54      0.00
   -2   -7    3     -1.43      0.00
   -2   -7    2     -3.37      0.00
   -2   -7    1      3.63      0.00
    2    7    0      2.32      0.00
    2    7    1     -2.55      0.00
    2    7    2     -3.00      0.00
    2    7    3      3.14      0.00
    2    7    4      2.22      0.00
    2    7    5     -2.56      0.00
    2    7    6     -1.22      0.00
    2    7    7      0.94      0.00
    2    7    8      0.84      0.00
    2    7    9     -0.92      0.00
    2    7   10      0.00      0.00
    2    7   11      0.86      0.00
    2    7   12      0.59      0.00
    2    7   13     -0.45      0.00
    2    7   14     -1.11      0.00
    2    7   15     -0.58      0.00
    2    7   16      0.50      0.00
    2    7   17      1.10      0.00
    2    7   18      0.27      0.00
    2    7   19     -0.54      0.00
    2    7   20     -0.03      0.00
    2    7   21     -0.45      0.00
    2    7   22     -0.14      0.00
   -2   -8   20     -0.35      0.00
   -2   -8   19     -0.76      0.00
   -2   -8   18      0.89      0.00
   -2   -8   17      0.61      0.00
   -2   -8   16     -0.48      0.00
   -2   -8   15     -0.34      0.00
   -2   -8   14      0.46      0.00
   -2   -8   13     -0.51      0.00
   -2   -8   12      0.66      0.00
   -2   -8   11     -0.59      0.00
   -2   -8   10     -0.07      0.00
   -2   -8    9     -0.55      0.00
   -2   -8    8      0.53      0.00
   -2   -8    7      1.72      0.00
   -2   -8    6     -0.30      0.00
   -2   -8    5     -1.52      0.00
   -2   -8    4     -1.85      0.00
   -2   -8    3      2.70      0.00
   -2   -8    2      1.05      0.00
   -2   -8    1     -2.62      0.00
    2    8    0     -0.18      0.00
    2    8    1      2.66      0.00
    2    8    2      0.65      0.00
    2    8    3     -3.58      0.00
    2    8    4      0.42      0.00
    2    8    5      1.58      0.00
    2    8    6      0.30      0.00
    2    8    7     -1.51      0.00
    2    8    8      0.47      0.00
    2    8    9      0.64      0.00
    2    8   10      0.17      0.00
    2    8   11     -0.61      0.00
    2    8   12     -0.04      0.00
    2    8   13      0.29      0.00
    2    8   14     -0.41      0.00
    2    8   15     -0.37      0.00
    2    8   16      0.80      0.00
    2    8   17      0.18      0.00
    2    8   18     -0.40      0.00
    2    8   19      0.03      0.00
    2    8   20      0.44      0.00
    2    8   21     -0.42      0.00
    2    8   22     -0.63      0.00
   -2   -9   20     -0.44      0.00
   -2   -9   19      0.43      0.00
   -2   -9   18      0.00      0.00
   -2   -9   17      0.26      0.00
   -2   -9   16      0.02      0.00
   -2   -9   15     -0.07      0.00
   -2   -9   14      0.10      0.00
   -2   -9   13     -0.15      0.00
   -2   -9   12     -0.98      0.00
   -2   -9   11      0.16      0.00
   -2   -9   10      0.39      0.00
   -2   -9    9      1.73      0.00
   -2   -9    8     -0.19      0.00
   -2   -9    7     -1.35      0.00
   -2   -9    6     -1.14      0.00
   -2   -9    5      0.59      0.00
   -2   -9    4      1.50      0.00
   -2   -9    3     -1.30      0.00
   -2   -9    2      0.59      0.00
   -2   -9    1      0.79      0.00
    2    9    0     -0.08      0.00
    2    9    1     -2.33      0.00
    2    9    2      0.89      0.00
    2    9    3      1.95      0.00
    2    9    4     -0.86      0.00
    2    9    5     -1.62      0.00
    2    9    6      0.86      0.00
    2    9    7      1.31      0.00
    2    9    8     -0.96      0.00
    2    9    9     -0.86      0.00
    2    9   10      1.06      0.00
    2    9   11      0.61      0.00
    2    9   12     -0.48      0.00
    2    9   13     -1.13      0.00
    2    9   14      0.10      0.00
    2    9   15      0.46      0.00
    2    9   16      0.80      0.00
    2    9   17      0.26      0.00
    2    9   18     -1.02      0.00
    2    9   19      0.08      0.00
    2    9   20     -0.23      0.00
    2    9   21      0.20      0.00
    2    9   22      0.00      0.00
   -2  -10   20     -0.66      0.00
   -2  -10   19      0.40      0.00
   -2  -10   18      1.12      0.00
   -2  -10   17     -0.30      0.00
   -2  -10   16     -0.82      0.00
   -2  -10   15      0.23      0.00
   -2  -10   14     -0.25      0.00
   -2  -10   13      0.04      0.00
   -2  -10   12      0.05      0.00
   -2  -10   11      0.57      0.00
   -2  -10   10     -0.03      0.00
   -2  -10    9     -0.21      0.00
   -2  -10    8      0.30      0.00
   -2  -10    7     -0.35      0.00
   -2  -10    6     -0.50      0.00
   -2  -10    5     -0.74      0.00
   -2  -10    4      1.30      0.00
   -2  -10    3      1.25      0.00
   -2  -10    2     -0.84      0.00
   -2  -10    1     -1.51      0.00
    2   10    0      0.41      0.00
    2   10    1      1.85      0.00
    2   10    2     -1.07      0.00
    2   10    3     -1.20      0.00
    2   10    4      0.19      0.00
    2   10    5      1.72      0.00
    2   10    6     -0.20      0.00
    2   10    7     -1.04      0.00
    2   10    8      0.00      0.00
    2   10    9      0.69      0.00
    2   10   10     -0.40      0.00
    2   10   11     -0.32      0.00
    2   10   12      0.46      0.00
    2   10   13      0.12      0.00
    2   10   14     -0.64      0.00
    2   10   15      0.81      0.00
    2   10   16     -0.07      0.00
    2   10   17     -0.76      0.00
    2   10   18      0.11      0.00
    2   10   19      0.90      0.00
    2   10   20     -0.16      0.00
    2   10   21     -1.05      0.00
   -2  -11   19      0.59      0.00
   -2  -11   18      0.04      0.00
   -2  -11   17     -0.19      0.00
   -2  -11   16     -0.40      0.00
   -2  -11   15     -0.20      0.00
   -2  -11   14      0.31      0.00
   -2  -11   13     -0.35      0.00
   -2  -11   12      0.36      0.00
   -2  -11   11      0.43      0.00
   -2  -11   10      0.76      0.00
   -2  -11    9     -0.74      0.00
   -2  -11    8     -1.22      0.00
   -2  -11    7     -0.45      0.00
   -2  -11    6      0.93      0.00
   -2  -11    5      1.38      0.00
   -2  -11    4     -0.21      0.00
   -2  -11    3     -0.64      0.00
   -2  -11    2     -0.96      0.00
   -2  -11    1      0.89      0.00
    2   11    0     -0.23      0.00
    2   11    1      0.05      0.00
    2   11    2      0.20      0.00
    2   11    3     -0.09      0.00
    2   11    4     -0.27      0.00
    2   11    5      0.38      0.00
    2   11    6      0.50      0.00
    2   11    7     -0.63      0.00
    2   11    8     -1.21      0.00
    2   11    9      1.40      0.00
    2   11   10      0.57      0.00
    2   11   11     -0.38      0.00
    2   11   12     -1.33      0.00
    2   11   13      0.87      0.00
    2   11   14      0.32      0.00
    2   11   15     -0.15      0.00
    2   11   16      0.04      0.00
    2   11   17     -0.26      0.00
    2   11   18      0.30      0.00
    2   11   19     -0.48      0.00
    2   11   20      0.54      0.00
    2   11   21     -0.54      0.00
   -2  -12   19      1.19      0.00
   -2  -12   18      0.10      0.00
   -2  -12   17     -1.00      0.00
   -2  -12   16     -0.25      0.00
   -2  -12   15      0.36      0.00
   -2  -12   14      0.03      0.00
   -2  -12   13      0.43      0.00
   -2  -12   12      0.19      0.00
   -2  -12   11      0.02      0.00
   -2  -12   10     -0.85      0.00
   -2  -12    9     -0.19      0.00
   -2  -12    8      0.46      0.00
   -2  -12    7      0.23      0.00
   -2  -12    6     -0.14      0.00
   -2  -12    5      0.11      0.00
   -2  -12    4      0.22      0.00
   -2  -12    3     -0.22      0.00
   -2  -12    2     -0.19      0.00
   -2  -12    1     -0.50      0.00
    2   12    0      1.08      0.00
    2   12    1     -0.45      0.00
    2   12    2     -0.43      0.00
    2   12    3     -0.11      0.00
    2   12    4      1.15      0.00
    2   12    5      0.40      0.00
    2   12    6     -1.77      0.00
    2   12    7     -0.13      0.00
    2   12    8      1.33      0.00
    2   12    9     -0.20      0.00
    2   12   10     -0.69      0.00
    2   12   11      0.37      0.00
    2   12   12      0.80      0.00
    2   12   13     -1.17      0.00
    2   12   14      0.27      0.00
    2   12   15      0.37      0.00
    2   12   16     -0.45      0.00
    2   12   17     -0.24      0.00
    2   12   18      1.15      0.00
    2   12   19      0.10      0.00
    2   12   20     -1.63      0.00
    2   12   21      0.61      0.00
   -2  -13   19      0.00      0.00
   -2  -13   17     -0.79      0.00
   -2  -13   16      0.05      0.00
   -2  -13   15      0.44      0.00
   -2  -13   14      0.46      0.00
   -2  -13   13     -0.34      0.00
   -2  -13   12      0.19      0.00
   -2  -13   11     -0.19      0.00
   -2  -13   10     -0.03      0.00
   -2  -13    9     -0.71      0.00
   -2  -13    8      0.19      0.00
   -2  -13    7      0.79      0.00
   -2  -13    6      0.21      0.00
   -2  -13    5     -0.19      0.00
   -2  -13    4     -0.24      0.00
   -2  -13    3     -0.63      0.00
   -2  -13    2      0.20      0.00
   -2  -13    1      0.62      0.00
    2   13    2     -0.24      0.00
    2   13    3      0.69      0.00
    2   13    4     -0.45      0.00
    2   13    5     -0.40      0.00
    2   13    6      0.40      0.00
    2   13    7     -0.84      0.00
    2   13    8      1.11      0.00
    2   13    9      0.21      0.00
    2   13   10     -0.09      0.00
    2   13   11     -1.53      0.00
    2   13   12      0.99      0.00
    2   13   13      0.62      0.00
    2   13   14     -0.45      0.00
    2   13   15     -0.76      0.00
    2   13   16      0.80      0.00
    2   13   17      0.58      0.00
    2   13   18     -1.10      0.00
    2   13   19      0.43      0.00
    2   13   20     -0.34      0.00
   -2  -14   18     -0.70      0.00
   -2  -14   17     -0.37      0.00
   -2  -14   16      0.42      0.00
   -2  -14   15      0.08      0.00
   -2  -14   14      0.13      0.00
   -2  -14   13      0.01      0.00
   -2  -14   12     -0.03      0.00
   -2  -14   11     -0.32      0.00
   -2  -14   10     -0.36      0.00
   -2  -14    9      0.72      0.00
   -2  -14    8      0.06      0.00
   -2  -14    7     -0.19      0.00
   -2  -14    6     -0.11      0.00
   -2  -14    5      0.04      0.00
   -2  -14    4     -0.03      0.00
   -2  -14    3      0.37      0.00
   -2  -14    2     -0.50      0.00
    2   14    3     -0.65      0.00
    2   14    4      0.60      0.00
    2   14    5     -0.98      0.00
    2   14    6     -0.05      0.00
    2   14    7      1.18      0.00
    2   14    8     -0.18      0.00
    2   14    9     -0.70      0.00
    2   14   10     -0.13      0.00
    2   14   11      1.28      0.00
    2   14   12     -1.02      0.00
    2   14   13     -0.40      0.00
    2   14   14      0.66      0.00
    2   14   15      0.42      0.00
    2   14   16     -1.12      0.00
    2   14   17      0.82      0.00
    2   14   18      0.60      0.00
    2   14   19     -1.50      0.00
   -2  -15   18     -0.79      0.00
   -2  -15   16      0.01      0.00
   -2  -15   15      0.88      0.00
   -2  -15   14     -0.63      0.00
   -2  -15   13      0.22      0.00
   -2  -15   12     -0.52      0.00
   -2  -15   11      0.48      0.00
   -2  -15   10     -0.40      0.00
   -2  -15    9      0.03      0.00
   -2  -15    8      0.47      0.00
   -2  -15    7     -0.16      0.00
   -2  -15    6     -0.07      0.00
   -2  -15    5      0.24      0.00
   -2  -15    4     -0.22      0.00
   -2  -15    3     -0.63      0.00
    2   15    5      1.08      0.00
    2   15    6     -0.59      0.00
    2   15    7      0.25      0.00
    2   15    8     -0.05      0.00
    2   15    9      0.26      0.00
    2   15   10     -1.05      0.00
    2   15   11      0.54      0.00
    2   15   12      0.76      0.00
    2   15   13     -0.02      0.00
    2   15   14     -1.69      0.00
    2   15   15      1.03      0.00
    2   15   16      1.09      0.00
    2   15   17     -1.17      0.00
    2   15   18     -0.15      0.00
   -2  -16   16      0.03      0.00
   -2  -16   15     -0.23      0.00
   -2  -16   14      0.57      0.00
   -2  -16   13     -0.10      0.00
   -2  -16   12      0.12      0.00
   -2  -16   11     -0.84      0.00
   -2  -16   10      0.53      0.00
   -2  -16    9      0.01      0.00
   -2  -16    8     -0.09      0.00
   -2  -16    7      0.33      0.00
   -2  -16    6     -0.09      0.00
   -2  -16    5     -0.16      0.00
    2   16    6      0.48      0.00
    2   16    7     -0.10      0.00
    2   16    8      0.14      0.00
    2   16    9     -0.56      0.00
    2   16   10      0.96      0.00
    2   16   11     -0.41      0.00
    2   16   12     -0.69      0.00
    2   16   13      0.13      0.00
    2   16   14      1.39      0.00
    2   16   15     -1.44      0.00
    2   16   16      0.22      0.00
    2   16   17      0.77      0.00
    2   16   18     -0.57      0.00
   -2  -17   15     -0.10      0.00
   -2  -17   13     -0.80      0.00
   -2  -17   12      0.27      0.00
   -2  -17   10     -0.03      0.00
   -2  -17    9      0.35      0.00
   -2  -17    8      0.01      0.00
   -2  -17    7     -0.34      0.00
   -2  -17    6      0.35      0.00
    2   17    7      0.41      0.00
    2   17    8     -0.11      0.00
    2   17    9     -0.20      0.00
    2   17   10     -0.03      0.00
    2   17   11      0.46      0.00
    2   17   12      0.19      0.00
    2   17   13     -1.50      0.00
    2   17   14      0.57      0.00
    2   17   15      1.50      0.00
    2   17   16     -0.79      0.00
    2   17   17     -0.77      0.00
    2   17   18      0.26      0.00
   -2  -18   12     -1.08      0.00
   -2  -18   11      0.44      0.00
   -2  -18   10      0.16      0.00
   -2  -18    9      0.08      0.00
    2   18    8     -0.51      0.00
    2   18    9     -0.02      0.00
    2   18   10      0.06      0.00
    2   18   11     -0.51      0.00
    2   18   12     -0.25      0.00
    2   18   13      1.67      0.00
    2   18   14     -0.80      0.00
    2   18   15     -0.50      0.00
    2   18   16      0.29      0.00
   -2  -19   10      0.04      0.00
    2   19   11      0.04      0.00
    2   19   12     -0.45      0.00
   -3   17   11     -0.05      0.00
   -3   17   10      0.80      0.00
   -3   17    9     -0.79      0.00
   -3   16   14     -0.53      0.00
   -3   16   13     -0.40      0.00
   -3   16   12      0.35      0.00
   -3   16   11      0.96      0.00
   -3   16   10     -0.53      0.00
   -3   16    9     -0.58      0.00
   -3   16    8     -0.10      0.00
   -3   16    7      0.15      0.00
    3  -16   12      0.60      0.00
    3  -16   13     -0.37      0.00
    3  -16   14     -0.10      0.00
    3  -16   15     -0.17      0.00
   -3   15   12      0.08      0.00
   -3   15   11      0.99      0.00
   -3   15   10     -0.75      0.00
   -3   15    9     -0.40      0.00
   -3   15    8     -0.40      0.00
   -3   15    7      1.18      0.00
   -3   15    6     -0.39      0.00
   -3   15    5      0.42      0.00
    3  -15   10     -0.05      0.00
    3  -15   11      0.66      0.00
    3  -15   12     -0.49      0.00
    3  -15   14     -0.26      0.00
    3  -15   15      0.70      0.00
   -3   14   16      0.70      0.00
   -3   14   15     -0.27      0.00
   -3   14   14     -0.43      0.00
   -3   14   13     -0.09      0.00
   -3   14   12      1.27      0.00
   -3   14   11     -0.65      0.00
   -3   14   10     -0.30      0.00
   -3   14    9     -0.46      0.00
   -3   14    8      0.40      0.00
   -3   14    7     -0.12      0.00
   -3   14    6      1.36      0.00
   -3   14    5     -0.74      0.00
    3  -14    9      0.93      0.00
    3  -14   10     -0.23      0.00
    3  -14   11      0.42      0.00
    3  -14   12     -0.33      0.00
    3  -14   13     -0.10      0.00
    3  -14   14     -0.04      0.00
    3  -14   15      0.39      0.00
    3  -14   16      0.05      0.00
    3  -14   17     -0.73      0.00
    3  -14   18      0.00      0.00
   -3   13   17     -0.30      0.00
   -3   13   16      0.68      0.00
   -3   13   15     -0.49      0.00
   -3   13   14     -0.08      0.00
   -3   13   13      0.26      0.00
   -3   13   12      0.69      0.00
   -3   13   11     -0.53      0.00
   -3   13   10     -0.73      0.00
   -3   13    9     -0.19      0.00
   -3   13    8      1.05      0.00
   -3   13    7      0.27      0.00
   -3   13    6     -0.37      0.00
   -3   13    5     -0.38      0.00
   -3   13    4     -0.25      0.00
   -3   13    3      0.66      0.00
    3  -13    7      0.34      0.00
    3  -13    8     -0.07      0.00
    3  -13    9     -0.34      0.00
    3  -13   10      0.58      0.00
    3  -13   11     -0.27      0.00
    3  -13   12      0.28      0.00
    3  -13   13     -0.50      0.00
    3  -13   14      0.64      0.00
    3  -13   15     -0.87      0.00
    3  -13   16      0.27      0.00
    3  -13   17      0.15      0.00
    3  -13   18      0.66      0.00
   -3   12   18     -0.56      0.00
   -3   12   17      0.66      0.00
   -3   12   16      0.29      0.00
   -3   12   15      0.11      0.00
   -3   12   14     -0.48      0.00
   -3   12   13      0.61      0.00
   -3   12   12     -0.95      0.00
   -3   12   11      0.36      0.00
   -3   12   10      0.04      0.00
   -3   12    9      0.41      0.00
   -3   12    8     -0.96      0.00
   -3   12    7      1.29      0.00
   -3   12    6     -0.14      0.00
   -3   12    5     -0.72      0.00
   -3   12    4     -0.72      0.00
   -3   12    3      0.83      0.00
   -3   12    2      0.88      0.00
    3  -12    6     -0.60      0.00
    3  -12    7     -1.16      0.00
    3  -12    8      0.63      0.00
    3  -12    9      0.67      0.00
    3  -12   10     -0.02      0.00
    3  -12   11     -0.37      0.00
    3  -12   12     -0.12      0.00
    3  -12   13      0.25      0.00
    3  -12   14     -0.30      0.00
    3  -12   15      0.17      0.00
    3  -12   16     -0.50      0.00
    3  -12   17      0.81      0.00
    3  -12   18      0.03      0.00
    3  -12   19      0.20      0.00
    3  -12   20     -0.87      0.00
    3  -12   21     -0.02      0.00
   -3   11   18     -0.04      0.00
   -3   11   17      0.86      0.00
   -3   11   16     -0.14      0.00
   -3   11   15     -0.34      0.00
   -3   11   14     -0.06      0.00
   -3   11   13      0.08      0.00
   -3   11   12      0.22      0.00
   -3   11   11     -0.43      0.00
   -3   11   10     -0.06      0.00
   -3   11    9      0.20      0.00
   -3   11    8      0.88      0.00
   -3   11    7     -0.82      0.00
   -3   11    6     -0.19      0.00
   -3   11    5     -0.26      0.00
   -3   11    4      1.12      0.00
   -3   11    3     -0.95      0.00
   -3   11    2     -0.13      0.00
   -3   11    1      0.92      0.00
   -3   11    0      0.08      0.00
    3  -11    4      0.26      0.00
    3  -11    5     -0.74      0.00
    3  -11    6     -0.05      0.00
    3  -11    7      0.68      0.00
    3  -11    8     -0.22      0.00
    3  -11    9     -0.21      0.00
    3  -11   10     -0.01      0.00
    3  -11   11      0.40      0.00
    3  -11   12     -0.36      0.00
    3  -11   13      0.01      0.00
    3  -11   14     -0.61      0.00
    3  -11   15      0.55      0.00
    3  -11   16      0.68      0.00
    3  -11   17      0.16      0.00
    3  -11   18     -0.88      0.00
    3  -11   19     -0.52      0.00
    3  -11   20      0.45      0.00
    3  -11   21      0.44      0.00
   -3   10   19     -0.35      0.00
   -3   10   18      0.53      0.00
   -3   10   17      0.49      0.00
   -3   10   16      0.27      0.00
   -3   10   15     -0.63      0.00
   -3   10   14     -0.30      0.00
   -3   10   13     -0.82      0.00
   -3   10   12      0.99      0.00
   -3   10   11      0.97      0.00
   -3   10   10      0.00      0.00
   -3   10    9     -1.81      0.00
   -3   10    8      0.51      0.00
   -3   10    7      0.88      0.00
   -3   10    6     -0.19      0.00
   -3   10    5     -0.75      0.00
   -3   10    4      0.04      0.00
   -3   10    3      1.52      0.00
   -3   10    2     -1.29      0.00
   -3   10    1      0.01      0.00
   -3   10    0      0.18      0.00
    3  -10    1      0.51      0.00
    3  -10    2     -1.09      0.00
    3  -10    3      0.21      0.00
    3  -10    4      0.98      0.00
    3  -10    5     -0.01      0.00
    3  -10    6     -1.00      0.00
    3  -10    7     -0.29      0.00
    3  -10    8      1.24      0.00
    3  -10    9      0.02      0.00
    3  -10   10     -0.62      0.00
    3  -10   11     -0.45      0.00
    3  -10   12      0.54      0.00
    3  -10   13     -0.04      0.00
    3  -10   14      0.10      0.00
    3  -10   15     -0.32      0.00
    3  -10   16      0.83      0.00
    3  -10   17     -0.36      0.00
    3  -10   18     -0.07      0.00
    3  -10   19     -0.78      0.00
    3  -10   20      0.26      0.00
    3  -10   21      0.23      0.00
   -3    9   19      0.26      0.00
   -3    9   18      0.70      0.00
   -3    9   17     -0.23      0.00
   -3    9   16     -0.56      0.00
   -3    9   15     -0.35      0.00
   -3    9   14      0.01      0.00
   -3    9   13      0.94      0.00
   -3    9   12      0.19      0.00
   -3    9   11     -0.63      0.00
   -3    9   10     -0.72      0.00
   -3    9    9      1.06      0.00
   -3    9    8     -0.23      0.00
   -3    9    7     -0.37      0.00
   -3    9    6     -0.29      0.00
   -3    9    5      1.66      0.00
   -3    9    4     -1.09      0.00
   -3    9    3     -1.08      0.00
   -3    9    2      1.17      0.00
   -3    9    1      0.81      0.00
   -3    9    0     -0.77      0.00
    3   -9    1     -1.31      0.00
    3   -9    2      1.34      0.00
    3   -9    3      0.10      0.00
    3   -9    4     -0.29      0.00
    3   -9    5     -0.44      0.00
    3   -9    6      0.98      0.00
    3   -9    7     -0.14      0.00
    3   -9    8     -0.80      0.00
    3   -9    9     -0.01      0.00
    3   -9   10      0.44      0.00
    3   -9   11      0.13      0.00
    3   -9   12     -0.22      0.00
    3   -9   13     -0.37      0.00
    3   -9   14      0.65      0.00
    3   -9   15      0.45      0.00
    3   -9   16     -0.40      0.00
    3   -9   17     -0.87      0.00
    3   -9   18     -0.13      0.00
    3   -9   19      0.84      0.00
    3   -9   20      0.07      0.00
    3   -9   21      0.01      0.00
    3   -9   22     -0.15      0.00
   -3    8   19      0.22      0.00
   -3    8   18      0.01      0.00
   -3    8   17     -0.07      0.00
   -3    8   16     -0.26      0.00
   -3    8   15     -0.22      0.00
   -3    8   14     -0.41      0.00
   -3    8   13      0.79      0.00
   -3    8   12      1.00      0.00
   -3    8   11     -0.09      0.00
   -3    8   10     -2.01      0.00
   -3    8    9     -0.12      0.00
   -3    8    8      1.10      0.00
   -3    8    7      1.06      0.00
   -3    8    6     -0.70      0.00
   -3    8    5     -0.95      0.00
   -3    8    4      1.40      0.00
   -3    8    3     -0.85      0.00
   -3    8    2     -0.60      0.00
   -3    8    1      0.02      0.00
   -3    8    0      2.17      0.00
    3   -8    1     -1.35      0.00
    3   -8    2     -1.29      0.00
    3   -8    3      0.88      0.00
    3   -8    4      1.39      0.00
    3   -8    5     -0.57      0.00
    3   -8    6     -1.68      0.00
    3   -8    7      1.03      0.00
    3   -8    8      0.60      0.00
    3   -8    9     -0.27      0.00
    3   -8   10     -1.01      0.00
    3   -8   11      0.61      0.00
    3   -8   12      0.65      0.00
    3   -8   13      0.10      0.00
    3   -8   14     -0.96      0.00
    3   -8   15      0.31      0.00
    3   -8   16     -0.06      0.00
    3   -8   17      0.36      0.00
    3   -8   18     -0.62      0.00
    3   -8   19      0.10      0.00
    3   -8   20      0.13      0.00
    3   -8   21      0.83      0.00
    3   -8   22     -0.07      0.00
   -3    7   19      0.16      0.00
   -3    7   18     -0.46      0.00
   -3    7   17     -0.16      0.00
   -3    7   16     -0.05      0.00
   -3    7   15      0.19      0.00
   -3    7   14      0.70      0.00
   -3    7   13      0.33      0.00
   -3    7   12     -1.03      0.00
   -3    7   11     -1.04      0.00
   -3    7   10      1.10      0.00
   -3    7    9      0.51      0.00
   -3    7    8     -0.28      0.00
   -3    7    7     -0.62      0.00
   -3    7    6      1.76      0.00
   -3    7    5     -0.89      0.00
   -3    7    4     -2.10      0.00
   -3    7    3      0.92      0.00
   -3    7    2      2.25      0.00
   -3    7    1     -0.37      0.00
   -3    7    0     -2.72      0.00
    3   -7    1      1.29      0.00
    3   -7    2      0.85      0.00
    3   -7    3      0.05      0.00
    3   -7    4     -1.06      0.00
    3   -7    5      0.68      0.00
    3   -7    6      0.05      0.00
    3   -7    7     -0.82      0.00
    3   -7    8      0.27      0.00
    3   -7    9      0.26      0.00
    3   -7   10      0.45      0.00
    3   -7   11     -0.25      0.00
    3   -7   12     -0.21      0.00
    3   -7   13      0.14      0.00
    3   -7   14      0.11      0.00
    3   -7   15     -0.40      0.00
    3   -7   16     -0.44      0.00
    3   -7   17      0.52      0.00
    3   -7   18      0.54      0.00
    3   -7   19     -0.29      0.00
    3   -7   20      0.00      0.00
    3   -7   21     -0.01      0.00
    3   -7   22      0.09      0.00
   -3    6   20     -0.07      0.00
   -3    6   19     -0.31      0.00
   -3    6   18     -0.06      0.00
   -3    6   17      0.26      0.00
   -3    6   16      0.28      0.00
   -3    6   15     -0.43      0.00
   -3    6   14      0.05      0.00
   -3    6   13      0.25      0.00
   -3    6   12      0.60      0.00
   -3    6   11     -1.36      0.00
   -3    6   10     -0.45      0.00
   -3    6    9      0.57      0.00
   -3    6    8      2.00      0.00
   -3    6    7     -0.48      0.00
   -3    6    6     -2.05      0.00
   -3    6    5      0.68      0.00
   -3    6    4      0.85      0.00
   -3    6    3     -1.14      0.00
   -3    6    2     -1.08      0.00
   -3    6    1      3.41      0.00
   -3    6    0      0.18      0.00
    3   -6    1     -3.08      0.00
    3   -6    2     -0.55      0.00
    3   -6    3      2.67      0.00
    3   -6    4      0.44      0.00
    3   -6    5     -2.48      0.00
    3   -6    6      0.33      0.00
    3   -6    7      1.43      0.00
    3   -6    8      0.05      0.00
    3   -6    9     -1.30      0.00
    3   -6   10      0.16      0.00
    3   -6   11      0.99      0.00
    3   -6   12      0.41      0.00
    3   -6   13     -1.45      0.00
    3   -6   14     -0.34      0.00
    3   -6   15      0.55      0.00
    3   -6   16      1.12      0.00
    3   -6   17     -0.79      0.00
    3   -6   18     -0.15      0.00
    3   -6   19     -0.33      0.00
    3   -6   20      1.13      0.00
    3   -6   21     -0.25      0.00
    3   -6   22     -0.78      0.00
   -3    5   20     -0.13      0.00
   -3    5   19     -0.03      0.00
   -3    5   18      0.40      0.00
   -3    5   17      0.17      0.00
   -3    5   16     -0.22      0.00
   -3    5   15      0.02      0.00
   -3    5   14      0.07      0.00
   -3    5   13     -0.26      0.00
   -3    5   12     -1.04      0.00
   -3    5   11      1.16      0.00
   -3    5   10      0.53      0.00
   -3    5    9      0.21      0.00
   -3    5    8     -1.29      0.00
   -3    5    7      1.16      0.00
   -3    5    6     -0.18      0.00
   -3    5    5     -2.19      0.00
   -3    5    4      0.09      0.00
   -3    5    3      3.45      0.00
   -3    5    2      0.78      0.00
   -3    5    1     -4.59      0.00
   -3    5    0      0.62      0.00
    3   -5    1      2.49      0.00
    3   -5    2      0.23      0.00
    3   -5    3     -2.76      0.00
    3   -5    4      0.77      0.00
    3   -5    5      1.66      0.00
    3   -5    6     -1.07      0.00
    3   -5    7     -0.27      0.00
    3   -5    8      0.22      0.00
    3   -5    9      0.51      0.00
    3   -5   10     -0.34      0.00
    3   -5   11      0.14      0.00
    3   -5   12     -0.43      0.00
    3   -5   13      0.04      0.00
    3   -5   14     -0.16      0.00
    3   -5   15      0.07      0.00
    3   -5   16      0.74      0.00
    3   -5   17      0.01      0.00
    3   -5   18     -0.58      0.00
    3   -5   19      0.08      0.00
    3   -5   20     -0.07      0.00
    3   -5   21      0.11      0.00
    3   -5   22     -0.57      0.00
   -3    4   20      0.11      0.00
   -3    4   19      0.15      0.00
   -3    4   18      0.15      0.00
   -3    4   17      0.04      0.00
   -3    4   16     -0.49      0.00
   -3    4   15     -0.21      0.00
   -3    4   14     -0.05      0.00
   -3    4   13      0.96      0.00
   -3    4   12     -0.16      0.00
   -3    4   11     -1.02      0.00
   -3    4   10      0.16      0.00
   -3    4    9      1.66      0.00
   -3    4    8      0.18      0.00
   -3    4    7     -2.80      0.00
   -3    4    6      0.00      0.00
   -3    4    5      2.84      0.00
   -3    4    4     -0.71      0.00
   -3    4    3     -3.29      0.00
   -3    4    2      2.96      0.00
   -3    4    1      3.75      0.00
   -3    4    0     -4.20      0.00
    3   -4    1     -3.63      0.00
    3   -4    2      2.58      0.00
    3   -4    3      3.94      0.00
    3   -4    4     -2.39      0.00
    3   -4    5     -1.59      0.00
    3   -4    6      1.65      0.00
    3   -4    7      0.05      0.00
    3   -4    8     -0.99      0.00
    3   -4    9     -0.21      0.00
    3   -4   10      1.22      0.00
    3   -4   11      0.49      0.00
    3   -4   12     -1.34      0.00
    3   -4   13     -0.93      0.00
    3   -4   14      0.93      0.00
    3   -4   15      1.66      0.00
    3   -4   16     -1.05      0.00
    3   -4   17     -0.34      0.00
    3   -4   18     -0.76      0.00
    3   -4   19      1.35      0.00
    3   -4   20     -0.52      0.00
    3   -4   21     -0.18      0.00
    3   -4   22     -0.22      0.00
    3   -4   23      0.55      0.00
   -3    3   20      0.55      0.00
   -3    3   19      0.38      0.00
   -3    3   18     -0.34      0.00
   -3    3   17     -0.71      0.00
   -3    3   16      0.06      0.00
   -3    3   15      0.07      0.00
   -3    3   14      0.80      0.00
   -3    3   13     -1.09      0.00
   -3    3   12      0.79      0.00
   -3    3   11      0.24      0.00
   -3    3   10      0.45      0.00
   -3    3    9     -1.54      0.00
   -3    3    8      0.00      0.00
   -3    3    7      1.31      0.00
   -3    3    6     -1.28      0.00
   -3    3    5     -1.33      0.00
   -3    3    4      2.90      0.00
   -3    3    3      3.56      0.00
   -3    3    2     -6.16      0.00
   -3    3    1     -1.90      0.00
   -3    3    0      3.94      0.00
    3   -3    1      2.86      0.00
    3   -3    2     -4.70      0.00
    3   -3    3     -0.87      0.00
    3   -3    4      4.52      0.00
    3   -3    5     -1.01      0.00
    3   -3    6     -2.53      0.00
    3   -3    7      0.50      0.00
    3   -3    8      1.48      0.00
    3   -3    9     -0.20      0.00
    3   -3   10     -0.33      0.00
    3   -3   11     -0.57      0.00
    3   -3   12      0.08      0.00
    3   -3   13      0.17      0.00
    3   -3   14      0.48      0.00
    3   -3   15      0.33      0.00
    3   -3   16     -0.36      0.00
    3   -3   17     -0.78      0.00
    3   -3   18      0.51      0.00
    3   -3   19     -0.23      0.00
    3   -3   20      0.36      0.00
    3   -3   21     -0.65      0.00
    3   -3   22      1.14      0.00
    3   -3   23     -0.38      0.00
   -3    2   20      0.00      0.00
   -3    2   19     -0.53      0.00
   -3    2   18     -0.44      0.00
   -3    2   17      0.07      0.00
   -3    2   16      0.29      0.00
   -3    2   15      0.19      0.00
   -3    2   14      0.15      0.00
   -3    2   13      0.72      0.00
   -3    2   12     -1.53      0.00
   -3    2   11      0.21      0.00
   -3    2   10      0.53      0.00
   -3    2    9      0.99      0.00
   -3    2    8     -2.17      0.00
   -3    2    7     -0.88      0.00
   -3    2    6      3.38      0.00
   -3    2    5      0.75      0.00
   -3    2    4     -4.18      0.00
   -3    2    3     -0.63      0.00
   -3    2    2      7.10      0.00
   -3    2    1     -3.00      0.00
   -3    2    0     -5.19      0.00
    3   -2    1     -0.83      0.00
    3   -2    2      9.03      0.00
    3   -2    3     -1.52      0.00
    3   -2    4     -4.93      0.00
    3   -2    5      0.57      0.00
    3   -2    6      1.78      0.00
    3   -2    7     -0.12      0.00
    3   -2    8     -0.99      0.00
    3   -2    9      1.06      0.00
    3   -2   10      0.56      0.00
    3   -2   11     -1.20      0.00
    3   -2   12     -0.94      0.00
    3   -2   13      0.99      0.00
    3   -2   14      1.68      0.00
    3   -2   15     -1.21      0.00
    3   -2   16     -0.56      0.00
    3   -2   17     -0.64      0.00
    3   -2   18      1.47      0.00
    3   -2   19     -0.69      0.00
    3   -2   20      0.07      0.00
    3   -2   21      0.25      0.00
    3   -2   22      0.06      0.00
    3   -2   23     -0.18      0.00
   -3    1   20      0.03      0.00
   -3    1   19     -0.80      0.00
   -3    1   18     -0.54      0.00
   -3    1   17      0.72      0.00
   -3    1   16      0.23      0.00
   -3    1   15      0.81      0.00
   -3    1   14     -1.10      0.00
   -3    1   13      0.04      0.00
   -3    1   12      0.33      0.00
   -3    1   11      0.27      0.00
   -3    1   10     -0.83      0.00
   -3    1    9     -1.05      0.00
   -3    1    8      2.24      0.00
   -3    1    7      0.25      0.00
   -3    1    6     -2.58      0.00
   -3    1    5      0.51      0.00
   -3    1    4      5.87      0.00
   -3    1    3     -4.66      0.00
   -3    1    2     -5.82      0.00
   -3    1    1      3.89      0.00
   -3    1    0      7.34      0.00
    3   -1    1     -3.65      0.00
    3   -1    2     -7.36      0.00
    3   -1    3      6.22      0.00
    3   -1    4      1.89      0.00
    3   -1    5     -3.39      0.00
    3   -1    6     -1.30      0.00
    3   -1    7      2.65      0.00
    3   -1    8      0.66      0.00
    3   -1    9     -1.58      0.00
    3   -1   10     -0.65      0.00
    3   -1   11      0.69      0.00
    3   -1   12      0.43      0.00
    3   -1   13      0.63      0.00
    3   -1   14     -0.67      0.00
    3   -1   15     -0.38      0.00
    3   -1   16     -0.59      0.00
    3   -1   17      1.23      0.00
    3   -1   18     -0.63      0.00
    3   -1   19      0.47      0.00
    3   -1   20     -0.89      0.00
    3   -1   21      1.35      0.00
    3   -1   22     -0.35      0.00
    3   -1   23     -0.69      0.00
   -3    0   20     -0.94      0.00
   -3    0   19     -0.24      0.00
   -3    0   18      0.75      0.00
   -3    0   17      0.70      0.00
   -3    0   16      0.12      0.00
   -3    0   15     -1.01      0.00
   -3    0   14      0.84      0.00
   -3    0   13     -1.31      0.00
   -3    0   12      0.60      0.00
   -3    0   11     -0.17      0.00
   -3    0   10      1.09      0.00
   -3    0    9     -0.62      0.00
   -3    0    8     -1.51      0.00
   -3    0    7      1.78      0.00
   -3    0    6      1.86      0.00
   -3    0    5     -2.15      0.00
   -3    0    4     -4.58      0.00
   -3    0    3      6.57      0.00
   -3    0    2      0.82      0.00
   -3    0    1     -3.03      0.00
    3    0    0     -6.66      0.00
    3    0    1      9.71      0.00
    3    0    2      2.12      0.00
    3    0    3     -6.65      0.00
    3    0    4     -1.84      0.00
    3    0    5      3.91      0.00
    3    0    6      1.60      0.00
    3    0    7     -2.96      0.00
    3    0    8      0.09      0.00
    3    0    9      1.71      0.00
    3    0   10     -0.67      0.00
    3    0   11     -1.05      0.00
    3    0   12      0.65      0.00
    3    0   13      1.07      0.00
    3    0   14     -0.79      0.00
    3    0   15     -0.62      0.00
    3    0   16     -0.05      0.00
    3    0   17      1.05      0.00
    3    0   18     -0.58      0.00
    3    0   19     -0.34      0.00
    3    0   20      0.97      0.00
    3    0   21     -0.16      0.00
    3    0   22     -0.53      0.00
    3    0   23     -0.24      0.00
   -3   -1   20     -0.39      0.00
   -3   -1   19     -0.12      0.00
   -3   -1   18      0.89      0.00
   -3   -1   17     -0.01      0.00
   -3   -1   16      0.14      0.00
   -3   -1   15     -0.86      0.00
   -3   -1   14     -0.25      0.00
   -3   -1   13      0.68      0.00
   -3   -1   12      0.04      0.00
   -3   -1   11      0.02      0.00
   -3   -1   10     -1.37      0.00
   -3   -1    9      1.61      0.00
   -3   -1    8      1.40      0.00
   -3   -1    7     -2.53      0.00
   -3   -1    6     -1.62      0.00
   -3   -1    5      4.92      0.00
   -3   -1    4      0.04      0.00
   -3   -1    3     -7.37      0.00
   -3   -1    2      1.19      0.00
   -3   -1    1      8.42      0.00
    3    1    0      1.41      0.00
    3    1    1    -13.15      0.00
    3    1    2      3.81      0.00
    3    1    3      6.49      0.00
    3    1    4     -0.55      0.00
    3    1    5     -5.37      0.00
    3    1    6      1.05      0.00
    3    1    7      2.97      0.00
    3    1    8     -1.27      0.00
    3    1    9     -1.25      0.00
    3    1   10      0.93      0.00
    3    1   11      0.59      0.00
    3    1   12      0.39      0.00
    3    1   13     -1.34      0.00
    3    1   14     -0.22      0.00
    3    1   15     -0.02      0.00
    3    1   16      1.52      0.00
    3    1   17     -1.03      0.00
    3    1   18      0.28      0.00
    3    1   19     -0.56      0.00
    3    1   20      1.04      0.00
    3    1   21     -0.12      0.00
    3    1   22     -0.93      0.00
    3    1   23     -0.15      0.00
   -3   -2   20      0.14      0.00
   -3   -2   19      0.67      0.00
   -3   -2   18      0.52      0.00
   -3   -2   17     -0.25      0.00
   -3   -2   16     -1.26      0.00
   -3   -2   15      0.63      0.00
   -3   -2   14     -0.59      0.00
   -3   -2   13      0.93      0.00
   -3   -2   12     -0.30      0.00
   -3   -2   11      0.50      0.00
   -3   -2   10      0.02      0.00
   -3   -2    9     -1.04      0.00
   -3   -2    8     -0.18      0.00
   -3   -2    7      1.72      0.00
   -3   -2    6      0.54      0.00
   -3   -2    5     -4.38      0.00
   -3   -2    4      1.84      0.00
   -3   -2    3      3.68      0.00
   -3   -2    2      0.56      0.00
   -3   -2    1     -8.93      0.00
    3    2    0      3.99      0.00
    3    2    1      7.13      0.00
    3    2    2     -4.21      0.00
    3    2    3     -4.97      0.00
    3    2    4      2.58      0.00
    3    2    5      4.13      0.00
    3    2    6     -3.22      0.00
    3    2    7     -1.78      0.00
    3    2    8      2.88      0.00
    3    2    9      0.46      0.00
    3    2   10     -1.54      0.00
    3    2   11     -0.28      0.00
    3    2   12      0.48      0.00
    3    2   13      0.19      0.00
    3    2   14     -0.33      0.00
    3    2   15      0.17      0.00
    3    2   16      0.13      0.00
    3    2   17     -0.08      0.00
    3    2   18     -0.48      0.00
    3    2   19      1.16      0.00
    3    2   20     -0.23      0.00
    3    2   21     -0.89      0.00
    3    2   22     -0.25      0.00
    3    2   23      0.52      0.00
   -3   -3   20     -0.11      0.00
   -3   -3   19      0.27      0.00
   -3   -3   18     -0.35      0.00
   -3   -3   17     -0.02      0.00
   -3   -3   16     -0.34      0.00
   -3   -3   15      0.04      0.00
   -3   -3   14      0.70      0.00
   -3   -3   13     -0.23      0.00
   -3   -3   12      0.25      0.00
   -3   -3   11     -1.30      0.00
   -3   -3   10      0.87      0.00
   -3   -3    9      1.30      0.00
   -3   -3    8     -1.10      0.00
   -3   -3    7     -2.01      0.00
   -3   -3    6      1.89      0.00
   -3   -3    5      3.00      0.00
   -3   -3    4     -4.55      0.00
   -3   -3    3     -2.33      0.00
   -3   -3    2      5.06      0.00
   -3   -3    1      5.84      0.00
    3    3    0    -10.44      0.00
    3    3    1     -2.21      0.00
    3    3    2      7.29      0.00
    3    3    3      3.54      0.00
    3    3    4     -6.24      0.00
    3    3    5     -3.00      0.00
    3    3    6      4.64      0.00
    3    3    7      1.12      0.00
    3    3    8     -1.89      0.00
    3    3    9     -0.38      0.00
    3    3   10      0.78      0.00
    3    3   11      0.39      0.00
    3    3   12     -1.09      0.00
    3    3   13     -0.38      0.00
    3    3   14      0.33      0.00
    3    3   15      1.29      0.00
    3    3   16     -0.64      0.00
    3    3   17     -0.02      0.00
    3    3   18     -0.25      0.00
    3    3   19      0.37      0.00
    3    3   20     -0.26      0.00
    3    3   21     -0.61      0.00
    3    3   22      0.18      0.00
    3    3   23      0.59      0.00
   -3   -4   20     -0.02      0.00
   -3   -4   19      0.36      0.00
   -3   -4   18     -0.20      0.00
   -3   -4   17     -0.64      0.00
   -3   -4   16      0.26      0.00
   -3   -4   15     -0.08      0.00
   -3   -4   14      0.84      0.00
   -3   -4   13     -0.38      0.00
   -3   -4   12      0.02      0.00
   -3   -4   11     -0.11      0.00
   -3   -4   10     -0.33      0.00
   -3   -4    9     -0.34      0.00
   -3   -4    8      0.72      0.00
   -3   -4    7      1.23      0.00
   -3   -4    6     -1.53      0.00
   -3   -4    5     -2.12      0.00
   -3   -4    4      3.03      0.00
   -3   -4    3      2.69      0.00
   -3   -4    2     -5.27      0.00
   -3   -4    1     -2.20      0.00
    3    4    0      7.23      0.00
    3    4    1      0.49      0.00
    3    4    2     -6.18      0.00
    3    4    3     -0.72      0.00
    3    4    4      5.02      0.00
    3    4    5      0.08      0.00
    3    4    6     -3.78      0.00
    3    4    7      2.01      0.00
    3    4    8      1.20      0.00
    3    4    9     -0.78      0.00
    3    4   10     -1.43      0.00
    3    4   11      0.16      0.00
    3    4   12      0.71      0.00
    3    4   13      0.38      0.00
    3    4   14      0.02      0.00
    3    4   15     -0.38      0.00
    3    4   16      0.14      0.00
    3    4   17     -0.24      0.00
    3    4   18      0.49      0.00
    3    4   19     -0.25      0.00
    3    4   20     -0.67      0.00
    3    4   21     -0.04      0.00
    3    4   22      0.65      0.00
    3    4   23      0.60      0.00
   -3   -5   20     -0.17      0.00
   -3   -5   19     -0.19      0.00
   -3   -5   18      0.22      0.00
   -3   -5   17     -0.15      0.00
   -3   -5   16      0.36      0.00
   -3   -5   15      0.24      0.00
   -3   -5   14     -0.45      0.00
   -3   -5   13      0.18      0.00
   -3   -5   12     -1.09      0.00
   -3   -5   11      1.06      0.00
   -3   -5   10      0.67      0.00
   -3   -5    9     -0.07      0.00
   -3   -5    8     -1.56      0.00
   -3   -5    7     -0.35      0.00
   -3   -5    6      2.40      0.00
   -3   -5    5     -0.27      0.00
   -3   -5    4     -3.00      0.00
   -3   -5    3      1.07      0.00
   -3   -5    2      4.97      0.00
   -3   -5    1     -2.84      0.00
    3    5    0     -5.82      0.00
    3    5    1      3.34      0.00
    3    5    2      5.37      0.00
    3    5    3     -2.31      0.00
    3    5    4     -5.27      0.00
    3    5    5      2.48      0.00
    3    5    6      3.24      0.00
    3    5    7     -1.29      0.00
    3    5    8     -1.61      0.00
    3    5    9      0.31      0.00
    3    5   10      0.85      0.00
    3    5   11     -0.58      0.00
    3    5   12     -0.49      0.00
    3    5   13      0.22      0.00
    3    5   14      1.11      0.00
    3    5   15      0.09      0.00
    3    5   16     -0.37      0.00
    3    5   17     -0.86      0.00
    3    5   18      0.07      0.00
    3    5   19     -0.10      0.00
    3    5   20      0.23      0.00
    3    5   21      0.44      0.00
    3    5   22      0.48      0.00
    3    5   23     -0.42      0.00
   -3   -6   20      0.67      0.00
   -3   -6   19      0.11      0.00
   -3   -6   18     -0.27      0.00
   -3   -6   17     -0.42      0.00
   -3   -6   16      0.13      0.00
   -3   -6   15      0.76      0.00
   -3   -6   14     -0.42      0.00
   -3   -6   13     -0.21      0.00
   -3   -6   12      0.31      0.00
   -3   -6   11     -0.42      0.00
   -3   -6   10      0.35      0.00
   -3   -6    9     -0.37      0.00
   -3   -6    8      0.68      0.00
   -3   -6    7      0.09      0.00
   -3   -6    6     -1.96      0.00
   -3   -6    5      1.10      0.00
   -3   -6    4      2.33      0.00
   -3   -6    3     -1.07      0.00
   -3   -6    2     -3.81      0.00
   -3   -6    1      2.67      0.00
    3    6    0      3.49      0.00
    3    6    1     -3.72      0.00
    3    6    2     -2.35      0.00
    3    6    3      2.60      0.00
    3    6    4      3.11      0.00
    3    6    5     -3.51      0.00
    3    6    6     -0.08      0.00
    3    6    7      0.85      0.00
    3    6    8      0.93      0.00
    3    6    9     -1.70      0.00
    3    6   10     -0.40      0.00
    3    6   11      0.58      0.00
    3    6   12      1.19      0.00
    3    6   13      0.09      0.00
    3    6   14     -0.57      0.00
    3    6   15     -0.38      0.00
    3    6   16     -0.32      0.00
    3    6   17      0.11      0.00
    3    6   18      0.26      0.00
    3    6   19      0.03      0.00
    3    6   20     -0.14      0.00
    3    6   21      0.49      0.00
    3    6   22      0.28      0.00
   -3   -7   20      0.13      0.00
   -3   -7   19     -0.07      0.00
   -3   -7   18     -0.60      0.00
   -3   -7   17      0.66      0.00
   -3   -7   16      0.17      0.00
   -3   -7   15     -0.45      0.00
   -3   -7   14      0.04      0.00
   -3   -7   13     -0.52      0.00
   -3   -7   12      0.98      0.00
   -3   -7   11      0.36      0.00
   -3   -7   10     -0.43      0.00
   -3   -7    9     -0.92      0.00
   -3   -7    8     -0.87      0.00
   -3   -7    7      1.58      0.00
   -3   -7    6      1.63      0.00
   -3   -7    5     -1.50      0.00
   -3   -7    4     -1.36      0.00
   -3   -7    3      1.16      0.00
   -3   -7    2      1.77      0.00
   -3   -7    1     -3.44      0.00
    3    7    0     -0.38      0.00
    3    7    1      3.52      0.00
    3    7    2      1.04      0.00
    3    7    3     -3.74      0.00
    3    7    4     -0.84      0.00
    3    7    5      3.02      0.00
    3    7    6      0.21      0.00
    3    7    7     -1.40      0.00
    3    7    8     -0.70      0.00
    3    7    9      0.97      0.00
    3    7   10      0.00      0.00
    3    7   11     -0.18      0.00
    3    7   12     -0.03      0.00
    3    7   13      0.67      0.00
    3    7   14      0.28      0.00
    3    7   15     -0.61      0.00
    3    7   16     -1.22      0.00
    3    7   17      0.37      0.00
    3    7   18      0.45      0.00
    3    7   19      0.68      0.00
    3    7   20      0.00      0.00
    3    7   21      0.27      0.00
    3    7   22     -0.78      0.00
   -3   -8   19     -0.52      0.00
   -3   -8   18     -0.76      0.00
   -3   -8   17      0.44      0.00
   -3   -8   16      1.09      0.00
   -3   -8   15     -0.32      0.00
   -3   -8   14     -0.69      0.00
   -3   -8   13      0.68      0.00
   -3   -8   12     -0.59      0.00
   -3   -8   11      0.15      0.00
   -3   -8   10     -0.61      0.00
   -3   -8    9      0.75      0.00
   -3   -8    8      0.57      0.00
   -3   -8    7     -0.72      0.00
   -3   -8    6     -0.10      0.00
   -3   -8    5      0.53      0.00
   -3   -8    4      0.32      0.00
   -3   -8    3     -1.90      0.00
   -3   -8    2     -0.03      0.00
   -3   -8    1      2.93      0.00
    3    8    0     -0.68      0.00
    3    8    1     -2.24      0.00
    3    8    2     -0.18      0.00
    3    8    3      3.07      0.00
    3    8    4     -0.91      0.00
    3    8    5     -1.28      0.00
    3    8    6     -0.37      0.00
    3    8    7      1.58      0.00
    3    8    8     -0.63      0.00
    3    8    9     -0.79      0.00
    3    8   10      0.24      0.00
    3    8   11      1.45      0.00
    3    8   12      0.02      0.00
    3    8   13     -0.84      0.00
    3    8   14     -0.78      0.00
    3    8   15     -0.22      0.00
    3    8   16      0.36      0.00
    3    8   17      1.05      0.00
    3    8   18      0.23      0.00
    3    8   19     -0.88      0.00
    3    8   20      0.12      0.00
    3    8   21      0.21      0.00
    3    8   22     -0.34      0.00
   -3   -9   19     -0.99      0.00
   -3   -9   18      0.94      0.00
   -3   -9   17      0.98      0.00
   -3   -9   16     -0.37      0.00
   -3   -9   15     -0.58      0.00
   -3   -9   14     -0.08      0.00
   -3   -9   13      0.28      0.00
   -3   -9   12      0.37      0.00
   -3   -9   11     -0.72      0.00
   -3   -9   10      0.05      0.00
   -3   -9    9     -0.45      0.00
   -3   -9    8      1.14      0.00
   -3   -9    7      0.97      0.00
   -3   -9    6     -0.77      0.00
   -3   -9    5     -1.72      0.00
   -3   -9    4     -0.55      0.00
   -3   -9    3      2.48      0.00
   -3   -9    2      0.04      0.00
   -3   -9    1     -1.30      0.00
    3    9    0      0.00      0.00
    3    9    1      1.45      0.00
    3    9    2     -0.80      0.00
    3    9    3     -1.23      0.00
    3    9    4      0.84      0.00
    3    9    5      0.80      0.00
    3    9    6     -0.49      0.00
    3    9    7     -0.70      0.00
    3    9    8      0.36      0.00
    3    9    9      0.58      0.00
    3    9   10     -0.18      0.00
    3    9   11     -0.19      0.00
    3    9   12     -0.02      0.00
    3    9   13      0.32      0.00
    3    9   14     -0.50      0.00
    3    9   15     -0.56      0.00
    3    9   16      0.63      0.00
    3    9   17      0.34      0.00
    3    9   18      0.33      0.00
    3    9   19     -0.46      0.00
    3    9   20      0.38      0.00
    3    9   21     -0.77      0.00
    3    9   22     -0.36      0.00
   -3  -10   19     -0.41      0.00
   -3  -10   18      0.81      0.00
   -3  -10   17      1.21      0.00
   -3  -10   16     -0.27      0.00
   -3  -10   15     -1.38      0.00
   -3  -10   14      0.18      0.00
   -3  -10   13      0.12      0.00
   -3  -10   12     -0.13      0.00
   -3  -10   11      0.06      0.00
   -3  -10   10      0.78      0.00
   -3  -10    9      0.68      0.00
   -3  -10    8     -1.01      0.00
   -3  -10    6     -0.01      0.00
   -3  -10    5      0.81      0.00
   -3  -10    4      0.09      0.00
   -3  -10    3     -0.32      0.00
   -3  -10    2      0.68      0.00
   -3  -10    1     -0.01      0.00
    3   10    0     -0.96      0.00
    3   10    1     -0.70      0.00
    3   10    2      1.68      0.00
    3   10    3      0.42      0.00
    3   10    4     -1.05      0.00
    3   10    5     -1.11      0.00
    3   10    6      1.24      0.00
    3   10    7      0.55      0.00
    3   10    8     -0.67      0.00
    3   10    9     -0.46      0.00
    3   10   10      1.35      0.00
    3   10   11     -0.33      0.00
    3   10   12     -0.86      0.00
    3   10   13     -0.50      0.00
    3   10   14      0.62      0.00
    3   10   15      0.12      0.00
    3   10   16      0.94      0.00
    3   10   17     -0.01      0.00
    3   10   18     -1.21      0.00
    3   10   19     -0.18      0.00
    3   10   20      0.63      0.00
    3   10   21      0.15      0.00
    3   10   22     -0.63      0.00
   -3  -11   19      0.76      0.00
   -3  -11   18      1.73      0.00
   -3  -11   17     -0.33      0.00
   -3  -11   16     -1.32      0.00
   -3  -11   15     -0.30      0.00
   -3  -11   14      0.09      0.00
   -3  -11   13      0.65      0.00
   -3  -11   12      0.00      0.00
   -3  -11   11      0.35      0.00
   -3  -11   10     -0.22      0.00
   -3  -11    9     -0.25      0.00
   -3  -11    8      0.24      0.00
   -3  -11    7     -0.32      0.00
   -3  -11    6     -0.50      0.00
   -3  -11    5     -0.19      0.00
   -3  -11    4      1.31      0.00
   -3  -11    3      0.56      0.00
   -3  -11    2     -0.82      0.00
   -3  -11    1     -1.25      0.00
    3   11    0      0.84      0.00
    3   11    1      0.71      0.00
    3   11    2     -0.48      0.00
    3   11    3     -0.60      0.00
    3   11    4      0.37      0.00
    3   11    5      0.43      0.00
    3   11    6      0.02      0.00
    3   11    7     -0.60      0.00
    3   11    8      0.69      0.00
    3   11    9     -0.37      0.00
    3   11   10     -0.19      0.00
    3   11   11     -0.17      0.00
    3   11   12      0.63      0.00
    3   11   13     -0.36      0.00
    3   11   14     -0.17      0.00
    3   11   15      0.63      0.00
    3   11   16     -0.18      0.00
    3   11   17     -0.29      0.00
    3   11   18     -0.31      0.00
    3   11   19      1.03      0.00
    3   11   20     -0.93      0.00
    3   11   21      0.04      0.00
   -3  -12   19      0.80      0.00
   -3  -12   18      0.78      0.00
   -3  -12   17     -0.29      0.00
   -3  -12   16     -1.61      0.00
   -3  -12   15     -0.33      0.00
   -3  -12   14      1.09      0.00
   -3  -12   13      0.33      0.00
   -3  -12   12      0.38      0.00
   -3  -12   11     -0.13      0.00
   -3  -12   10      0.02      0.00
   -3  -12    9     -0.94      0.00
   -3  -12    8     -0.86      0.00
   -3  -12    7      0.94      0.00
   -3  -12    6      0.91      0.00
   -3  -12    5      0.37      0.00
   -3  -12    4     -0.86      0.00
   -3  -12    3     -0.33      0.00
   -3  -12    2     -0.18      0.00
   -3  -12    1      0.55      0.00
    3   12    0     -0.33      0.00
    3   12    1      0.40      0.00
    3   12    2      0.03      0.00
    3   12    3     -0.24      0.00
    3   12    4     -0.38      0.00
    3   12    5      0.29      0.00
    3   12    6      0.70      0.00
    3   12    7     -0.43      0.00
    3   12    8     -0.96      0.00
    3   12    9      1.34      0.00
    3   12   10     -0.26      0.00
    3   12   11     -0.70      0.00
    3   12   12     -0.35      0.00
    3   12   13      1.38      0.00
    3   12   14     -0.31      0.00
    3   12   15     -0.17      0.00
    3   12   16      0.01      0.00
    3   12   17     -0.30      0.00
    3   12   18     -0.41      0.00
    3   12   19      0.53      0.00
    3   12   20      0.82      0.00
    3   12   21     -1.25      0.00
   -3  -13   19      1.66      0.00
   -3  -13   18     -0.18      0.00
   -3  -13   17     -1.28      0.00
   -3  -13   16     -0.67      0.00
   -3  -13   15      0.50      0.00
   -3  -13   14      0.74      0.00
   -3  -13   13      0.70      0.00
   -3  -13   12     -0.43      0.00
   -3  -13   11     -0.30      0.00
   -3  -13   10     -1.13      0.00
   -3  -13    9      0.49      0.00
   -3  -13    8      0.62      0.00
   -3  -13    7      0.14      0.00
   -3  -13    6     -0.11      0.00
   -3  -13    5     -0.28      0.00
   -3  -13    4      0.28      0.00
   -3  -13    3     -0.14      0.00
   -3  -13    2     -0.23      0.00
   -3  -13    1     -0.14      0.00
    3   13    0      0.65      0.00
    3   13    1     -0.49      0.00
    3   13    2      0.04      0.00
    3   13    3      0.05      0.00
    3   13    4      0.43      0.00
    3   13    5      0.20      0.00
    3   13    6     -1.26      0.00
    3   13    7      0.82      0.00
    3   13    8     -0.16      0.00
    3   13    9     -0.06      0.00
    3   13   10     -0.16      0.00
    3   13   11      0.83      0.00
    3   13   12     -0.44      0.00
    3   13   13     -0.51      0.00
    3   13   14      0.47      0.00
    3   13   15      0.32      0.00
    3   13   16     -0.80      0.00
    3   13   17     -0.23      0.00
    3   13   18      1.56      0.00
    3   13   19     -0.96      0.00
    3   13   20     -0.12      0.00
   -3  -14   18     -0.21      0.00
   -3  -14   17     -1.15      0.00
   -3  -14   16     -0.24      0.00
   -3  -14   15      1.17      0.00
   -3  -14   14      0.70      0.00
   -3  -14   13     -0.21      0.00
   -3  -14   12     -0.69      0.00
   -3  -14   11     -0.58      0.00
   -3  -14   10      0.30      0.00
   -3  -14    9     -0.29      0.00
   -3  -14    8      1.05      0.00
   -3  -14    7      0.19      0.00
   -3  -14    6     -0.30      0.00
   -3  -14    5     -0.60      0.00
   -3  -14    4     -0.06      0.00
   -3  -14    3      0.04      0.00
   -3  -14    2      0.46      0.00
   -3  -14    1     -0.05      0.00
    3   14    0     -0.25      0.00
    3   14    1      0.16      0.00
    3   14    2     -0.06      0.00
    3   14    4     -0.88      0.00
    3   14    5      0.39      0.00
    3   14    6      0.28      0.00
    3   14    7     -0.83      0.00
    3   14    8      0.98      0.00
    3   14    9     -0.08      0.00
    3   14   10     -0.41      0.00
    3   14   11     -0.72      0.00
    3   14   12      1.39      0.00
    3   14   13      0.02      0.00
    3   14   14     -0.93      0.00
    3   14   15     -0.26      0.00
    3   14   16      1.09      0.00
    3   14   17     -0.54      0.00
    3   14   18     -0.32      0.00
    3   14   19      1.12      0.00
    3   14   20     -1.12      0.00
   -3  -15   18     -0.55      0.00
   -3  -15   17     -0.68      0.00
   -3  -15   16      0.62      0.00
   -3  -15   15      0.12      0.00
   -3  -15   14      0.74      0.00
   -3  -15   13     -0.72      0.00
   -3  -15   12     -0.12      0.00
   -3  -15   11     -0.68      0.00
   -3  -15   10      0.53      0.00
   -3  -15    9      0.80      0.00
   -3  -15    8     -0.30      0.00
   -3  -15    7     -0.17      0.00
   -3  -15    6     -0.55      0.00
   -3  -15    5      0.38      0.00
   -3  -15    4      0.27      0.00
   -3  -15    3      0.04      0.00
   -3  -15    2     -0.58      0.00
   -3  -15    1      0.20      0.00
    3   15    0     -0.01      0.00
    3   15    1      0.56      0.00
    3   15    2     -0.05      0.00
    3   15    3     -0.64      0.00
    3   15    4      0.51      0.00
    3   15    6      0.92      0.00
    3   15    7     -0.15      0.00
    3   15    8     -0.03      0.00
    3   15    9     -0.28      0.00
    3   15   10      0.63      0.00
    3   15   11     -0.30      0.00
    3   15   12     -0.60      0.00
    3   15   13      0.04      0.00
    3   15   14      1.32      0.00
    3   15   15     -0.93      0.00
    3   15   16     -0.75      0.00
    3   15   17      1.40      0.00
    3   15   18     -0.33      0.00
    3   15   20      0.01      0.00
   -3  -16   17     -0.02      0.00
   -3  -16   16      0.37      0.00
   -3  -16   15      0.71      0.00
   -3  -16   14     -0.70      0.00
   -3  -16   13     -0.17      0.00
   -3  -16   12     -0.52      0.00
   -3  -16   11      0.92      0.00
   -3  -16   10     -0.21      0.00
   -3  -16    9      0.18      0.00
   -3  -16    8     -0.06      0.00
   -3  -16    7     -0.54      0.00
   -3  -16    6      0.48      0.00
   -3  -16    5      0.00      0.00
   -3  -16    4     -0.09      0.00
   -3  -16    3     -0.46      0.00
   -3  -16    2      0.42      0.00
   -3  -16    1      0.25      0.00
    3   16    2      0.17      0.00
    3   16    3     -0.52      0.00
    3   16    4      0.14      0.00
    3   16    5      1.09      0.00
    3   16    6     -0.92      0.00
    3   16    7      0.28      0.00
    3   16    8     -0.28      0.00
    3   16    9      0.32      0.00
    3   16   10     -0.82      0.00
    3   16   11      0.90      0.00
    3   16   12      0.42      0.00
    3   16   13     -0.68      0.00
    3   16   14     -1.16      0.00
    3   16   15      1.83      0.00
    3   16   16     -0.22      0.00
   -3  -17   14      0.08      0.00
   -3  -17   13      0.23      0.00
   -3  -17   12     -0.37      0.00
   -3  -17   11     -0.20      0.00
   -3  -17   10      0.36      0.00
   -3  -17    9     -0.27      0.00
   -3  -17    8      0.09      0.00
   -3  -17    7      0.29      0.00
   -3  -17    6     -0.23      0.00
   -3  -17    5      0.24      0.00
   -3  -17    4     -0.58      0.00
   -3  -17    3      0.31      0.00
    3   17    5      0.09      0.00
    3   17    6     -0.41      0.00
    3   17    7     -0.11      0.00
    3   17    8      0.33      0.00
    3   17    9      0.09      0.00
    3   17   10      0.02      0.00
    3   17   11     -0.40      0.00
    3   17   12     -0.39      0.00
    3   17   13      1.27      0.00
    3   17   14     -0.31      0.00
    3   17   15     -1.12      0.00
    3   17   16      0.82      0.00
   -3  -18   13     -0.49      0.00
   -3  -18   12      0.66      0.00
   -3  -18   11     -0.34      0.00
   -3  -18   10     -0.25      0.00
   -3  -18    9      0.26      0.00
   -3  -18    8     -0.18      0.00
   -3  -18    7      0.52      0.00
   -3  -18    6     -0.11      0.00
   -3  -18    5     -0.37      0.00
    3   18    7     -0.20      0.00
    3   18    8      0.68      0.00
    3   18    9     -0.35      0.00
    3   18   10      0.18      0.00
    3   18   11      0.21      0.00
    3   18   12     -0.20      0.00
    3   18   13     -1.40      0.00
    3   18   14      1.59      0.00
    3   18   15      0.44      0.00
    3   18   16     -0.82      0.00
    3   18   17     -0.34      0.00
   -3  -19   10      0.31      0.00
   -3  -19    9      0.20      0.00
   -3  -19    8      0.55      0.00
    3   19    8     -0.44      0.00
    3   19    9     -0.01      0.00
    3   19   10     -0.30      0.00
    3   19   11     -0.33      0.00
    3   19   12      0.53      0.00
    3   19   13      0.53      0.00
   -4   17    9     -0.02      0.00
   -4   17    8     -0.88      0.00
   -4   16    8     -0.40      0.00
   -4   16    6      0.38      0.00
    4  -16   13     -0.02      0.00
   -4   15   13     -1.15      0.00
   -4   15   12      0.66      0.00
   -4   15   11      0.34      0.00
   -4   15   10      0.20      0.00
   -4   15    9     -1.17      0.00
   -4   15    8      0.25      0.00
   -4   15    7     -0.04      0.00
   -4   15    6      1.10      0.00
   -4   15    5     -0.32      0.00
   -4   15    4     -0.22      0.00
    4  -15   12      0.41      0.00
    4  -15   13     -0.09      0.00
    4  -15   14      0.23      0.00
    4  -15   15     -0.22      0.00
    4  -15   16      0.52      0.00
   -4   14   14     -0.42      0.00
   -4   14   13      0.24      0.00
   -4   14   12     -0.34      0.00
   -4   14   11      0.90      0.00
   -4   14   10     -0.78      0.00
   -4   14    9     -0.10      0.00
   -4   14    8     -0.23      0.00
   -4   14    7      0.82      0.00
   -4   14    6     -0.47      0.00
   -4   14    5      0.78      0.00
   -4   14    3      0.04      0.00
    4  -14    9     -0.68      0.00
    4  -14   10      0.39      0.00
    4  -14   11     -0.57      0.00
    4  -14   12     -0.01      0.00
    4  -14   13      0.45      0.00
    4  -14   14      0.44      0.00
    4  -14   15     -0.54      0.00
    4  -14   16     -0.39      0.00
    4  -14   17      0.37      0.00
    4  -14   18      0.09      0.00
   -4   13   15      0.84      0.00
   -4   13   14     -1.05      0.00
   -4   13   13     -0.24      0.00
   -4   13   12      0.76      0.00
   -4   13   11      0.39      0.00
   -4   13   10     -0.86      0.00
   -4   13    9     -0.23      0.00
   -4   13    8      0.00      0.00
   -4   13    7      0.85      0.00
   -4   13    6      0.42      0.00
   -4   13    5     -0.82      0.00
   -4   13    4     -0.66      0.00
   -4   13    3     -0.14      0.00
   -4   13    2      1.49      0.00
   -4   13    1     -0.25      0.00
    4  -13    7     -0.94      0.00
    4  -13    8      0.43      0.00
    4  -13    9      0.54      0.00
    4  -13   10     -0.93      0.00
    4  -13   11      0.09      0.00
    4  -13   12      0.20      0.00
    4  -13   13      0.76      0.00
    4  -13   14     -0.63      0.00
    4  -13   15      0.21      0.00
    4  -13   16     -0.72      0.00
    4  -13   17      0.13      0.00
    4  -13   18      0.21      0.00
    4  -13   19      0.84      0.00
   -4   12   17     -0.21      0.00
   -4   12   16      0.58      0.00
   -4   12   15     -0.66      0.00
   -4   12   14      0.48      0.00
   -4   12   13     -0.16      0.00
   -4   12   12      0.74      0.00
   -4   12   11     -1.13      0.00
   -4   12   10      0.15      0.00
   -4   12    9     -0.11      0.00
   -4   12    8      1.02      0.00
   -4   12    7     -0.90      0.00
   -4   12    6      0.60      0.00
   -4   12    5     -0.32      0.00
   -4   12    4     -0.20      0.00
   -4   12    3     -0.17      0.00
   -4   12    2      0.13      0.00
   -4   12    1      0.84      0.00
   -4   12    0     -0.44      0.00
    4  -12    1     -0.48      0.00
    4  -12    2      0.30      0.00
    4  -12    6      0.13      0.00
    4  -12    7      0.55      0.00
    4  -12    8     -0.49      0.00
    4  -12    9     -0.13      0.00
    4  -12   10     -0.14      0.00
    4  -12   11     -0.01      0.00
    4  -12   12      0.52      0.00
    4  -12   13      0.20      0.00
    4  -12   14     -0.19      0.00
    4  -12   15     -1.03      0.00
    4  -12   16      0.58      0.00
    4  -12   17      0.21      0.00
    4  -12   18      0.46      0.00
    4  -12   19     -0.36      0.00
   -4   11   18     -0.52      0.00
   -4   11   17      0.41      0.00
   -4   11   16      0.91      0.00
   -4   11   15     -0.28      0.00
   -4   11   14     -0.97      0.00
   -4   11   13      0.56      0.00
   -4   11   12      0.11      0.00
   -4   11   11      0.10      0.00
   -4   11   10     -0.32      0.00
   -4   11    9     -0.05      0.00
   -4   11    8     -0.22      0.00
   -4   11    7      1.21      0.00
   -4   11    6     -0.61      0.00
   -4   11    5     -0.63      0.00
   -4   11    4     -0.60      0.00
   -4   11    3      1.79      0.00
   -4   11    2     -0.13      0.00
   -4   11    1     -1.23      0.00
   -4   11    0      0.45      0.00
    4  -11    1      0.54      0.00
    4  -11    2     -0.61      0.00
    4  -11    3     -0.39      0.00
    4  -11    4      0.76      0.00
    4  -11    5      0.67      0.00
    4  -11    6     -1.15      0.00
    4  -11    7     -0.30      0.00
    4  -11    8      0.94      0.00
    4  -11    9     -0.09      0.00
    4  -11   10     -0.63      0.00
    4  -11   11      0.06      0.00
    4  -11   12      0.98      0.00
    4  -11   13     -0.28      0.00
    4  -11   14     -0.59      0.00
    4  -11   15     -0.66      0.00
    4  -11   16      0.43      0.00
    4  -11   17      1.14      0.00
    4  -11   18      0.32      0.00
    4  -11   19     -0.92      0.00
    4  -11   20     -0.91      0.00
    4  -11   21      0.13      0.00
    4  -11   22      0.89      0.00
   -4   10   18      0.14      0.00
   -4   10   17      0.57      0.00
   -4   10   16     -0.72      0.00
   -4   10   15      0.21      0.00
   -4   10   14      0.24      0.00
   -4   10   13      0.35      0.00
   -4   10   12     -1.07      0.00
   -4   10   11      0.11      0.00
   -4   10   10      0.36      0.00
   -4   10    9      0.76      0.00
   -4   10    8     -0.82      0.00
   -4   10    7     -0.03      0.00
   -4   10    6      0.21      0.00
   -4   10    5      0.04      0.00
   -4   10    4     -0.01      0.00
   -4   10    3     -0.88      0.00
   -4   10    2      1.41      0.00
   -4   10    1     -0.18      0.00
   -4   10    0     -0.47      0.00
    4  -10    1     -0.63      0.00
    4  -10    2      0.84      0.00
    4  -10    3      0.23      0.00
    4  -10    4     -0.55      0.00
    4  -10    5     -0.19      0.00
    4  -10    6      0.62      0.00
    4  -10    7      0.11      0.00
    4  -10    8     -0.61      0.00
    4  -10    9      0.00      0.00
    4  -10   10      0.22      0.00
    4  -10   11      0.25      0.00
    4  -10   12     -0.11      0.00
    4  -10   13     -0.13      0.00
    4  -10   14     -0.62      0.00
    4  -10   15      0.58      0.00
    4  -10   16      0.46      0.00
    4  -10   17      0.17      0.00
    4  -10   18     -0.77      0.00
    4  -10   19     -0.15      0.00
    4  -10   20     -0.03      0.00
    4  -10   21      0.40      0.00
    4  -10   22      0.08      0.00
   -4    9   18      0.36      0.00
   -4    9   17      0.53      0.00
   -4    9   16      0.10      0.00
   -4    9   15     -0.98      0.00
   -4    9   14      0.09      0.00
   -4    9   13     -0.24      0.00
   -4    9   12      0.95      0.00
   -4    9   11      0.15      0.00
   -4    9   10     -0.43      0.00
   -4    9    9     -1.26      0.00
   -4    9    8      1.35      0.00
   -4    9    7      0.51      0.00
   -4    9    6     -0.60      0.00
   -4    9    5     -1.38      0.00
   -4    9    4      1.67      0.00
   -4    9    3      0.71      0.00
   -4    9    2     -1.81      0.00
   -4    9    1     -0.01      0.00
   -4    9    0      1.02      0.00
    4   -9    1      0.57      0.00
    4   -9    2     -1.76      0.00
    4   -9    3      0.61      0.00
    4   -9    4      0.78      0.00
    4   -9    5     -0.18      0.00
    4   -9    6     -1.14      0.00
    4   -9    7      0.69      0.00
    4   -9    8      0.86      0.00
    4   -9    9     -0.70      0.00
    4   -9   10     -0.68      0.00
    4   -9   11      0.51      0.00
    4   -9   12      0.50      0.00
    4   -9   13     -0.34      0.00
    4   -9   14     -0.75      0.00
    4   -9   15      0.58      0.00
    4   -9   16      0.94      0.00
    4   -9   17     -0.04      0.00
    4   -9   18     -1.41      0.00
    4   -9   19     -0.49      0.00
    4   -9   20      0.89      0.00
    4   -9   21      0.82      0.00
    4   -9   22     -0.11      0.00
   -4    8   18      0.34      0.00
   -4    8   17     -0.83      0.00
   -4    8   16     -0.24      0.00
   -4    8   15      0.47      0.00
   -4    8   14      0.39      0.00
   -4    8   13     -0.53      0.00
   -4    8   12     -0.26      0.00
   -4    8   11      0.23      0.00
   -4    8   10      0.47      0.00
   -4    8    9     -0.17      0.00
   -4    8    8     -0.25      0.00
   -4    8    7     -0.31      0.00
   -4    8    6      0.44      0.00
   -4    8    5      0.63      0.00
   -4    8    4     -1.41      0.00
   -4    8    3      0.61      0.00
   -4    8    2      0.47      0.00
   -4    8    1      0.20      0.00
   -4    8    0     -1.43      0.00
    4   -8    1      0.86      0.00
    4   -8    2      0.63      0.00
    4   -8    3     -0.85      0.00
    4   -8    4     -0.29      0.00
    4   -8    5      0.60      0.00
    4   -8    6      0.87      0.00
    4   -8    7     -1.20      0.00
    4   -8    8     -0.10      0.00
    4   -8    9      0.22      0.00
    4   -8   10      0.27      0.00
    4   -8   11     -0.29      0.00
    4   -8   12      0.01      0.00
    4   -8   13      0.23      0.00
    4   -8   14      0.45      0.00
    4   -8   15     -0.20      0.00
    4   -8   16     -0.47      0.00
    4   -8   17     -0.81      0.00
    4   -8   18      0.92      0.00
    4   -8   19      0.30      0.00
    4   -8   20      0.17      0.00
    4   -8   22      0.31      0.00
   -4    7   19      0.08      0.00
   -4    7   18     -0.10      0.00
   -4    7   17     -0.10      0.00
   -4    7   16     -0.39      0.00
   -4    7   15      0.24      0.00
   -4    7   14     -0.38      0.00
   -4    7   13      0.82      0.00
   -4    7   12      0.39      0.00
   -4    7   11     -0.51      0.00
   -4    7   10     -1.51      0.00
   -4    7    9      0.98      0.00
   -4    7    8      1.13      0.00
   -4    7    7     -0.09      0.00
   -4    7    6     -1.84      0.00
   -4    7    5      1.03      0.00
   -4    7    4      1.26      0.00
   -4    7    3     -1.59      0.00
   -4    7    2     -0.93      0.00
   -4    7    1      1.37      0.00
   -4    7    0      2.07      0.00
    4   -7    1     -2.74      0.00
    4   -7    2     -0.61      0.00
    4   -7    3      1.05      0.00
    4   -7    4      1.53      0.00
    4   -7    5     -1.45      0.00
    4   -7    6     -0.61      0.00
    4   -7    7      1.14      0.00
    4   -7    8     -0.14      0.00
    4   -7    9     -0.71      0.00
    4   -7   10     -0.35      0.00
    4   -7   11      1.13      0.00
    4   -7   12      0.52      0.00
    4   -7   13     -0.90      0.00
    4   -7   14     -0.15      0.00
    4   -7   15     -0.01      0.00
    4   -7   16      0.44      0.00
    4   -7   17     -0.81      0.00
    4   -7   18      0.19      0.00
    4   -7   19      0.72      0.00
    4   -7   20      0.08      0.00
    4   -7   21     -0.10      0.00
    4   -7   22     -0.52      0.00
   -4    6   19     -0.02      0.00
   -4    6   18     -0.76      0.00
   -4    6   17     -0.12      0.00
   -4    6   16      0.55      0.00
   -4    6   15      0.46      0.00
   -4    6   14     -0.13      0.00
   -4    6   13     -0.62      0.00
   -4    6   12     -0.32      0.00
   -4    6   11      0.48      0.00
   -4    6   10      0.67      0.00
   -4    6    9     -0.17      0.00
   -4    6    8     -1.18      0.00
   -4    6    7      0.57      0.00
   -4    6    6      1.42      0.00
   -4    6    5     -1.42      0.00
   -4    6    4     -1.01      0.00
   -4    6    3      1.25      0.00
   -4    6    2      1.53      0.00
   -4    6    1     -2.01      0.00
   -4    6    0     -0.53      0.00
    4   -6    1      1.44      0.00
    4   -6    2     -0.15      0.00
    4   -6    3     -0.49      0.00
    4   -6    4     -0.03      0.00
    4   -6    5      1.17      0.00
    4   -6    6     -1.35      0.00
    4   -6    7     -0.20      0.00
    4   -6    8      0.38      0.00
    4   -6    9      0.56      0.00
    4   -6   10     -0.30      0.00
    4   -6   11     -0.07      0.00
    4   -6   12      0.36      0.00
    4   -6   13      0.27      0.00
    4   -6   14     -0.91      0.00
    4   -6   15     -0.47      0.00
    4   -6   16     -0.38      0.00
    4   -6   17      2.16      0.00
    4   -6   18     -0.22      0.00
    4   -6   19     -0.24      0.00
    4   -6   20     -1.50      0.00
    4   -6   21      0.78      0.00
    4   -6   22      0.52      0.00
   -4    5   19     -0.37      0.00
   -4    5   18      0.05      0.00
   -4    5   17      0.07      0.00
   -4    5   16      0.55      0.00
   -4    5   15     -0.50      0.00
   -4    5   14      0.11      0.00
   -4    5   13      0.10      0.00
   -4    5   12      0.22      0.00
   -4    5   11     -1.15      0.00
   -4    5   10      0.46      0.00
   -4    5    9      0.73      0.00
   -4    5    8      0.82      0.00
   -4    5    7     -1.67      0.00
   -4    5    6     -0.14      0.00
   -4    5    5      1.07      0.00
   -4    5    4     -0.22      0.00
   -4    5    3     -1.50      0.00
   -4    5    2      0.89      0.00
   -4    5    1      2.87      0.00
   -4    5    0     -2.34      0.00
    4   -5    1     -2.12      0.00
    4   -5    2      1.29      0.00
    4   -5    3      2.61      0.00
    4   -5    4     -1.40      0.00
    4   -5    5     -2.04      0.00
    4   -5    6      1.45      0.00
    4   -5    7      0.58      0.00
    4   -5    8     -0.23      0.00
    4   -5    9     -1.10      0.00
    4   -5   10      1.04      0.00
    4   -5   11      0.64      0.00
    4   -5   12     -0.49      0.00
    4   -5   13     -0.98      0.00
    4   -5   14     -0.42      0.00
    4   -5   15      1.10      0.00
    4   -5   16      0.25      0.00
    4   -5   17      0.10      0.00
    4   -5   18     -0.01      0.00
    4   -5   19     -0.78      0.00
    4   -5   20      0.52      0.00
    4   -5   21     -0.44      0.00
    4   -5   22      0.32      0.00
   -4    4   19     -0.06      0.00
   -4    4   18      0.17      0.00
   -4    4   17      0.42      0.00
   -4    4   16     -0.16      0.00
   -4    4   15      0.04      0.00
   -4    4   14     -0.54      0.00
   -4    4   13     -0.29      0.00
   -4    4   12      0.21      0.00
   -4    4   11      1.34      0.00
   -4    4   10     -0.35      0.00
   -4    4    9     -1.24      0.00
   -4    4    8      0.05      0.00
   -4    4    7      1.86      0.00
   -4    4    6     -1.23      0.00
   -4    4    5     -2.04      0.00
   -4    4    4      1.73      0.00
   -4    4    3      3.00      0.00
   -4    4    2     -2.46      0.00
   -4    4    1     -2.83      0.00
   -4    4    0      2.50      0.00
    4   -4    1      1.95      0.00
    4   -4    2     -1.59      0.00
    4   -4    3     -1.83      0.00
    4   -4    4      1.61      0.00
    4   -4    5      0.37      0.00
    4   -4    6     -0.80      0.00
    4   -4    7      0.33      0.00
    4   -4    8      0.43      0.00
    4   -4    9     -0.19      0.00
    4   -4   10     -0.48      0.00
    4   -4   11      0.31      0.00
    4   -4   12      0.21      0.00
    4   -4   13     -0.68      0.00
    4   -4   14     -0.22      0.00
    4   -4   15     -0.04      0.00
    4   -4   16      2.28      0.00
    4   -4   17     -1.04      0.00
    4   -4   18     -0.42      0.00
    4   -4   19     -1.38      0.00
    4   -4   20      1.02      0.00
    4   -4   21      0.33      0.00
    4   -4   22      0.12      0.00
    4   -4   23     -0.24      0.00
   -4    3   19      0.46      0.00
   -4    3   18      0.07      0.00
   -4    3   17      0.05      0.00
   -4    3   16     -0.37      0.00
   -4    3   15     -0.17      0.00
   -4    3   14     -0.06      0.00
   -4    3   13      0.81      0.00
   -4    3   12     -0.54      0.00
   -4    3   11     -0.25      0.00
   -4    3   10      0.24      0.00
   -4    3    9      1.24      0.00
   -4    3    8     -0.90      0.00
   -4    3    7     -1.66      0.00
   -4    3    6      0.85      0.00
   -4    3    5      1.69      0.00
   -4    3    4     -1.36      0.00
   -4    3    3     -1.04      0.00
   -4    3    2      3.12      0.00
   -4    3    1     -0.37      0.00
   -4    3    0     -3.44      0.00
    4   -3    1      0.02      0.00
    4   -3    2      3.57      0.00
    4   -3    3     -0.29      0.00
    4   -3    4     -2.94      0.00
    4   -3    5      1.32      0.00
    4   -3    6      1.39      0.00
    4   -3    7     -0.70      0.00
    4   -3    8     -1.41      0.00
    4   -3    9      0.83      0.00
    4   -3   10      0.66      0.00
    4   -3   11      0.11      0.00
    4   -3   12     -1.20      0.00
    4   -3   13     -0.43      0.00
    4   -3   14      1.13      0.00
    4   -3   15      0.90      0.00
    4   -3   16     -0.50      0.00
    4   -3   17     -0.43      0.00
    4   -3   18     -1.10      0.00
    4   -3   19      1.13      0.00
    4   -3   20     -0.34      0.00
    4   -3   21      0.50      0.00
    4   -3   22     -0.65      0.00
    4   -3   23      0.90      0.00
   -4    2   19      0.03      0.00
   -4    2   18     -0.05      0.00
   -4    2   17     -0.86      0.00
   -4    2   16      0.29      0.00
   -4    2   15      0.06      0.00
   -4    2   14      0.29      0.00
   -4    2   13     -0.54      0.00
   -4    2   12      1.31      0.00
   -4    2   11     -0.51      0.00
   -4    2   10     -0.55      0.00
   -4    2    9     -0.78      0.00
   -4    2    8      1.51      0.00
   -4    2    7     -0.20      0.00
   -4    2    6     -2.01      0.00
   -4    2    5      1.14      0.00
   -4    2    4      3.46      0.00
   -4    2    3     -1.41      0.00
   -4    2    2     -5.16      0.00
   -4    2    1      2.17      0.00
   -4    2    0      4.32      0.00
    4   -2    1     -1.23      0.00
    4   -2    2     -4.67      0.00
    4   -2    3      1.99      0.00
    4   -2    4      3.33      0.00
    4   -2    5     -1.74      0.00
    4   -2    6     -1.39      0.00
    4   -2    7      0.58      0.00
    4   -2    8      0.67      0.00
    4   -2    9     -0.65      0.00
    4   -2   10      0.08      0.00
    4   -2   11      0.26      0.00
    4   -2   12     -0.14      0.00
    4   -2   13     -0.16      0.00
    4   -2   14     -0.01      0.00
    4   -2   15      1.49      0.00
    4   -2   16     -1.29      0.00
    4   -2   17     -0.34      0.00
    4   -2   18     -0.56      0.00
    4   -2   19      1.08      0.00
    4   -2   20     -0.22      0.00
    4   -2   21      0.17      0.00
    4   -2   22      0.46      0.00
   -4    1   19     -0.05      0.00
   -4    1   18     -0.79      0.00
   -4    1   17      0.13      0.00
   -4    1   16      0.20      0.00
   -4    1   15      0.16      0.00
   -4    1   14      0.42      0.00
   -4    1   13     -0.09      0.00
   -4    1   12     -0.85      0.00
   -4    1   11      0.24      0.00
   -4    1   10      0.80      0.00
   -4    1    9      0.18      0.00
   -4    1    8     -2.43      0.00
   -4    1    7      0.60      0.00
   -4    1    6      2.98      0.00
   -4    1    5     -0.69      0.00
   -4    1    4     -3.18      0.00
   -4    1    3      2.16      0.00
   -4    1    2      2.46      0.00
   -4    1    1     -3.73      0.00
   -4    1    0     -2.51      0.00
    4   -1    1      4.22      0.00
    4   -1    2      3.01      0.00
    4   -1    3     -4.20      0.00
    4   -1    4     -1.06      0.00
    4   -1    5      2.33      0.00
    4   -1    6     -0.09      0.00
    4   -1    7     -1.59      0.00
    4   -1    8      0.49      0.00
    4   -1    9      1.05      0.00
    4   -1   10      0.33      0.00
    4   -1   11     -1.38      0.00
    4   -1   12     -0.28      0.00
    4   -1   13      0.77      0.00
    4   -1   14      1.18      0.00
    4   -1   15     -1.06      0.00
    4   -1   16     -0.37      0.00
    4   -1   17     -0.81      0.00
    4   -1   18      1.45      0.00
    4   -1   19     -0.49      0.00
    4   -1   20      0.59      0.00
    4   -1   21     -0.74      0.00
    4   -1   22      0.77      0.00
    4   -1   23     -0.43      0.00
   -4    0   19     -0.62      0.00
   -4    0   18     -0.67      0.00
   -4    0   17      0.51      0.00
   -4    0   16      0.67      0.00
   -4    0   15      0.45      0.00
   -4    0   14     -1.09      0.00
   -4    0   13      0.58      0.00
   -4    0   12     -0.37      0.00
   -4    0   11      0.23      0.00
   -4    0   10     -1.00      0.00
   -4    0    9      0.48      0.00
   -4    0    8      1.25      0.00
   -4    0    7     -1.09      0.00
   -4    0    6     -0.47      0.00
   -4    0    5      2.02      0.00
   -4    0    4      1.09      0.00
   -4    0    3     -5.21      0.00
   -4    0    2     -0.54      0.00
   -4    0    1      5.11      0.00
    4    0    0      2.43      0.00
    4    0    1     -6.42      0.00
    4    0    2     -0.62      0.00
    4    0    3      5.14      0.00
    4    0    4     -0.60      0.00
    4    0    5     -3.39      0.00
    4    0    6      0.47      0.00
    4    0    7      2.21      0.00
    4    0    8     -0.55      0.00
    4    0    9     -0.93      0.00
    4    0   10      0.22      0.00
    4    0   11      0.58      0.00
    4    0   12     -0.12      0.00
    4    0   13     -0.15      0.00
    4    0   14      0.30      0.00
    4    0   15     -0.76      0.00
    4    0   16     -0.03      0.00
    4    0   17      0.24      0.00
    4    0   18      0.75      0.00
    4    0   19     -0.61      0.00
    4    0   20     -0.30      0.00
    4    0   21      0.97      0.00
    4    0   22     -0.18      0.00
    4    0   23     -0.94      0.00
   -4   -1   19     -0.79      0.00
   -4   -1   18      0.46      0.00
   -4   -1   17      0.62      0.00
   -4   -1   16      0.14      0.00
   -4   -1   15     -0.35      0.00
   -4   -1   14     -0.16      0.00
   -4   -1   13     -0.75      0.00
   -4   -1   12      0.62      0.00
   -4   -1   11      0.17      0.00
   -4   -1   10      0.84      0.00
   -4   -1    9     -1.95      0.00
   -4   -1    8      0.04      0.00
   -4   -1    7      2.68      0.00
   -4   -1    6     -0.03      0.00
   -4   -1    5     -3.36      0.00
   -4   -1    4     -0.08      0.00
   -4   -1    3      4.22      0.00
   -4   -1    2     -1.80      0.00
   -4   -1    1     -4.03      0.00
    4    1    0      2.37      0.00
    4    1    1      6.13      0.00
    4    1    2     -4.18      0.00
    4    1    3     -4.57      0.00
    4    1    4      2.53      0.00
    4    1    5      3.01      0.00
    4    1    6     -1.47      0.00
    4    1    7     -1.54      0.00
    4    1    8      1.18      0.00
    4    1    9      1.02      0.00
    4    1   10     -1.26      0.00
    4    1   11     -0.44      0.00
    4    1   12      0.35      0.00
    4    1   13      1.16      0.00
    4    1   14     -1.01      0.00
    4    1   15     -0.10      0.00
    4    1   16     -0.41      0.00
    4    1   17      1.25      0.00
    4    1   18     -0.83      0.00
    4    1   19      0.52      0.00
    4    1   20     -0.34      0.00
    4    1   21      0.37      0.00
    4    1   22     -0.41      0.00
    4    1   23     -0.17      0.00
   -4   -2   19     -0.02      0.00
   -4   -2   18      0.38      0.00
   -4   -2   17      0.65      0.00
   -4   -2   16      0.02      0.00
   -4   -2   15     -1.02      0.00
   -4   -2   14      0.13      0.00
   -4   -2   13     -0.16      0.00
   -4   -2   12      0.76      0.00
   -4   -2   11     -0.62      0.00
   -4   -2   10     -0.33      0.00
   -4   -2    9      1.54      0.00
   -4   -2    8      0.00      0.00
   -4   -2    7     -1.60      0.00
   -4   -2    6     -0.15      0.00
   -4   -2    5      2.49      0.00
   -4   -2    4     -1.79      0.00
   -4   -2    3     -3.31      0.00
   -4   -2    2      3.07      0.00
   -4   -2    1      5.61      0.00
    4    2    0     -4.59      0.00
    4    2    1     -5.23      0.00
    4    2    2      4.21      0.00
    4    2    3      3.24      0.00
    4    2    4     -3.05      0.00
    4    2    5     -1.67      0.00
    4    2    6      2.41      0.00
    4    2    7      0.59      0.00
    4    2    8     -1.73      0.00
    4    2   12     -0.42      0.00
    4    2   13     -0.68      0.00
    4    2   14      0.04      0.00
    4    2   15      0.46      0.00
    4    2   16      0.42      0.00
    4    2   17     -0.03      0.00
    4    2   18     -0.45      0.00
    4    2   19     -0.40      0.00
    4    2   20      0.90      0.00
    4    2   21      0.19      0.00
    4    2   22     -1.09      0.00
    4    2   23     -0.16      0.00
   -4   -3   19      0.25      0.00
   -4   -3   18      0.52      0.00
   -4   -3   17     -0.32      0.00
   -4   -3   16     -0.45      0.00
   -4   -3   15     -0.33      0.00
   -4   -3   14     -0.06      0.00
   -4   -3   13      0.93      0.00
   -4   -3   12     -0.30      0.00
   -4   -3   11      0.81      0.00
   -4   -3   10     -1.38      0.00
   -4   -3    9     -0.13      0.00
   -4   -3    8      1.24      0.00
   -4   -3    7      0.43      0.00
   -4   -3    6     -1.65      0.00
   -4   -3    5     -1.43      0.00
   -4   -3    4      3.03      0.00
   -4   -3    3      1.02      0.00
   -4   -3    2     -3.40      0.00
   -4   -3    1     -0.96      0.00
    4    3    0      5.45      0.00
    4    3    1     -0.72      0.00
    4    3    2     -5.65      0.00
    4    3    3      0.64      0.00
    4    3    4      4.75      0.00
    4    3    5      0.19      0.00
    4    3    6     -3.80      0.00
    4    3    7      0.40      0.00
    4    3    8      2.01      0.00
    4    3    9     -0.27      0.00
    4    3   10     -1.09      0.00
    4    3   11     -0.25      0.00
    4    3   12      1.00      0.00
    4    3   13     -0.16      0.00
    4    3   14      0.07      0.00
    4    3   15     -0.61      0.00
    4    3   16      0.63      0.00
    4    3   17     -0.63      0.00
    4    3   18      0.71      0.00
    4    3   19     -0.03      0.00
    4    3   20      0.05      0.00
    4    3   21     -0.83      0.00
    4    3   22      0.13      0.00
    4    3   23      0.18      0.00
   -4   -4   19     -0.08      0.00
   -4   -4   18      0.22      0.00
   -4   -4   17     -0.16      0.00
   -4   -4   16     -0.50      0.00
   -4   -4   15      0.36      0.00
   -4   -4   14     -0.18      0.00
   -4   -4   13      0.74      0.00
   -4   -4   12     -0.43      0.00
   -4   -4   11     -0.54      0.00
   -4   -4   10      1.05      0.00
   -4   -4    9      0.18      0.00
   -4   -4    8     -1.06      0.00
   -4   -4    7     -1.24      0.00
   -4   -4    6      1.82      0.00
   -4   -4    5      1.53      0.00
   -4   -4    4     -3.26      0.00
   -4   -4    3     -0.32      0.00
   -4   -4    2      4.79      0.00
   -4   -4    1     -0.51      0.00
    4    4    0     -6.11      0.00
    4    4    1      0.79      0.00
    4    4    2      5.70      0.00
    4    4    3     -0.89      0.00
    4    4    4     -3.62      0.00
    4    4    5      0.31      0.00
    4    4    6      2.77      0.00
    4    4    7     -1.37      0.00
    4    4    8     -0.67      0.00
    4    4    9      0.32      0.00
    4    4   10      1.04      0.00
    4    4   11     -0.44      0.00
    4    4   12     -0.97      0.00
    4    4   13      0.06      0.00
    4    4   14      0.72      0.00
    4    4   15      0.34      0.00
    4    4   16     -0.32      0.00
    4    4   17     -0.08      0.00
    4    4   18     -0.24      0.00
    4    4   19      0.24      0.00
    4    4   20      0.06      0.00
    4    4   21     -0.52      0.00
    4    4   22     -0.03      0.00
    4    4   23      0.60      0.00
   -4   -5   19      0.23      0.00
   -4   -5   18     -0.45      0.00
   -4   -5   17     -0.04      0.00
   -4   -5   16     -0.32      0.00
   -4   -5   15      0.51      0.00
   -4   -5   14      0.83      0.00
   -4   -5   13     -0.80      0.00
   -4   -5   12      0.55      0.00
   -4   -5   11     -1.15      0.00
   -4   -5   10      0.25      0.00
   -4   -5    9      0.32      0.00
   -4   -5    8      0.56      0.00
   -4   -5    7     -0.13      0.00
   -4   -5    6     -1.33      0.00
   -4   -5    5      0.47      0.00
   -4   -5    4      2.08      0.00
   -4   -5    3     -1.24      0.00
   -4   -5    2     -2.23      0.00
   -4   -5    1      1.84      0.00
    4    5    0      2.63      0.00
    4    5    1     -3.22      0.00
    4    5    2     -2.08      0.00
    4    5    3      2.90      0.00
    4    5    4      2.49      0.00
    4    5    5     -2.87      0.00
    4    5    6     -1.35      0.00
    4    5    7      1.63      0.00
    4    5    8      0.74      0.00
    4    5    9     -0.66      0.00
    4    5   10     -1.01      0.00
    4    5   11      0.68      0.00
    4    5   12      0.44      0.00
    4    5   13      0.33      0.00
    4    5   14     -1.03      0.00
    4    5   15      0.22      0.00
    4    5   16      0.01      0.00
    4    5   17      0.91      0.00
    4    5   18     -0.59      0.00
    4    5   19     -0.03      0.00
    4    5   20     -0.96      0.00
    4    5   21      0.52      0.00
    4    5   22      0.55      0.00
   -4   -6   19      0.12      0.00
   -4   -6   18      0.03      0.00
   -4   -6   17     -0.16      0.00
   -4   -6   16      0.51      0.00
   -4   -6   15     -0.29      0.00
   -4   -6   14      0.36      0.00
   -4   -6   13     -0.47      0.00
   -4   -6   12     -0.50      0.00
   -4   -6   11      1.13      0.00
   -4   -6   10     -0.28      0.00
   -4   -6    9     -0.06      0.00
   -4   -6    8     -1.28      0.00
   -4   -6    7      0.68      0.00
   -4   -6    6      1.88      0.00
   -4   -6    5     -1.18      0.00
   -4   -6    4     -1.77      0.00
   -4   -6    3      1.78      0.00
   -4   -6    2      1.66      0.00
   -4   -6    1     -2.79      0.00
    4    6    0     -1.99      0.00
    4    6    1      4.05      0.00
    4    6    2      0.95      0.00
    4    6    3     -2.55      0.00
    4    6    4     -1.82      0.00
    4    6    5      3.19      0.00
    4    6    6     -0.38      0.00
    4    6    7     -0.74      0.00
    4    6    8     -0.86      0.00
    4    6    9      1.56      0.00
    4    6   10     -0.01      0.00
    4    6   11     -0.97      0.00
    4    6   12     -0.41      0.00
    4    6   13      0.63      0.00
    4    6   14      0.72      0.00
    4    6   15      0.00      0.00
    4    6   16     -0.21      0.00
    4    6   17     -0.79      0.00
    4    6   18     -0.12      0.00
    4    6   19      0.17      0.00
    4    6   20      0.54      0.00
    4    6   21     -0.08      0.00
    4    6   22      0.34      0.00
   -4   -7   19     -0.02      0.00
   -4   -7   18     -0.13      0.00
   -4   -7   17     -0.58      0.00
   -4   -7   16      0.73      0.00
   -4   -7   15      0.80      0.00
   -4   -7   14     -1.07      0.00
   -4   -7   13      0.11      0.00
   -4   -7   12     -0.48      0.00
   -4   -7   11      0.37      0.00
   -4   -7   10      0.24      0.00
   -4   -7    9      0.16      0.00
   -4   -7    8      0.43      0.00
   -4   -7    7     -1.08      0.00
   -4   -7    6     -0.57      0.00
   -4   -7    5      1.46      0.00
   -4   -7    4      0.60      0.00
   -4   -7    3     -1.47      0.00
   -4   -7    2     -0.98      0.00
   -4   -7    1      2.41      0.00
    4    7    0      0.09      0.00
    4    7    1     -2.55      0.00
    4    7    2      0.12      0.00
    4    7    3      2.71      0.00
    4    7    4     -0.02      0.00
    4    7    5     -2.27      0.00
    4    7    6      0.01      0.00
    4    7    7      0.93      0.00
    4    7    8      0.85      0.00
    4    7    9     -1.30      0.00
    4    7   10     -0.22      0.00
    4    7   11      0.52      0.00
    4    7   12      0.86      0.00
    4    7   13     -0.75      0.00
    4    7   14     -0.24      0.00
    4    7   15      0.13      0.00
    4    7   16      0.55      0.00
    4    7   17     -0.91      0.00
    4    7   18      0.42      0.00
    4    7   19     -0.41      0.00
    4    7   20      0.44      0.00
    4    7   21      0.29      0.00
    4    7   22      0.44      0.00
   -4   -8   19     -0.22      0.00
   -4   -8   18     -0.41      0.00
   -4   -8   17      0.33      0.00
   -4   -8   16      0.10      0.00
   -4   -8   15      0.22      0.00
   -4   -8   14     -0.43      0.00
   -4   -8   13     -0.58      0.00
   -4   -8   12      1.18      0.00
   -4   -8   11     -0.24      0.00
   -4   -8   10     -0.05      0.00
   -4   -8    9     -0.95      0.00
   -4   -8    8      0.18      0.00
   -4   -8    7      1.26      0.00
   -4   -8    6      0.14      0.00
   -4   -8    5     -1.18      0.00
   -4   -8    4     -0.45      0.00
   -4   -8    3      1.16      0.00
   -4   -8    2      0.14      0.00
   -4   -8    1     -1.62      0.00
    4    8    0      0.96      0.00
    4    8    1      1.21      0.00
    4    8    2     -0.50      0.00
    4    8    3     -1.81      0.00
    4    8    4      1.29      0.00
    4    8    5      0.37      0.00
    4    8    6     -0.09      0.00
    4    8    7     -0.98      0.00
    4    8    8      0.77      0.00
    4    8    9      0.27      0.00
    4    8   10     -0.55      0.00
    4    8   11     -0.38      0.00
    4    8   12      0.52      0.00
    4    8   13      0.66      0.00
    4    8   14      0.06      0.00
    4    8   15     -0.63      0.00
    4    8   16     -1.04      0.00
    4    8   17      0.18      0.00
    4    8   18      0.85      0.00
    4    8   19      0.92      0.00
    4    8   20     -0.72      0.00
    4    8   21     -0.04      0.00
    4    8   22     -0.25      0.00
   -4   -9   19     -0.79      0.00
   -4   -9   18     -0.87      0.00
   -4   -9   17      0.86      0.00
   -4   -9   16      1.38      0.00
   -4   -9   15     -0.85      0.00
   -4   -9   14     -0.89      0.00
   -4   -9   13      0.19      0.00
   -4   -9   12      0.31      0.00
   -4   -9   11      0.23      0.00
   -4   -9   10     -0.22      0.00
   -4   -9    9      0.63      0.00
   -4   -9    8     -0.62      0.00
   -4   -9    7     -0.70      0.00
   -4   -9    6      0.69      0.00
   -4   -9    5      0.86      0.00
   -4   -9    4     -0.46      0.00
   -4   -9    3     -1.49      0.00
   -4   -9    2      0.90      0.00
   -4   -9    1      1.32      0.00
    4    9    0     -1.00      0.00
    4    9    1     -1.23      0.00
    4    9    2      1.23      0.00
    4    9    3      1.21      0.00
    4    9    4     -1.10      0.00
    4    9    5     -1.17      0.00
    4    9    6      0.47      0.00
    4    9    7      1.23      0.00
    4    9    8     -0.44      0.00
    4    9    9     -1.07      0.00
    4    9   10      0.72      0.00
    4    9   11      0.97      0.00
    4    9   12     -0.38      0.00
    4    9   13     -0.97      0.00
    4    9   14      0.00      0.00
    4    9   15      0.29      0.00
    4    9   16     -0.22      0.00
    4    9   17      0.98      0.00
    4    9   18     -0.27      0.00
    4    9   19     -0.35      0.00
    4    9   20     -0.27      0.00
    4    9   21      0.83      0.00
    4    9   22     -0.55      0.00
   -4  -10   18      0.33      0.00
   -4  -10   17      1.08      0.00
   -4  -10   16      0.18      0.00
   -4  -10   15     -0.56      0.00
   -4  -10   14     -0.86      0.00
   -4  -10   13      0.48      0.00
   -4  -10   12      0.50      0.00
   -4  -10   11     -0.23      0.00
   -4  -10   10     -0.30      0.00
   -4  -10    9     -0.11      0.00
   -4  -10    8      0.87      0.00
   -4  -10    7      0.19      0.00
   -4  -10    6     -0.87      0.00
   -4  -10    5     -0.69      0.00
   -4  -10    4      0.44      0.00
   -4  -10    3      1.09      0.00
   -4  -10    2     -0.43      0.00
   -4  -10    1     -0.53      0.00
    4   10    0      0.30      0.00
    4   10    1      0.42      0.00
    4   10    2     -0.60      0.00
    4   10    3     -0.15      0.00
    4   10    4      0.25      0.00
    4   10    5      0.41      0.00
    4   10    6     -0.46      0.00
    4   10    7     -0.02      0.00
    4   10    8     -0.02      0.00
    4   10    9      0.46      0.00
    4   10   10     -0.45      0.00
    4   10   11      0.52      0.00
    4   10   12     -0.27      0.00
    4   10   13     -0.03      0.00
    4   10   14     -0.54      0.00
    4   10   15      0.00      0.00
    4   10   16      0.29      0.00
    4   10   17      0.73      0.00
    4   10   18      0.30      0.00
    4   10   19     -0.95      0.00
    4   10   20     -0.15      0.00
    4   10   21     -0.04      0.00
    4   10   22      0.22      0.00
   -4  -11   18      0.85      0.00
   -4  -11   17      1.75      0.00
   -4  -11   16     -0.49      0.00
   -4  -11   15     -1.90      0.00
   -4  -11   14      0.03      0.00
   -4  -11   13      0.70      0.00
   -4  -11   12      0.41      0.00
   -4  -11   11      0.02      0.00
   -4  -11   10      0.21      0.00
   -4  -11    9      0.04      0.00
   -4  -11    8     -1.35      0.00
   -4  -11    7      0.26      0.00
   -4  -11    6      0.82      0.00
   -4  -11    5      0.44      0.00
   -4  -11    4     -0.93      0.00
   -4  -11    3     -0.21      0.00
   -4  -11    2      0.75      0.00
   -4  -11    1      0.06      0.00
    4   11    0     -0.78      0.00
    4   11    1      0.20      0.00
    4   11    2      0.72      0.00
    4   11    3     -0.01      0.00
    4   11    4     -1.12      0.00
    4   11    5      0.13      0.00
    4   11    6      0.48      0.00
    4   11    7      0.74      0.00
    4   11    8     -1.13      0.00
    4   11    9      0.56      0.00
    4   11   10      0.56      0.00
    4   11   11     -0.67      0.00
    4   11   12     -0.95      0.00
    4   11   13      0.42      0.00
    4   11   14      0.68      0.00
    4   11   15     -0.06      0.00
    4   11   16      0.74      0.00
    4   11   17     -0.50      0.00
    4   11   18     -0.82      0.00
    4   11   19     -0.56      0.00
    4   11   20      1.64      0.00
    4   11   21     -0.51      0.00
   -4  -12   17     -0.05      0.00
   -4  -12   16     -0.85      0.00
   -4  -12   15     -1.07      0.00
   -4  -12   14     -0.05      0.00
   -4  -12   13      1.22      0.00
   -4  -12   12      0.25      0.00
   -4  -12   11      0.09      0.00
   -4  -12   10     -0.63      0.00
   -4  -12    9     -0.25      0.00
   -4  -12    8      0.49      0.00
   -4  -12    7     -0.67      0.00
   -4  -12    6      0.31      0.00
   -4  -12    5      0.00      0.00
   -4  -12    4      0.88      0.00
   -4  -12    3     -0.53      0.00
   -4  -12    2     -0.44      0.00
   -4  -12    1     -0.10      0.00
    4   12    0      0.65      0.00
    4   12    1     -0.04      0.00
    4   12    2     -0.56      0.00
    4   12    3     -0.02      0.00
    4   12    4      0.42      0.00
    4   12    5      0.16      0.00
    4   12    6     -0.09      0.00
    4   12    7     -0.57      0.00
    4   12    8      1.02      0.00
    4   12    9     -0.94      0.00
    4   12   10      0.54      0.00
    4   12   11     -0.45      0.00
    4   12   12      0.14      0.00
    4   12   13     -0.30      0.00
    4   12   14      0.70      0.00
    4   12   15      0.18      0.00
    4   12   16     -0.27      0.00
    4   12   17     -0.35      0.00
    4   12   18     -0.11      0.00
    4   12   19      0.21      0.00
    4   12   20     -0.37      0.00
    4   12   21      0.93      0.00
   -4  -13   18      1.24      0.00
   -4  -13   16     -1.83      0.00
   -4  -13   15     -0.37      0.00
   -4  -13   14      1.18      0.00
   -4  -13   13      0.72      0.00
   -4  -13   12      0.37      0.00
   -4  -13   11     -0.87      0.00
   -4  -13   10      0.05      0.00
   -4  -13    9     -1.23      0.00
   -4  -13    8      0.25      0.00
   -4  -13    7      1.29      0.00
   -4  -13    6      0.52      0.00
   -4  -13    5     -0.56      0.00
   -4  -13    4     -1.24      0.00
   -4  -13    3      0.56      0.00
   -4  -13    2      0.34      0.00
   -4  -13    1      0.26      0.00
    4   13    0     -0.41      0.00
    4   13    1      0.13      0.00
    4   13    2     -0.12      0.00
    4   13    3     -0.28      0.00
    4   13    4      0.41      0.00
    4   13    5     -0.31      0.00
    4   13    6      1.00      0.00
    4   13    7     -0.89      0.00
    4   13    8      0.03      0.00
    4   13    9      0.34      0.00
    4   13   10     -0.66      0.00
    4   13   11     -0.29      0.00
    4   13   12      0.79      0.00
    4   13   13      0.79      0.00
    4   13   14     -0.73      0.00
    4   13   15     -0.32      0.00
    4   13   16      0.24      0.00
    4   13   17     -0.26      0.00
    4   13   18     -0.85      0.00
    4   13   19      1.69      0.00
    4   13   20     -0.24      0.00
   -4  -14   17     -0.73      0.00
   -4  -14   16     -0.89      0.00
   -4  -14   15      0.05      0.00
   -4  -14   14      1.18      0.00
   -4  -14   13      0.71      0.00
   -4  -14   12     -0.31      0.00
   -4  -14   11     -0.83      0.00
   -4  -14   10     -1.12      0.00
   -4  -14    9      1.16      0.00
   -4  -14    8      0.15      0.00
   -4  -14    7      0.59      0.00
   -4  -14    6     -0.62      0.00
   -4  -14    5     -0.02      0.00
   -4  -14    4     -0.14      0.00
   -4  -14    3      0.02      0.00
   -4  -14    2      0.13      0.00
   -4  -14    1      0.13      0.00
    4   14    0     -0.03      0.00
    4   14    1     -0.65      0.00
    4   14    2      0.49      0.00
    4   14    3      0.18      0.00
    4   14    4      0.37      0.00
    4   14    5     -0.29      0.00
    4   14    6     -0.85      0.00
    4   14    7      1.01      0.00
    4   14    8     -0.91      0.00
    4   14    9      0.55      0.00
    4   14   10      0.13      0.00
    4   14   11      0.25      0.00
    4   14   12     -0.64      0.00
    4   14   13      0.15      0.00
    4   14   14      0.49      0.00
    4   14   15     -0.27      0.00
    4   14   16     -0.85      0.00
    4   14   17      0.71      0.00
    4   14   18      0.56      0.00
    4   14   19     -1.03      0.00
   -4  -15   16     -0.38      0.00
   -4  -15   15      1.08      0.00
   -4  -15   14      0.46      0.00
   -4  -15   13      0.19      0.00
   -4  -15   12     -1.21      0.00
   -4  -15   11     -0.16      0.00
   -4  -15   10     -0.03      0.00
   -4  -15    9      0.33      0.00
   -4  -15    8      1.05      0.00
   -4  -15    7     -0.32      0.00
   -4  -15    6     -0.39      0.00
   -4  -15    5     -0.94      0.00
   -4  -15    4      0.62      0.00
   -4  -15    3      0.46      0.00
   -4  -15    2      0.08      0.00
   -4  -15    1     -0.52      0.00
    4   15    0      0.01      0.00
    4   15    1      0.09      0.00
    4   15    2      0.03      0.00
    4   15    3      0.62      0.00
    4   15    4     -1.05      0.00
    4   15    5      0.79      0.00
    4   15    6     -0.46      0.00
    4   15    7      0.06      0.00
    4   15    8      0.08      0.00
    4   15    9     -0.15      0.00
    4   15   10     -0.01      0.00
    4   15   11      0.52      0.00
    4   15   12      0.30      0.00
    4   15   13     -0.65      0.00
    4   15   14     -1.18      0.00
    4   15   15      1.29      0.00
    4   15   16      0.67      0.00
    4   15   17     -1.29      0.00
    4   15   18      0.55      0.00
    4   15   19      0.35      0.00
    4   15   20     -0.47      0.00
   -4  -16   15      0.32      0.00
   -4  -16   14      0.74      0.00
   -4  -16   13     -0.60      0.00
   -4  -16   12     -0.36      0.00
   -4  -16   11     -0.78      0.00
   -4  -16   10      1.05      0.00
   -4  -16    9      0.46      0.00
   -4  -16    8     -0.16      0.00
   -4  -16    7     -0.47      0.00
   -4  -16    6     -0.52      0.00
   -4  -16    5      0.78      0.00
   -4  -16    4      0.13      0.00
   -4  -16    3     -0.22      0.00
   -4  -16    2     -0.42      0.00
   -4  -16    1      0.15      0.00
    4   16    0      0.12      0.00
    4   16    1      0.52      0.00
    4   16    2     -0.19      0.00
    4   16    3     -0.28      0.00
    4   16    4     -0.07      0.00
    4   16    5     -0.57      0.00
    4   16    6      1.12      0.00
    4   16    7     -0.78      0.00
    4   16    8      0.51      0.00
    4   16    9      0.03      0.00
    4   16   10      0.37      0.00
    4   16   11     -0.99      0.00
    4   16   12     -0.26      0.00
    4   16   13      0.67      0.00
    4   16   14      0.88      0.00
    4   16   15     -1.46      0.00
    4   16   16      0.49      0.00
    4   16   17      0.60      0.00
    4   16   18     -0.84      0.00
    4   16   19      0.43      0.00
    4   16   20     -0.17      0.00
   -4  -17   13     -0.45      0.00
   -4  -17   12      0.07      0.00
   -4  -17   11      0.56      0.00
   -4  -17   10     -0.05      0.00
   -4  -17    9      0.05      0.00
   -4  -17    8     -0.46      0.00
   -4  -17    7     -0.11      0.00
   -4  -17    6      0.52      0.00
   -4  -17    5     -0.16      0.00
   -4  -17    4      0.21      0.00
   -4  -17    3     -0.71      0.00
   -4  -17    2      0.36      0.00
   -4  -17    1      0.25      0.00
    4   17    0      0.24      0.00
    4   17    1     -0.46      0.00
    4   17    2      0.23      0.00
    4   17    3     -0.83      0.00
    4   17    4      0.68      0.00
    4   17    5      0.22      0.00
    4   17    6      0.08      0.00
    4   17    7     -0.43      0.00
    4   17    8     -0.17      0.00
    4   17    9      0.34      0.00
    4   17   10      0.12      0.00
    4   17   11      0.03      0.00
    4   17   12     -0.08      0.00
    4   17   13     -1.12      0.00
    4   17   14      0.94      0.00
    4   17   15      1.23      0.00
    4   17   16     -1.24      0.00
    4   17   17     -0.54      0.00
    4   17   18      0.58      0.00
   -4  -18   11      0.30      0.00
   -4  -18   10      0.12      0.00
   -4  -18    9     -0.44      0.00
   -4  -18    8      0.27      0.00
   -4  -18    7     -0.09      0.00
   -4  -18    6      0.41      0.00
   -4  -18    5     -0.02      0.00
   -4  -18    3      0.13      0.00
   -4  -18    2      0.07      0.00
   -4  -18    1      0.91      0.00
    4   18    0     -0.41      0.00
    4   18    2     -0.71      0.00
    4   18    3      0.69      0.00
    4   18    4     -0.07      0.00
    4   18    5      0.81      0.00
    4   18    6     -1.07      0.00
    4   18    7      0.42      0.00
    4   18    8     -0.18      0.00
    4   18    9      0.52      0.00
    4   18   10     -0.73      0.00
    4   18   11     -0.10      0.00
    4   18   12      0.22      0.00
    4   18   13      1.37      0.00
    4   18   14     -1.42      0.00
    4   18   15     -0.18      0.00
    4   18   16      0.50      0.00
    4   18   17      0.02      0.00
   -4  -19    7      0.98      0.00
   -4  -19    6     -0.83      0.00
    4   19    6     -0.36      0.00
    4   19    7     -0.45      0.00
    4   19    9     -0.01      0.00
    4   19   10      0.04      0.00
    4   19   11     -0.16      0.00
    4   19   12     -0.49      0.00
    4   19   13     -0.03      0.00
    4   19   14      1.20      0.00
   -5   15   11      0.05      0.00
   -5   15    9      0.36      0.00
   -5   15    8     -0.87      0.00
   -5   15    7     -0.04      0.00
   -5   15    6      0.06      0.00
   -5   15    5      0.86      0.00
   -5   15    4     -0.07      0.00
   -5   15    3     -0.70      0.00
    5  -15   10      0.39      0.00
   -5   14   12      0.63      0.00
   -5   14   11      0.10      0.00
   -5   14   10      0.19      0.00
   -5   14    9     -0.87      0.00
   -5   14    8      0.23      0.00
   -5   14    7      0.10      0.00
   -5   14    6      0.76      0.00
   -5   14    5     -0.47      0.00
   -5   14    4     -0.02      0.00
   -5   14    2      0.56      0.00
   -5   14    1      0.63      0.00
    5  -14    7     -0.13      0.00
    5  -14    8     -0.08      0.00
    5  -14    9      0.92      0.00
    5  -14   10     -0.16      0.00
    5  -14   11     -0.39      0.00
    5  -14   12     -0.42      0.00
    5  -14   13      0.15      0.00
    5  -14   14      0.54      0.00
    5  -14   15      0.35      0.00
    5  -14   16     -0.78      0.00
   -5   13   15      0.18      0.00
   -5   13   14      0.93      0.00
   -5   13   13     -0.48      0.00
   -5   13   12     -0.78      0.00
   -5   13   11      0.50      0.00
   -5   13   10      0.58      0.00
   -5   13    9     -0.63      0.00
   -5   13    8     -0.26      0.00
   -5   13    7      0.09      0.00
   -5   13    6      0.67      0.00
   -5   13    5      0.44      0.00
   -5   13    4     -1.11      0.00
   -5   13    3     -0.34      0.00
   -5   13    2      0.20      0.00
   -5   13    1      1.24      0.00
   -5   13    0     -0.56      0.00
    5  -13    1     -0.70      0.00
    5  -13    2      0.13      0.00
    5  -13    3      1.11      0.00
    5  -13    6     -0.31      0.00
    5  -13    7      0.52      0.00
    5  -13    8      0.08      0.00
    5  -13    9      0.28      0.00
    5  -13   10      0.27      0.00
    5  -13   11     -1.35      0.00
    5  -13   13      1.10      0.00
    5  -13   14      0.86      0.00
    5  -13   15     -1.24      0.00
    5  -13   16     -0.24      0.00
    5  -13   17      0.31      0.00
   -5   12   16      0.41      0.00
   -5   12   15      1.02      0.00
   -5   12   14     -1.52      0.00
   -5   12   13      0.02      0.00
   -5   12   12      0.68      0.00
   -5   12   11      0.64      0.00
   -5   12   10     -1.29      0.00
   -5   12    9      0.05      0.00
   -5   12    8      0.17      0.00
   -5   12    7      1.13      0.00
   -5   12    6     -0.75      0.00
   -5   12    5     -0.37      0.00
   -5   12    4     -0.34      0.00
   -5   12    3      0.53      0.00
   -5   12    2      0.73      0.00
   -5   12    1     -0.77      0.00
   -5   12    0     -0.13      0.00
    5  -12    1      0.29      0.00
    5  -12    2      0.00      0.00
    5  -12    3     -0.18      0.00
    5  -12    4      0.16      0.00
    5  -12    6     -0.28      0.00
    5  -12    7     -0.34      0.00
    5  -12    8      0.89      0.00
    5  -12    9      0.38      0.00
    5  -12   10     -1.05      0.00
    5  -12   11     -0.48      0.00
    5  -12   12      0.33      0.00
    5  -12   13      1.17      0.00
    5  -12   14     -0.19      0.00
    5  -12   15     -0.65      0.00
    5  -12   16     -0.83      0.00
    5  -12   17      0.86      0.00
    5  -12   18      0.50      0.00
    5  -12   19     -0.11      0.00
   -5   11   17     -0.50      0.00
   -5   11   15      0.25      0.00
   -5   11   14      0.40      0.00
   -5   11   13     -0.94      0.00
   -5   11   12      0.33      0.00
   -5   11   11      0.10      0.00
   -5   11   10      0.04      0.00
   -5   11    9     -0.14      0.00
   -5   11    8      0.08      0.00
   -5   11    7     -0.28      0.00
   -5   11    6      0.81      0.00
   -5   11    5     -0.46      0.00
   -5   11    4     -0.34      0.00
   -5   11    3     -0.50      0.00
   -5   11    2      1.23      0.00
   -5   11    1      0.33      0.00
   -5   11    0     -1.15      0.00
    5  -11    1     -0.20      0.00
    5  -11    2      0.86      0.00
    5  -11    3     -0.05      0.00
    5  -11    4     -0.51      0.00
    5  -11    5     -0.20      0.00
    5  -11    6      0.66      0.00
    5  -11    7      0.01      0.00
    5  -11    8     -0.04      0.00
    5  -11    9      0.08      0.00
    5  -11   10     -0.57      0.00
    5  -11   11     -0.64      0.00
    5  -11   12      0.95      0.00
    5  -11   13      0.94      0.00
    5  -11   14     -0.51      0.00
    5  -11   15     -1.05      0.00
    5  -11   16      0.24      0.00
    5  -11   17      0.19      0.00
    5  -11   18      0.31      0.00
    5  -11   19      0.31      0.00
   -5   10   16      1.08      0.00
   -5   10   15     -1.25      0.00
   -5   10   14     -0.80      0.00
   -5   10   13      1.06      0.00
   -5   10   12      0.88      0.00
   -5   10   11     -1.01      0.00
   -5   10   10     -0.50      0.00
   -5   10    9      0.13      0.00
   -5   10    8      0.93      0.00
   -5   10    7     -0.18      0.00
   -5   10    6     -0.51      0.00
   -5   10    5     -0.30      0.00
   -5   10    4      0.38      0.00
   -5   10    3      1.09      0.00
   -5   10    2     -1.44      0.00
   -5   10    1      0.06      0.00
   -5   10    0      0.55      0.00
    5  -10    1      0.37      0.00
    5  -10    2     -1.06      0.00
    5  -10    3      0.23      0.00
    5  -10    4      0.87      0.00
    5  -10    5     -0.26      0.00
    5  -10    6     -0.90      0.00
    5  -10    7      0.38      0.00
    5  -10    8      1.03      0.00
    5  -10    9     -0.72      0.00
    5  -10   10     -0.87      0.00
    5  -10   11      0.32      0.00
    5  -10   12      1.22      0.00
    5  -10   13     -0.05      0.00
    5  -10   14     -1.01      0.00
    5  -10   15     -0.73      0.00
    5  -10   16      0.77      0.00
    5  -10   17      1.21      0.00
    5  -10   18     -0.33      0.00
    5  -10   19     -1.01      0.00
    5  -10   20     -0.19      0.00
    5  -10   21      0.28      0.00
   -5    9   17      0.22      0.00
   -5    9   16     -0.55      0.00
   -5    9   15      0.66      0.00
   -5    9   14     -0.31      0.00
   -5    9   13      0.26      0.00
   -5    9   12     -0.71      0.00
   -5    9   11      0.31      0.00
   -5    9   10      0.31      0.00
   -5    9    9      0.17      0.00
   -5    9    8     -0.91      0.00
   -5    9    7      0.51      0.00
   -5    9    6      0.53      0.00
   -5    9    5     -0.03      0.00
   -5    9    4     -1.31      0.00
   -5    9    3      0.34      0.00
   -5    9    2      1.62      0.00
   -5    9    1     -0.92      0.00
   -5    9    0     -0.79      0.00
    5   -9    1     -0.02      0.00
    5   -9    2      1.58      0.00
    5   -9    3     -0.88      0.00
    5   -9    4     -0.53      0.00
    5   -9    5      0.28      0.00
    5   -9    6      0.64      0.00
    5   -9    7     -0.31      0.00
    5   -9    8     -0.38      0.00
    5   -9    9      0.34      0.00
    5   -9   10     -0.42      0.00
    5   -9   11      0.18      0.00
    5   -9   12      0.40      0.00
    5   -9   13      0.18      0.00
    5   -9   14     -0.62      0.00
    5   -9   15     -0.28      0.00
    5   -9   16      0.37      0.00
    5   -9   17      0.18      0.00
    5   -9   18      0.50      0.00
    5   -9   19     -0.64      0.00
    5   -9   20     -0.45      0.00
    5   -9   21      0.05      0.00
    5   -9   22      0.67      0.00
   -5    8   17      0.62      0.00
   -5    8   16     -0.80      0.00
   -5    8   15     -0.95      0.00
   -5    8   14      0.94      0.00
   -5    8   13      0.72      0.00
   -5    8   12     -0.28      0.00
   -5    8   11     -0.87      0.00
   -5    8   10     -0.13      0.00
   -5    8    9      0.40      0.00
   -5    8    8      0.79      0.00
   -5    8    7      0.06      0.00
   -5    8    6     -1.09      0.00
   -5    8    5     -0.35      0.00
   -5    8    4      1.62      0.00
   -5    8    3     -0.82      0.00
   -5    8    2     -0.65      0.00
   -5    8    1      0.34      0.00
   -5    8    0      1.25      0.00
    5   -8    1     -1.02      0.00
    5   -8    2     -0.71      0.00
    5   -8    3      1.10      0.00
    5   -8    4      0.01      0.00
    5   -8    5     -0.58      0.00
    5   -8    6     -0.55      0.00
    5   -8    7      1.40      0.00
    5   -8    8     -0.08      0.00
    5   -8    9     -0.91      0.00
    5   -8   10     -0.26      0.00
    5   -8   11      0.71      0.00
    5   -8   12      0.55      0.00
    5   -8   13     -0.90      0.00
    5   -8   14     -0.37      0.00
    5   -8   15      0.65      0.00
    5   -8   16      0.89      0.00
    5   -8   17     -0.38      0.00
    5   -8   18     -1.85      0.00
    5   -8   19      0.68      0.00
    5   -8   20      0.79      0.00
    5   -8   21      0.82      0.00
    5   -8   22     -0.97      0.00
   -5    7   17     -0.86      0.00
   -5    7   16      0.39      0.00
   -5    7   15      0.21      0.00
   -5    7   14      0.55      0.00
   -5    7   13     -1.13      0.00
   -5    7   12      0.01      0.00
   -5    7   11      0.47      0.00
   -5    7   10      0.50      0.00
   -5    7    9     -0.62      0.00
   -5    7    8     -0.09      0.00
   -5    7    7      0.40      0.00
   -5    7    6      0.46      0.00
   -5    7    5     -1.17      0.00
   -5    7    4     -0.59      0.00
   -5    7    3      1.81      0.00
   -5    7    2      0.16      0.00
   -5    7    1     -0.97      0.00
   -5    7    0     -1.33      0.00
    5   -7    1      2.51      0.00
    5   -7    2     -0.58      0.00
    5   -7    3     -0.98      0.00
    5   -7    4     -0.36      0.00
    5   -7    5      1.52      0.00
    5   -7    6      0.02      0.00
    5   -7    7     -1.22      0.00
    5   -7    8      0.52      0.00
    5   -7    9      0.04      0.00
    5   -7   10     -0.08      0.00
    5   -7   11     -0.29      0.00
    5   -7   12      0.43      0.00
    5   -7   13      0.68      0.00
    5   -7   14     -0.78      0.00
    5   -7   15      0.09      0.00
    5   -7   16     -0.82      0.00
    5   -7   17      0.77      0.00
    5   -7   18      0.19      0.00
    5   -7   19     -0.19      0.00
    5   -7   20      0.16      0.00
    5   -7   21     -0.39      0.00
    5   -7   22      0.52      0.00
   -5    6   18      0.16      0.00
   -5    6   17     -0.48      0.00
   -5    6   16     -0.46      0.00
   -5    6   15      0.70      0.00
   -5    6   14      0.17      0.00
   -5    6   13      0.27      0.00
   -5    6   12     -0.80      0.00
   -5    6   11     -0.25      0.00
   -5    6   10     -0.10      0.00
   -5    6    9      1.36      0.00
   -5    6    8      0.57      0.00
   -5    6    7     -1.67      0.00
   -5    6    6     -1.14      0.00
   -5    6    5      1.90      0.00
   -5    6    4      0.55      0.00
   -5    6    3     -1.39      0.00
   -5    6    2     -0.43      0.00
   -5    6    1      1.91      0.00
   -5    6    0     -0.04      0.00
    5   -6    1     -2.13      0.00
    5   -6    2      0.66      0.00
    5   -6    3      0.69      0.00
    5   -6    4      0.66      0.00
    5   -6    5     -1.53      0.00
    5   -6    6      0.91      0.00
    5   -6    7      0.15      0.00
    5   -6    8     -0.38      0.00
    5   -6    9     -0.66      0.00
    5   -6   10      0.25      0.00
    5   -6   11      1.06      0.00
    5   -6   12     -0.24      0.00
    5   -6   13     -0.51      0.00
    5   -6   14      0.27      0.00
    5   -6   15     -0.31      0.00
    5   -6   16      0.37      0.00
    5   -6   17     -1.71      0.00
    5   -6   18      1.83      0.00
    5   -6   19      0.34      0.00
    5   -6   20      0.41      0.00
    5   -6   21     -1.55      0.00
    5   -6   22     -0.33      0.00
   -5    5   18     -0.59      0.00
   -5    5   17      0.39      0.00
   -5    5   16      0.08      0.00
   -5    5   15      0.59      0.00
   -5    5   14     -0.80      0.00
   -5    5   13     -0.29      0.00
   -5    5   12      0.15      0.00
   -5    5   11      0.84      0.00
   -5    5   10      0.06      0.00
   -5    5    9     -0.56      0.00
   -5    5    8     -0.64      0.00
   -5    5    7      0.91      0.00
   -5    5    6     -0.03      0.00
   -5    5    5     -1.02      0.00
   -5    5    4      0.49      0.00
   -5    5    3      1.40      0.00
   -5    5    2     -0.34      0.00
   -5    5    1     -2.37      0.00
   -5    5    0      1.57      0.00
    5   -5    1      0.79      0.00
    5   -5    2     -0.82      0.00
    5   -5    3     -0.76      0.00
    5   -5    4      1.25      0.00
    5   -5    5      0.65      0.00
    5   -5    6     -1.93      0.00
    5   -5    7      0.44      0.00
    5   -5    8      0.28      0.00
    5   -5    9      0.61      0.00
    5   -5   10     -0.74      0.00
    5   -5   11      0.19      0.00
    5   -5   12      0.89      0.00
    5   -5   13     -0.66      0.00
    5   -5   14     -0.47      0.00
    5   -5   15     -1.04      0.00
    5   -5   16      0.97      0.00
    5   -5   17      1.51      0.00
    5   -5   18     -0.53      0.00
    5   -5   19     -0.14      0.00
    5   -5   20     -1.64      0.00
    5   -5   21      1.18      0.00
    5   -5   22     -0.07      0.00
   -5    4   18      0.10      0.00
   -5    4   17     -0.30      0.00
   -5    4   16      0.58      0.00
   -5    4   15     -0.48      0.00
   -5    4   14      0.50      0.00
   -5    4   13     -0.46      0.00
   -5    4   12      0.11      0.00
   -5    4   11     -0.70      0.00
   -5    4   10      1.29      0.00
   -5    4    9      0.46      0.00
   -5    4    8     -1.09      0.00
   -5    4    7     -1.51      0.00
   -5    4    6      1.61      0.00
   -5    4    5      1.18      0.00
   -5    4    4     -1.31      0.00
   -5    4    3     -1.11      0.00
   -5    4    2      1.98      0.00
   -5    4    1      0.77      0.00
   -5    4    0     -2.80      0.00
    5   -4    1     -0.20      0.00
    5   -4    2      1.98      0.00
    5   -4    3      1.29      0.00
    5   -4    4     -2.33      0.00
    5   -4    5     -0.38      0.00
    5   -4    6      0.96      0.00
    5   -4    7      0.22      0.00
    5   -4    8     -0.42      0.00
    5   -4    9     -0.27      0.00
    5   -4   10      1.01      0.00
    5   -4   11     -0.10      0.00
    5   -4   12     -0.62      0.00
    5   -4   13     -0.12      0.00
    5   -4   14     -0.62      0.00
    5   -4   15      1.13      0.00
    5   -4   16     -0.86      0.00
    5   -4   17      1.74      0.00
    5   -4   18     -0.64      0.00
    5   -4   19     -0.36      0.00
    5   -4   20     -0.80      0.00
    5   -4   21     -0.07      0.00
    5   -4   22      0.74      0.00
   -5    3   18      0.41      0.00
   -5    3   17     -0.13      0.00
   -5    3   16     -0.21      0.00
   -5    3   15      0.11      0.00
   -5    3   14     -0.18      0.00
   -5    3   13     -0.07      0.00
   -5    3   12      0.45      0.00
   -5    3   11      0.67      0.00
   -5    3   10     -0.84      0.00
   -5    3    9     -1.09      0.00
   -5    3    8      0.87      0.00
   -5    3    7      1.34      0.00
   -5    3    6     -1.41      0.00
   -5    3    5     -1.04      0.00
   -5    3    4      2.14      0.00
   -5    3    3      0.95      0.00
   -5    3    2     -2.98      0.00
   -5    3    1     -0.46      0.00
   -5    3    0      2.53      0.00
    5   -3    1      0.38      0.00
    5   -3    2     -1.76      0.00
    5   -3    3     -0.11      0.00
    5   -3    4      1.26      0.00
    5   -3    5     -1.16      0.00
    5   -3    6      0.13      0.00
    5   -3    7      0.48      0.00
    5   -3    8      0.82      0.00
    5   -3    9     -0.96      0.00
    5   -3   10     -0.32      0.00
    5   -3   11      0.33      0.00
    5   -3   12      0.14      0.00
    5   -3   13     -0.34      0.00
    5   -3   14     -0.59      0.00
    5   -3   15      0.63      0.00
    5   -3   16      1.72      0.00
    5   -3   17     -1.12      0.00
    5   -3   18     -0.36      0.00
    5   -3   19     -1.54      0.00
    5   -3   20      1.34      0.00
    5   -3   21      0.16      0.00
    5   -3   22      0.51      0.00
    5   -3   23     -0.63      0.00
   -5    2   18     -0.59      0.00
   -5    2   17      0.25      0.00
   -5    2   16     -0.52      0.00
   -5    2   15      0.48      0.00
   -5    2   14     -0.06      0.00
   -5    2   13      0.41      0.00
   -5    2   12     -1.06      0.00
   -5    2   11      0.71      0.00
   -5    2   10      0.29      0.00
   -5    2    9      0.11      0.00
   -5    2    8     -1.43      0.00
   -5    2    7      0.43      0.00
   -5    2    6      1.28      0.00
   -5    2    5     -0.39      0.00
   -5    2    4     -1.30      0.00
   -5    2    3      1.14      0.00
   -5    2    2      1.34      0.00
   -5    2    1     -2.16      0.00
   -5    2    0     -1.53      0.00
    5   -2    1      2.63      0.00
    5   -2    2      1.74      0.00
    5   -2    3     -2.62      0.00
    5   -2    4     -1.60      0.00
    5   -2    5      2.26      0.00
    5   -2    6      0.85      0.00
    5   -2    7     -0.94      0.00
    5   -2    8     -0.90      0.00
    5   -2    9      0.84      0.00
    5   -2   10      0.02      0.00
    5   -2   11     -0.25      0.00
    5   -2   12     -0.24      0.00
    5   -2   13     -0.23      0.00
    5   -2   14      1.01      0.00
    5   -2   15     -0.31      0.00
    5   -2   16      0.81      0.00
    5   -2   17     -1.03      0.00
    5   -2   18     -0.68      0.00
    5   -2   19      0.19      0.00
    5   -2   20      0.58      0.00
    5   -2   21      0.10      0.00
    5   -2   22     -0.10      0.00
    5   -2   23      0.63      0.00
   -5    1   18      0.07      0.00
   -5    1   17     -1.08      0.00
   -5    1   16      0.85      0.00
   -5    1   15      0.14      0.00
   -5    1   14      0.08      0.00
   -5    1   13     -0.50      0.00
   -5    1   12      0.87      0.00
   -5    1   11     -0.76      0.00
   -5    1   10     -0.56      0.00
   -5    1    9      0.09      0.00
   -5    1    8      2.02      0.00
   -5    1    7     -1.41      0.00
   -5    1    6     -1.72      0.00
   -5    1    5      2.05      0.00
   -5    1    4      1.98      0.00
   -5    1    3     -2.75      0.00
   -5    1    2     -2.42      0.00
   -5    1    1      3.23      0.00
   -5    1    0      2.21      0.00
    5   -1    1     -2.98      0.00
    5   -1    2     -1.68      0.00
    5   -1    3      2.20      0.00
    5   -1    4      0.94      0.00
    5   -1    5     -1.16      0.00
    5   -1    6     -0.18      0.00
    5   -1    7      0.78      0.00
    5   -1    8     -0.61      0.00
    5   -1    9     -0.49      0.00
    5   -1   10      0.00      0.00
    5   -1   11      0.95      0.00
    5   -1   12     -0.04      0.00
    5   -1   13     -0.41      0.00
    5   -1   14     -0.16      0.00
    5   -1   15      1.20      0.00
    5   -1   16     -1.10      0.00
    5   -1   17     -0.25      0.00
    5   -1   18     -0.52      0.00
    5   -1   19      1.08      0.00
    5   -1   20     -0.12      0.00
    5   -1   21      0.52      0.00
    5   -1   22     -0.38      0.00
    5   -1   23      0.08      0.00
   -5    0   18     -0.42      0.00
   -5    0   17      0.12      0.00
   -5    0   16      0.26      0.00
   -5    0   15      0.28      0.00
   -5    0   14      0.14      0.00
   -5    0   13     -0.80      0.00
   -5    0   12      0.03      0.00
   -5    0   11      0.28      0.00
   -5    0   10      0.80      0.00
   -5    0    9     -0.85      0.00
   -5    0    8     -1.12      0.00
   -5    0    7      1.41      0.00
   -5    0    6      0.88      0.00
   -5    0    5     -1.10      0.00
   -5    0    4     -0.70      0.00
   -5    0    3      1.50      0.00
   -5    0    2     -0.11      0.00
   -5    0    1     -2.73      0.00
    5    0    0      1.24      0.00
    5    0    1      3.09      0.00
    5    0    2     -1.36      0.00
    5    0    3     -2.89      0.00
    5    0    4      1.68      0.00
    5    0    5      1.90      0.00
    5    0    6     -1.43      0.00
    5    0    7     -1.43      0.00
    5    0    8      1.02      0.00
    5    0    9      0.67      0.00
    5    0   10     -0.01      0.00
    5    0   11     -0.68      0.00
    5    0   12      0.01      0.00
    5    0   13      0.58      0.00
    5    0   14     -0.04      0.00
    5    0   15     -0.01      0.00
    5    0   16     -0.66      0.00
    5    0   17     -0.34      0.00
    5    0   18      0.36      0.00
    5    0   19      1.06      0.00
    5    0   20     -0.32      0.00
    5    0   21     -0.55      0.00
    5    0   22      0.39      0.00
    5    0   23      0.04      0.00
   -5   -1   18     -0.91      0.00
   -5   -1   17      0.79      0.00
   -5   -1   16      0.40      0.00
   -5   -1   15      0.12      0.00
   -5   -1   14     -0.86      0.00
   -5   -1   13      0.41      0.00
   -5   -1   12     -0.40      0.00
   -5   -1   11      0.26      0.00
   -5   -1   10     -0.70      0.00
   -5   -1    9      1.75      0.00
   -5   -1    8     -0.61      0.00
   -5   -1    7     -1.49      0.00
   -5   -1    6      1.08      0.00
   -5   -1    5      1.68      0.00
   -5   -1    4     -1.29      0.00
   -5   -1    3     -3.12      0.00
   -5   -1    2      2.09      0.00
   -5   -1    1      3.60      0.00
    5    1    0     -2.44      0.00
    5    1    1     -3.09      0.00
    5    1    2      2.20      0.00
    5    1    3      2.80      0.00
    5    1    4     -2.18      0.00
    5    1    5     -1.77      0.00
    5    1    6      1.33      0.00
    5    1    7      0.80      0.00
    5    1    8     -0.67      0.00
    5    1    9     -0.63      0.00
    5    1   10      1.08      0.00
    5    1   11      0.33      0.00
    5    1   12     -0.42      0.00
    5    1   13     -0.94      0.00
    5    1   14      0.72      0.00
    5    1   15     -0.41      0.00
    5    1   16      0.16      0.00
    5    1   17     -0.03      0.00
    5    1   18      0.80      0.00
    5    1   19     -0.71      0.00
    5    1   20      0.31      0.00
    5    1   21     -0.05      0.00
    5    1   22      0.01      0.00
    5    1   23     -0.78      0.00
   -5   -2   18      0.62      0.00
   -5   -2   17      0.05      0.00
   -5   -2   16      0.29      0.00
   -5   -2   15     -0.31      0.00
   -5   -2   14     -0.41      0.00
   -5   -2   13     -0.02      0.00
   -5   -2   12      0.12      0.00
   -5   -2   11      0.78      0.00
   -5   -2   10     -0.06      0.00
   -5   -2    9     -1.77      0.00
   -5   -2    8      1.15      0.00
   -5   -2    6     -0.60      0.00
   -5   -2    5     -2.13      0.00
   -5   -2    4      0.63      0.00
   -5   -2    3      2.41      0.00
   -5   -2    2     -2.24      0.00
   -5   -2    1     -1.35      0.00
    5    2    0      3.29      0.00
    5    2    1      1.16      0.00
    5    2    2     -3.50      0.00
    5    2    3     -1.06      0.00
    5    2    4      2.78      0.00
    5    2    5      0.21      0.00
    5    2    6     -1.74      0.00
    5    2    7      0.26      0.00
    5    2    8      1.17      0.00
    5    2    9      0.22      0.00
    5    2   10     -1.07      0.00
    5    2   11     -0.26      0.00
    5    2   12      0.45      0.00
    5    2   13      0.33      0.00
    5    2   14     -0.33      0.00
    5    2   15     -0.19      0.00
    5    2   16      0.11      0.00
    5    2   17     -0.08      0.00
    5    2   18      0.75      0.00
    5    2   19     -0.13      0.00
    5    2   20     -0.51      0.00
    5    2   21     -0.33      0.00
    5    2   22      0.53      0.00
    5    2   23     -0.28      0.00
   -5   -3   18      0.21      0.00
   -5   -3   17      0.39      0.00
   -5   -3   16     -0.33      0.00
   -5   -3   15     -0.34      0.00
   -5   -3   14     -0.05      0.00
   -5   -3   13     -0.13      0.00
   -5   -3   12      0.79      0.00
   -5   -3   11     -0.96      0.00
   -5   -3   10      1.20      0.00
   -5   -3    9     -0.05      0.00
   -5   -3    8     -0.86      0.00
   -5   -3    7     -0.13      0.00
   -5   -3    6      0.52      0.00
   -5   -3    5      0.47      0.00
   -5   -3    4     -1.74      0.00
   -5   -3    3      0.02      0.00
   -5   -3    2      3.17      0.00
   -5   -3    1     -0.56      0.00
    5    3    0     -3.29      0.00
    5    3    1      0.29      0.00
    5    3    2      3.52      0.00
    5    3    3     -0.99      0.00
    5    3    4     -2.79      0.00
    5    3    5      0.74      0.00
    5    3    6      2.36      0.00
    5    3    7     -0.64      0.00
    5    3    8     -1.37      0.00
    5    3    9      0.41      0.00
    5    3   10      0.92      0.00
    5    3   11     -0.08      0.00
    5    3   12     -1.47      0.00
    5    3   13      0.34      0.00
    5    3   14      0.48      0.00
    5    3   15      0.74      0.00
    5    3   16     -0.63      0.00
    5    3   17      0.41      0.00
    5    3   18     -0.87      0.00
    5    3   19      0.44      0.00
    5    3   20     -0.07      0.00
    5    3   21      0.41      0.00
    5    3   22     -0.97      0.00
    5    3   23      0.50      0.00
   -5   -4   18     -0.06      0.00
   -5   -4   17     -0.17      0.00
   -5   -4   16     -0.31      0.00
   -5   -4   15     -0.25      0.00
   -5   -4   14      0.68      0.00
   -5   -4   13     -0.17      0.00
   -5   -4   12      0.30      0.00
   -5   -4   11      0.29      0.00
   -5   -4   10     -1.46      0.00
   -5   -4    9      0.72      0.00
   -5   -4    8      0.74      0.00
   -5   -4    7      0.21      0.00
   -5   -4    6     -1.88      0.00
   -5   -4    5     -0.47      0.00
   -5   -4    4      3.01      0.00
   -5   -4    3     -0.28      0.00
   -5   -4    2     -2.82      0.00
   -5   -4    1      1.13      0.00
    5    4    0      2.61      0.00
    5    4    1     -1.58      0.00
    5    4    2     -3.07      0.00
    5    4    3      1.92      0.00
    5    4    4      2.08      0.00
    5    4    5     -0.91      0.00
    5    4    6     -1.51      0.00
    5    4    7      1.16      0.00
    5    4    8      0.48      0.00
    5    4    9     -0.50      0.00
    5    4   10     -1.11      0.00
    5    4   11      0.38      0.00
    5    4   12      0.89      0.00
    5    4   13      0.03      0.00
    5    4   14     -0.20      0.00
    5    4   15     -0.23      0.00
    5    4   16     -0.37      0.00
    5    4   17      0.38      0.00
    5    4   18      0.49      0.00
    5    4   19     -0.15      0.00
    5    4   20     -0.79      0.00
    5    4   21      0.14      0.00
    5    4   22      0.34      0.00
    5    4   23      0.14      0.00
   -5   -5   18      0.11      0.00
   -5   -5   17     -0.64      0.00
   -5   -5   16      0.30      0.00
   -5   -5   15      0.10      0.00
   -5   -5   14     -0.07      0.00
   -5   -5   13      0.72      0.00
   -5   -5   12     -1.10      0.00
   -5   -5   11      0.92      0.00
   -5   -5   10     -0.04      0.00
   -5   -5    9     -0.49      0.00
   -5   -5    8     -0.53      0.00
   -5   -5    7     -0.08      0.00
   -5   -5    6      1.33      0.00
   -5   -5    5     -0.07      0.00
   -5   -5    4     -1.23      0.00
   -5   -5    3      1.05      0.00
   -5   -5    2      0.73      0.00
   -5   -5    1     -1.69      0.00
    5    5    0     -1.24      0.00
    5    5    1      2.53      0.00
    5    5    2      1.05      0.00
    5    5    3     -2.39      0.00
    5    5    4     -1.13      0.00
    5    5    5      2.47      0.00
    5    5    6      0.65      0.00
    5    5    7     -1.49      0.00
    5    5    8     -0.66      0.00
    5    5    9      0.59      0.00
    5    5   10      1.03      0.00
    5    5   11     -1.36      0.00
    5    5   12      0.01      0.00
    5    5   13      0.56      0.00
    5    5   14      1.03      0.00
    5    5   15     -1.28      0.00
    5    5   16      0.16      0.00
    5    5   17     -0.40      0.00
    5    5   18      0.81      0.00
    5    5   19     -0.72      0.00
    5    5   20      0.75      0.00
    5    5   21     -0.83      0.00
    5    5   22      0.44      0.00
   -5   -6   18     -0.43      0.00
   -5   -6   17      0.03      0.00
   -5   -6   16     -0.14      0.00
   -5   -6   15      1.21      0.00
   -5   -6   14     -0.40      0.00
   -5   -6   13     -0.35      0.00
   -5   -6   12      0.16      0.00
   -5   -6   11     -0.88      0.00
   -5   -6   10      0.70      0.00
   -5   -6    9     -0.11      0.00
   -5   -6    8      0.84      0.00
   -5   -6    7     -0.82      0.00
   -5   -6    6     -0.94      0.00
   -5   -6    5      1.40      0.00
   -5   -6    4      1.03      0.00
   -5   -6    3     -1.85      0.00
   -5   -6    2     -0.87      0.00
   -5   -6    1      1.83      0.00
    5    6    0      1.02      0.00
    5    6    1     -2.49      0.00
    5    6    2     -0.30      0.00
    5    6    3      1.69      0.00
    5    6    4      1.00      0.00
    5    6    5     -1.85      0.00
    5    6    6      0.37      0.00
    5    6    7      0.00      0.00
    5    6    8      0.48      0.00
    5    6    9     -1.10      0.00
    5    6   10     -0.04      0.00
    5    6   11      1.23      0.00
    5    6   12      0.32      0.00
    5    6   13     -0.36      0.00
    5    6   14     -1.14      0.00
    5    6   15      0.02      0.00
    5    6   16      0.63      0.00
    5    6   17      0.85      0.00
    5    6   18     -0.54      0.00
    5    6   19     -0.65      0.00
    5    6   20     -0.41      0.00
    5    6   21      0.91      0.00
    5    6   22      0.26      0.00
   -5   -7   18     -0.28      0.00
   -5   -7   17      0.33      0.00
   -5   -7   16      0.24      0.00
   -5   -7   15     -0.08      0.00
   -5   -7   14      0.45      0.00
   -5   -7   13     -1.17      0.00
   -5   -7   12      0.56      0.00
   -5   -7   11      0.26      0.00
   -5   -7   10     -0.31      0.00
   -5   -7    9     -0.30      0.00
   -5   -7    8     -0.11      0.00
   -5   -7    7      1.24      0.00
   -5   -7    6      0.11      0.00
   -5   -7    5     -1.20      0.00
   -5   -7    4     -0.40      0.00
   -5   -7    3      1.01      0.00
   -5   -7    2      0.10      0.00
   -5   -7    1     -1.10      0.00
    5    7    0      0.51      0.00
    5    7    1      1.49      0.00
    5    7    2     -1.05      0.00
    5    7    3     -1.69      0.00
    5    7    4      1.16      0.00
    5    7    5      1.76      0.00
    5    7    6     -0.98      0.00
    5    7    7     -1.21      0.00
    5    7    8     -0.41      0.00
    5    7    9      1.94      0.00
    5    7   10     -0.45      0.00
    5    7   11     -0.61      0.00
    5    7   12      0.00      0.00
    5    7   13      0.83      0.00
    5    7   14     -0.62      0.00
    5    7   15      0.02      0.00
    5    7   16     -0.13      0.00
    5    7   17      0.43      0.00
    5    7   18     -1.04      0.00
    5    7   19      1.09      0.00
    5    7   20     -0.20      0.00
    5    7   21      0.05      0.00
    5    7   22     -0.22      0.00
   -5   -8   18     -0.12      0.00
   -5   -8   17     -0.27      0.00
   -5   -8   16      1.02      0.00
   -5   -8   15     -0.10      0.00
   -5   -8   14     -0.68      0.00
   -5   -8   13     -0.19      0.00
   -5   -8   12     -0.27      0.00
   -5   -8   11      0.71      0.00
   -5   -8   10     -0.05      0.00
   -5   -8    9      0.66      0.00
   -5   -8    8     -0.25      0.00
   -5   -8    7     -1.17      0.00
   -5   -8    6      0.10      0.00
   -5   -8    5      1.18      0.00
   -5   -8    4      0.02      0.00
   -5   -8    3     -1.23      0.00
   -5   -8    2      0.20      0.00
   -5   -8    1      1.37      0.00
    5    8    0     -0.58      0.00
    5    8    1     -1.37      0.00
    5    8    2      0.38      0.00
    5    8    3      1.75      0.00
    5    8    4     -0.40      0.00
    5    8    5     -0.75      0.00
    5    8    6     -0.87      0.00
    5    8    7      0.83      0.00
    5    8    8      0.34      0.00
    5    8    9     -0.54      0.00
    5    8   10      0.47      0.00
    5    8   11      0.28      0.00
    5    8   12      0.02      0.00
    5    8   13     -1.14      0.00
    5    8   14      0.12      0.00
    5    8   15      0.70      0.00
    5    8   16      0.48      0.00
    5    8   17     -0.82      0.00
    5    8   18      0.00      0.00
    5    8   19     -0.27      0.00
    5    8   20      0.78      0.00
    5    8   21     -0.20      0.00
   -5   -9   17     -0.01      0.00
   -5   -9   16      0.13      0.00
   -5   -9   15      0.61      0.00
   -5   -9   14     -0.84      0.00
   -5   -9   13     -0.29      0.00
   -5   -9   12      0.52      0.00
   -5   -9   11      0.28      0.00
   -5   -9   10     -0.27      0.00
   -5   -9    9     -0.23      0.00
   -5   -9    8      0.52      0.00
   -5   -9    7      0.23      0.00
   -5   -9    6     -0.93      0.00
   -5   -9    5     -0.28      0.00
   -5   -9    4      0.65      0.00
   -5   -9    3      0.75      0.00
   -5   -9    2     -0.69      0.00
   -5   -9    1     -0.55      0.00
    5    9    0      0.70      0.00
    5    9    1      0.20      0.00
    5    9    2     -0.85      0.00
    5    9    3      0.09      0.00
    5    9    4      0.99      0.00
    5    9    5     -0.10      0.00
    5    9    6     -0.92      0.00
    5    9    7     -0.43      0.00
    5    9    8      1.05      0.00
    5    9    9      0.50      0.00
    5    9   10     -1.06      0.00
    5    9   11      0.09      0.00
    5    9   12      0.55      0.00
    5    9   13      0.15      0.00
    5    9   14     -0.56      0.00
    5    9   15     -0.21      0.00
    5    9   16      0.03      0.00
    5    9   17     -0.34      0.00
    5    9   18      1.40      0.00
    5    9   19     -0.05      0.00
    5    9   20     -0.74      0.00
    5    9   21     -0.64      0.00
    5    9   22      0.77      0.00
   -5  -10   17      0.59      0.00
   -5  -10   16      0.87      0.00
   -5  -10   15     -0.57      0.00
   -5  -10   14     -0.77      0.00
   -5  -10   13      0.05      0.00
   -5  -10   12      0.49      0.00
   -5  -10   11      0.45      0.00
   -5  -10   10      0.08      0.00
   -5  -10    9     -0.12      0.00
   -5  -10    8     -1.09      0.00
   -5  -10    7     -0.27      0.00
   -5  -10    6      1.32      0.00
   -5  -10    5      0.52      0.00
   -5  -10    4     -0.72      0.00
   -5  -10    3     -0.89      0.00
   -5  -10    2      0.76      0.00
   -5  -10    1      0.38      0.00
    5   10    0     -0.77      0.00
    5   10    1     -0.17      0.00
    5   10    2      0.96      0.00
    5   10    3      0.53      0.00
    5   10    4     -0.95      0.00
    5   10    5     -1.12      0.00
    5   10    6      0.63      0.00
    5   10    7      1.06      0.00
    5   10    8     -0.12      0.00
    5   10    9     -1.00      0.00
    5   10   10      0.72      0.00
    5   10   11      0.22      0.00
    5   10   12     -0.27      0.00
    5   10   13     -0.74      0.00
    5   10   14      0.33      0.00
    5   10   15      0.16      0.00
    5   10   16      0.18      0.00
    5   10   17      0.45      0.00
    5   10   18     -0.40      0.00
    5   10   19     -0.22      0.00
    5   10   20     -0.41      0.00
    5   10   21      0.80      0.00
    5   10   22     -0.26      0.00
   -5  -11   17      0.56      0.00
   -5  -11   16      0.76      0.00
   -5  -11   15     -0.43      0.00
   -5  -11   14     -1.15      0.00
   -5  -11   13      0.16      0.00
   -5  -11   12      1.08      0.00
   -5  -11   11     -0.17      0.00
   -5  -11   10     -0.19      0.00
   -5  -11    9     -0.56      0.00
   -5  -11    8      0.94      0.00
   -5  -11    7     -0.77      0.00
   -5  -11    6     -0.12      0.00
   -5  -11    5      0.25      0.00
   -5  -11    4      0.81      0.00
   -5  -11    3     -0.39      0.00
   -5  -11    2     -0.86      0.00
   -5  -11    1      0.29      0.00
    5   11    0      0.59      0.00
    5   11    1     -0.15      0.00
    5   11    2     -0.14      0.00
    5   11    3     -0.20      0.00
    5   11    4      0.45      0.00
    5   11    5     -0.55      0.00
    5   11    6      0.36      0.00
    5   11    7     -0.42      0.00
    5   11    8      0.68      0.00
    5   11    9     -0.48      0.00
    5   11   10      0.23      0.00
    5   11   11      0.54      0.00
    5   11   12     -0.54      0.00
    5   11   13     -0.88      0.00
    5   11   14      0.12      0.00
    5   11   15      0.86      0.00
    5   11   16      0.09      0.00
    5   11   17      0.61      0.00
    5   11   18     -0.56      0.00
    5   11   19     -0.80      0.00
    5   11   20     -0.62      0.00
    5   11   21      1.40      0.00
   -5  -12   17      1.51      0.00
   -5  -12   15     -1.24      0.00
   -5  -12   14     -0.12      0.00
   -5  -12   13      0.49      0.00
   -5  -12   12      0.80      0.00
   -5  -12   11     -0.14      0.00
   -5  -12   10     -0.25      0.00
   -5  -12    9     -0.45      0.00
   -5  -12    8     -0.90      0.00
   -5  -12    7      1.54      0.00
   -5  -12    6      0.17      0.00
   -5  -12    5      0.11      0.00
   -5  -12    4     -1.42      0.00
   -5  -12    3      0.53      0.00
   -5  -12    2      0.30      0.00
   -5  -12    1     -0.11      0.00
    5   12    0     -0.02      0.00
    5   12    1      0.31      0.00
    5   12    2      0.35      0.00
    5   12    3     -0.75      0.00
    5   12    4     -0.72      0.00
    5   12    5      0.54      0.00
    5   12    6      0.48      0.00
    5   12    7      0.96      0.00
    5   12    8     -1.74      0.00
    5   12    9      0.98      0.00
    5   12   10     -0.35      0.00
    5   12   11      0.07      0.00
    5   12   12     -0.80      0.00
    5   12   13      0.31      0.00
    5   12   14      0.45      0.00
    5   12   15      0.63      0.00
    5   12   16      0.22      0.00
    5   12   17     -0.94      0.00
    5   12   18     -0.92      0.00
    5   12   19      0.21      0.00
    5   12   20      1.53      0.00
   -5  -13   17      0.32      0.00
   -5  -13   15     -1.22      0.00
   -5  -13   14     -0.14      0.00
   -5  -13   13      1.31      0.00
   -5  -13   12      0.18      0.00
   -5  -13   11      0.09      0.00
   -5  -13   10     -1.35      0.00
   -5  -13    9      0.76      0.00
   -5  -13    8     -0.13      0.00
   -5  -13    7     -0.22      0.00
   -5  -13    6      0.34      0.00
   -5  -13    5      0.39      0.00
   -5  -13    4      0.14      0.00
   -5  -13    3     -1.34      0.00
   -5  -13    2      0.44      0.00
   -5  -13    1      0.62      0.00
    5   13    0      0.20      0.00
    5   13    1     -0.38      0.00
    5   13    2     -0.55      0.00
    5   13    3      0.48      0.00
    5   13    4     -0.40      0.00
    5   13    5      0.95      0.00
    5   13    6     -0.75      0.00
    5   13    7      0.19      0.00
    5   13    8      0.22      0.00
    5   13    9     -0.36      0.00
    5   13   10      0.73      0.00
    5   13   11     -1.10      0.00
    5   13   12     -0.41      0.00
    5   13   13      0.64      0.00
    5   13   14      1.38      0.00
    5   13   15     -0.24      0.00
    5   13   16     -1.16      0.00
    5   13   17     -0.38      0.00
    5   13   18      0.51      0.00
    5   13   19     -0.40      0.00
    5   13   20      0.94      0.00
   -5  -14   16     -0.97      0.00
   -5  -14   15     -0.26      0.00
   -5  -14   14      0.60      0.00
   -5  -14   13      0.75      0.00
   -5  -14   12     -0.05      0.00
   -5  -14   11     -0.63      0.00
   -5  -14   10      0.12      0.00
   -5  -14    9     -1.14      0.00
   -5  -14    8      1.25      0.00
   -5  -14    7      0.27      0.00
   -5  -14    6      0.53      0.00
   -5  -14    5     -1.43      0.00
   -5  -14    4     -0.16      0.00
   -5  -14    3      0.62      0.00
   -5  -14    2      0.21      0.00
   -5  -14    1      0.08      0.00
    5   14    0     -0.09      0.00
    5   14    1      0.08      0.00
    5   14    2     -0.79      0.00
    5   14    3     -0.07      0.00
    5   14    4      0.72      0.00
    5   14    5     -0.05      0.00
    5   14    6      1.11      0.00
    5   14    7     -1.54      0.00
    5   14    8      0.45      0.00
    5   14    9     -0.70      0.00
    5   14   10      0.10      0.00
    5   14   11      0.45      0.00
    5   14   12      0.45      0.00
    5   14   13      0.29      0.00
    5   14   14     -0.55      0.00
    5   14   15     -0.24      0.00
    5   14   16     -0.07      0.00
    5   14   17     -0.65      0.00
    5   14   18      0.50      0.00
    5   14   19      1.46      0.00
    5   14   20     -1.18      0.00
   -5  -15   16     -0.64      0.00
   -5  -15   15      0.00      0.00
   -5  -15   14      0.90      0.00
   -5  -15   13      0.20      0.00
   -5  -15   12      0.09      0.00
   -5  -15   11     -1.15      0.00
   -5  -15   10     -0.01      0.00
   -5  -15    9      0.58      0.00
   -5  -15    8      0.02      0.00
   -5  -15    7      0.37      0.00
   -5  -15    6     -0.43      0.00
   -5  -15    5      0.27      0.00
   -5  -15    4     -0.80      0.00
   -5  -15    3      0.34      0.00
   -5  -15    2      0.62      0.00
   -5  -15    1     -0.02      0.00
    5   15    0     -0.57      0.00
    5   15    1     -0.43      0.00
    5   15    2      0.72      0.00
    5   15    3     -0.27      0.00
    5   15    4      0.94      0.00
    5   15    5     -0.78      0.00
    5   15    6     -0.19      0.00
    5   15    7      0.15      0.00
    5   15    8     -0.39      0.00
    5   15    9      0.73      0.00
    5   15   10     -0.40      0.00
    5   15   11     -0.15      0.00
    5   15   12      0.45      0.00
    5   15   13      0.44      0.00
    5   15   14      0.03      0.00
    5   15   15     -1.87      0.00
    5   15   16      0.28      0.00
    5   15   17      1.72      0.00
    5   15   18     -0.42      0.00
    5   15   19     -0.52      0.00
   -5  -16   15      0.42      0.00
   -5  -16   13      0.02      0.00
   -5  -16   12     -0.67      0.00
   -5  -16   11      0.30      0.00
   -5  -16   10     -0.42      0.00
   -5  -16    9      0.57      0.00
   -5  -16    8      0.23      0.00
   -5  -16    7      0.13      0.00
   -5  -16    6     -0.63      0.00
   -5  -16    5     -0.63      0.00
   -5  -16    4      0.86      0.00
   -5  -16    3      0.51      0.00
   -5  -16    2     -0.43      0.00
   -5  -16    1     -0.31      0.00
    5   16    0      0.03      0.00
    5   16    1     -0.20      0.00
    5   16    2      0.17      0.00
    5   16    3      0.72      0.00
    5   16    4     -0.50      0.00
    5   16    5      0.45      0.00
    5   16    6     -0.97      0.00
    5   16    7      0.45      0.00
    5   16    8     -0.71      0.00
    5   16    9      0.48      0.00
    5   16   10      0.85      0.00
    5   16   11      0.36      0.00
    5   16   12     -0.61      0.00
    5   16   13     -1.12      0.00
    5   16   14     -0.48      0.00
    5   16   15      1.83      0.00
    5   16   16     -0.23      0.00
    5   16   17     -0.30      0.00
    5   16   18      0.36      0.00
    5   16   19     -0.66      0.00
   -5  -17   14      0.08      0.00
   -5  -17   13     -0.12      0.00
   -5  -17   12     -0.44      0.00
   -5  -17   11     -0.08      0.00
   -5  -17   10      0.55      0.00
   -5  -17    9      0.09      0.00
   -5  -17    8     -0.06      0.00
   -5  -17    7     -0.47      0.00
   -5  -17    6     -0.02      0.00
   -5  -17    5      0.54      0.00
   -5  -17    4     -0.20      0.00
   -5  -17    3      0.17      0.00
   -5  -17    2     -0.46      0.00
   -5  -17    1     -0.13      0.00
    5   17    0      0.15      0.00
    5   17    1      0.62      0.00
    5   17    2     -0.25      0.00
    5   17    3      0.22      0.00
    5   17    4     -0.77      0.00
    5   17    5      0.02      0.00
    5   17    6      0.10      0.00
    5   17    7      0.23      0.00
    5   17    8      0.44      0.00
    5   17    9     -0.17      0.00
    5   17   10     -0.25      0.00
    5   17   11     -0.13      0.00
    5   17   12     -0.19      0.00
    5   17   13      0.68      0.00
    5   17   14     -0.85      0.00
    5   17   15     -0.06      0.00
    5   17   16      1.52      0.00
    5   17   17     -0.42      0.00
    5   17   18     -1.13      0.00
   -5  -18   12      0.35      0.00
   -5  -18   11      0.06      0.00
   -5  -18   10     -0.01      0.00
   -5  -18    9     -0.25      0.00
   -5  -18    8     -0.17      0.00
   -5  -18    6     -0.05      0.00
   -5  -18    5      0.01      0.00
   -5  -18    4      0.45      0.00
   -5  -18    3     -0.86      0.00
   -5  -18    2      0.27      0.00
   -5  -18    1     -0.10      0.00
    5   18    0      0.49      0.00
    5   18    1     -0.23      0.00
    5   18    2      0.35      0.00
    5   18    3     -0.66      0.00
    5   18    4      0.13      0.00
    5   18    5     -0.32      0.00
    5   18    6      1.07      0.00
    5   18    7     -1.05      0.00
    5   18    8      0.49      0.00
    5   18    9      0.20      0.00
    5   18   10      0.44      0.00
    5   18   11     -0.97      0.00
    5   18   12     -0.40      0.00
    5   18   13     -0.47      0.00
    5   18   14      2.21      0.00
    5   18   15     -0.07      0.00
    5   18   16     -1.07      0.00
    5   18   17     -0.57      0.00
   -5  -19    7     -0.04      0.00
   -5  -19    6      0.75      0.00
   -5  -19    4     -0.32      0.00
   -5  -19    3     -0.21      0.00
   -5  -19    2      0.20      0.00
   -5  -19    1      0.76      0.00
    5   19    0     -0.23      0.00
    5   19    1     -0.14      0.00
    5   19    3     -0.16      0.00
    5   19    4      0.39      0.00
    5   19    5      0.21      0.00
    5   19    6      0.09      0.00
    5   19    7      0.22      0.00
    5   19    8     -0.63      0.00
    5   19    9      0.06      0.00
    5   19   12      0.48      0.00
    5   19   13      0.21      0.00
    5   19   14     -0.85      0.00
    5   19   15      0.52      0.00
    5   20   10     -0.52      0.00
   -6   15    7     -0.05      0.00
   -6   15    6     -0.64      0.00
   -6   15    4      0.60      0.00
   -6   15    3      0.29      0.00
   -6   15    2     -0.79      0.00
    6  -15   12      0.25      0.00
   -6   14    9      0.20      0.00
   -6   14    8     -0.93      0.00
   -6   14    7     -0.32      0.00
   -6   14    6      0.37      0.00
   -6   14    4     -0.09      0.00
   -6   14    3     -0.50      0.00
   -6   14    2     -0.40      0.00
   -6   14    1      0.53      0.00
    6  -14    1     -0.45      0.00
    6  -14    2     -0.84      0.00
    6  -14    3      0.66      0.00
    6  -14    5     -0.20      0.00
    6  -14    6     -0.40      0.00
    6  -14    7     -0.39      0.00
    6  -14    8      0.13      0.00
    6  -14    9      0.26      0.00
    6  -14   10      0.39      0.00
    6  -14   11      0.13      0.00
    6  -14   12     -0.76      0.00
    6  -14   13     -0.22      0.00
    6  -14   15      0.15      0.00
   -6   13   13      0.24      0.00
   -6   13   12      0.52      0.00
   -6   13   11     -0.32      0.00
   -6   13   10     -0.42      0.00
   -6   13    9      0.28      0.00
   -6   13    8      0.01      0.00
   -6   13    7     -0.12      0.00
   -6   13    6     -0.12      0.00
   -6   13    5      0.34      0.00
   -6   13    4      0.48      0.00
   -6   13    3     -0.86      0.00
   -6   13    2      0.07      0.00
   -6   13    1      0.16      0.00
   -6   13    0      0.47      0.00
    6  -13    1     -0.87      0.00
    6  -13    2      0.22      0.00
    6  -13    3      0.17      0.00
    6  -13    4      0.83      0.00
    6  -13    5     -0.58      0.00
    6  -13    6     -0.50      0.00
    6  -13    7     -0.21      0.00
    6  -13    8      0.08      0.00
    6  -13    9      0.70      0.00
    6  -13   10      0.46      0.00
    6  -13   11     -0.25      0.00
    6  -13   12     -1.06      0.00
    6  -13   13     -0.37      0.00
    6  -13   14      1.32      0.00
    6  -13   15      0.62      0.00
    6  -13   16     -1.42      0.00
    6  -13   17     -0.28      0.00
   -6   12   14      1.34      0.00
   -6   12   13     -0.94      0.00
   -6   12   12     -0.92      0.00
   -6   12   11      0.98      0.00
   -6   12   10      0.72      0.00
   -6   12    9     -1.19      0.00
   -6   12    8     -0.48      0.00
   -6   12    7      0.49      0.00
   -6   12    6      1.29      0.00
   -6   12    5     -0.34      0.00
   -6   12    4     -1.06      0.00
   -6   12    3     -0.34      0.00
   -6   12    2      0.67      0.00
   -6   12    1      0.93      0.00
   -6   12    0     -0.95      0.00
    6  -12    1     -0.35      0.00
    6  -12    2      0.45      0.00
    6  -12    3      0.76      0.00
    6  -12    4     -0.68      0.00
    6  -12    5     -0.43      0.00
    6  -12    6      0.02      0.00
    6  -12    7      0.06      0.00
    6  -12    8      0.56      0.00
    6  -12    9      0.24      0.00
    6  -12   10      0.45      0.00
    6  -12   11     -1.71      0.00
    6  -12   12     -0.28      0.00
    6  -12   13      0.91      0.00
    6  -12   14      1.19      0.00
    6  -12   15     -0.72      0.00
    6  -12   16     -0.69      0.00
   -6   11   15      0.28      0.00
   -6   11   14     -0.69      0.00
   -6   11   13      0.67      0.00
   -6   11   12      0.24      0.00
   -6   11   11     -0.48      0.00
   -6   11   10     -0.42      0.00
   -6   11    9      0.04      0.00
   -6   11    8      0.69      0.00
   -6   11    7      0.12      0.00
   -6   11    6     -0.52      0.00
   -6   11    5      0.04      0.00
   -6   11    4     -0.14      0.00
   -6   11    3      0.36      0.00
   -6   11    2     -0.38      0.00
   -6   11    1      0.15      0.00
   -6   11    0      0.22      0.00
    6  -11    1      0.02      0.00
    6  -11    2     -0.28      0.00
    6  -11    4      0.15      0.00
    6  -11    5     -0.23      0.00
    6  -11    6     -0.32      0.00
    6  -11    7      0.26      0.00
    6  -11    8      0.52      0.00
    6  -11    9      0.55      0.00
    6  -11   10     -0.99      0.00
    6  -11   11     -0.55      0.00
    6  -11   12     -0.43      0.00
    6  -11   13      1.76      0.00
    6  -11   14      0.13      0.00
    6  -11   15     -0.78      0.00
    6  -11   16     -0.96      0.00
    6  -11   17      1.25      0.00
    6  -11   18      0.16      0.00
    6  -11   19     -0.84      0.00
    6  -11   20      0.10      0.00
   -6   10   16      0.26      0.00
   -6   10   15      1.11      0.00
   -6   10   14     -0.17      0.00
   -6   10   13     -1.54      0.00
   -6   10   12      0.70      0.00
   -6   10   11      0.89      0.00
   -6   10   10     -0.64      0.00
   -6   10    9     -0.50      0.00
   -6   10    8      0.17      0.00
   -6   10    7      0.96      0.00
   -6   10    6     -0.13      0.00
   -6   10    5     -0.73      0.00
   -6   10    4     -0.53      0.00
   -6   10    3      0.34      0.00
   -6   10    2      1.54      0.00
   -6   10    1     -0.97      0.00
   -6   10    0     -0.56      0.00
    6  -10    1      0.07      0.00
    6  -10    2      0.94      0.00
    6  -10    3     -0.62      0.00
    6  -10    4     -0.57      0.00
    6  -10    5      0.55      0.00
    6  -10    6      0.24      0.00
    6  -10    7      0.13      0.00
    6  -10    8     -0.29      0.00
    6  -10    9      0.44      0.00
    6  -10   10     -0.96      0.00
    6  -10   11     -0.55      0.00
    6  -10   12      0.83      0.00
    6  -10   13      1.24      0.00
    6  -10   14     -0.18      0.00
    6  -10   15     -1.28      0.00
    6  -10   16     -0.23      0.00
    6  -10   17      0.04      0.00
    6  -10   18      1.05      0.00
    6  -10   19      0.15      0.00
    6  -10   20     -0.49      0.00
   -6    9   16      0.57      0.00
   -6    9   15     -1.27      0.00
   -6    9   14      0.19      0.00
   -6    9   13      0.88      0.00
   -6    9   12      0.10      0.00
   -6    9   11     -1.05      0.00
   -6    9   10     -0.30      0.00
   -6    9    9      1.03      0.00
   -6    9    8      0.48      0.00
   -6    9    7     -0.69      0.00
   -6    9    6     -0.67      0.00
   -6    9    5      0.32      0.00
   -6    9    4      0.98      0.00
   -6    9    3     -0.42      0.00
   -6    9    2     -1.11      0.00
   -6    9    1      1.04      0.00
   -6    9    0      0.31      0.00
    6   -9    1     -0.34      0.00
    6   -9    2     -1.15      0.00
    6   -9    3      1.21      0.00
    6   -9    4      0.34      0.00
    6   -9    5     -0.68      0.00
    6   -9    6     -0.20      0.00
    6   -9    7      0.32      0.00
    6   -9    8      0.76      0.00
    6   -9    9     -1.14      0.00
    6   -9   10     -0.03      0.00
    6   -9   11     -0.19      0.00
    6   -9   12      1.36      0.00
    6   -9   13     -0.26      0.00
    6   -9   14     -0.56      0.00
    6   -9   15     -0.64      0.00
    6   -9   16      0.73      0.00
    6   -9   17      0.58      0.00
    6   -9   18     -1.00      0.00
    6   -9   19      0.19      0.00
    6   -9   20      0.36      0.00
   -6    8   16      0.40      0.00
   -6    8   15      0.23      0.00
   -6    8   14     -1.12      0.00
   -6    8   13      0.39      0.00
   -6    8   12      0.37      0.00
   -6    8   11      0.06      0.00
   -6    8   10     -0.38      0.00
   -6    8    9     -0.01      0.00
   -6    8    8      0.11      0.00
   -6    8    7      0.15      0.00
   -6    8    6      0.41      0.00
   -6    8    5     -0.65      0.00
   -6    8    4     -0.76      0.00
   -6    8    3      1.34      0.00
   -6    8    2      0.26      0.00
   -6    8    1     -0.81      0.00
   -6    8    0     -0.74      0.00
    6   -8    1      0.96      0.00
    6   -8    2      0.56      0.00
    6   -8    3     -1.07      0.00
    6   -8    4      0.27      0.00
    6   -8    5      0.32      0.00
    6   -8    6      0.25      0.00
    6   -8    7     -0.81      0.00
    6   -8    8      0.10      0.00
    6   -8    9      0.43      0.00
    6   -8   10     -0.47      0.00
    6   -8   11      0.29      0.00
    6   -8   12      0.20      0.00
    6   -8   13      0.62      0.00
    6   -8   14     -1.10      0.00
    6   -8   15     -0.33      0.00
    6   -8   16      0.01      0.00
    6   -8   17      0.88      0.00
    6   -8   18      0.97      0.00
    6   -8   19     -1.48      0.00
    6   -8   20     -0.37      0.00
    6   -8   21     -0.02      0.00
    6   -8   22      1.18      0.00
   -6    7   16     -1.17      0.00
   -6    7   15     -0.13      0.00
   -6    7   14      0.82      0.00
   -6    7   13      0.75      0.00
   -6    7   12     -1.18      0.00
   -6    7   11     -0.64      0.00
   -6    7   10      0.71      0.00
   -6    7    9      0.67      0.00
   -6    7    8      0.08      0.00
   -6    7    7     -0.84      0.00
   -6    7    6     -0.33      0.00
   -6    7    5      0.92      0.00
   -6    7    4      0.38      0.00
   -6    7    3     -1.67      0.00
   -6    7    2      0.62      0.00
   -6    7    1      0.84      0.00
   -6    7    0      0.49      0.00
    6   -7    1     -2.26      0.00
    6   -7    2      1.19      0.00
    6   -7    3      0.87      0.00
    6   -7    4     -0.56      0.00
    6   -7    5     -0.89      0.00
    6   -7    6      0.26      0.00
    6   -7    7      1.16      0.00
    6   -7    8     -0.84      0.00
    6   -7    9     -0.11      0.00
    6   -7   10     -0.05      0.00
    6   -7   11      0.60      0.00
    6   -7   12     -0.12      0.00
    6   -7   13     -0.81      0.00
    6   -7   14      0.56      0.00
    6   -7   15      0.10      0.00
    6   -7   16      0.74      0.00
    6   -7   17     -1.34      0.00
    6   -7   18     -0.36      0.00
    6   -7   19      1.15      0.00
    6   -7   20      0.03      0.00
    6   -7   21      0.29      0.00
    6   -7   22     -1.09      0.00
   -6    6   16      0.15      0.00
   -6    6   15     -0.47      0.00
   -6    6   14      0.38      0.00
   -6    6   13     -0.43      0.00
   -6    6   12      0.50      0.00
   -6    6   11     -0.23      0.00
   -6    6   10      0.31      0.00
   -6    6    9     -0.58      0.00
   -6    6    8      0.15      0.00
   -6    6    7      0.97      0.00
   -6    6    6     -0.38      0.00
   -6    6    5     -1.52      0.00
   -6    6    4      0.40      0.00
   -6    6    3      1.68      0.00
   -6    6    2     -0.21      0.00
   -6    6    1     -1.50      0.00
   -6    6    0     -0.08      0.00
    6   -6    1      2.00      0.00
    6   -6    2     -1.15      0.00
    6   -6    3     -0.41      0.00
    6   -6    4     -0.15      0.00
    6   -6    5      1.34      0.00
    6   -6    6     -0.91      0.00
    6   -6    7     -0.44      0.00
    6   -6    8      0.74      0.00
    6   -6    9      0.08      0.00
    6   -6   10     -0.14      0.00
    6   -6   11     -0.74      0.00
    6   -6   12      0.83      0.00
    6   -6   13      0.13      0.00
    6   -6   14     -0.54      0.00
    6   -6   15      0.20      0.00
    6   -6   16     -0.69      0.00
    6   -6   17      1.67      0.00
    6   -6   18     -1.41      0.00
    6   -6   19      0.20      0.00
    6   -6   20     -0.03      0.00
    6   -6   21      0.75      0.00
    6   -6   22      0.01      0.00
   -6    5   17     -0.69      0.00
   -6    5   16      0.07      0.00
   -6    5   15      0.23      0.00
   -6    5   14      0.66      0.00
   -6    5   13     -0.63      0.00
   -6    5   12     -0.48      0.00
   -6    5   11      0.23      0.00
   -6    5   10      0.34      0.00
   -6    5    9      0.88      0.00
   -6    5    8     -0.50      0.00
   -6    5    7     -1.30      0.00
   -6    5    6      0.16      0.00
   -6    5    5      1.45      0.00
   -6    5    4     -0.74      0.00
   -6    5    3     -0.60      0.00
   -6    5    2      0.69      0.00
   -6    5    1      1.37      0.00
   -6    5    0     -2.16      0.00
    6   -5    1     -0.23      0.00
    6   -5    2      1.29      0.00
    6   -5    3      0.18      0.00
    6   -5    4     -0.81      0.00
    6   -5    5     -0.40      0.00
    6   -5    6      1.48      0.00
    6   -5    7     -0.68      0.00
    6   -5    8     -0.25      0.00
    6   -5    9     -0.37      0.00
    6   -5   10      0.54      0.00
    6   -5   11      0.33      0.00
    6   -5   12     -0.80      0.00
    6   -5   13      0.83      0.00
    6   -5   14     -0.19      0.00
    6   -5   15      0.04      0.00
    6   -5   16     -0.86      0.00
    6   -5   17     -0.72      0.00
    6   -5   18      2.34      0.00
    6   -5   19     -0.49      0.00
    6   -5   20      0.53      0.00
    6   -5   21     -2.08      0.00
    6   -5   22      0.52      0.00
   -6    4   17      0.29      0.00
   -6    4   16     -0.57      0.00
   -6    4   15      0.46      0.00
   -6    4   14     -0.71      0.00
   -6    4   13      0.76      0.00
   -6    4   12     -0.23      0.00
   -6    4   11      0.72      0.00
   -6    4   10     -1.01      0.00
   -6    4    9     -0.03      0.00
   -6    4    8      0.52      0.00
   -6    4    7      0.37      0.00
   -6    4    6     -1.24      0.00
   -6    4    5     -0.33      0.00
   -6    4    4      1.70      0.00
   -6    4    3      0.71      0.00
   -6    4    2     -1.60      0.00
   -6    4    1     -1.37      0.00
   -6    4    0      2.23      0.00
    6   -4    1     -0.08      0.00
    6   -4    2     -0.86      0.00
    6   -4    3     -0.63      0.00
    6   -4    4      1.80      0.00
    6   -4    5     -0.38      0.00
    6   -4    6     -1.17      0.00
    6   -4    7      0.37      0.00
    6   -4    8      0.47      0.00
    6   -4    9      0.34      0.00
    6   -4   10     -1.03      0.00
    6   -4   11      0.41      0.00
    6   -4   12      0.64      0.00
    6   -4   13     -0.51      0.00
    6   -4   14      0.16      0.00
    6   -4   15     -1.47      0.00
    6   -4   16      1.70      0.00
    6   -4   17     -0.17      0.00
    6   -4   18      0.19      0.00
    6   -4   19     -0.28      0.00
    6   -4   20     -0.64      0.00
    6   -4   21      0.79      0.00
    6   -4   22     -0.87      0.00
   -6    3   17     -0.03      0.00
   -6    3   16      0.04      0.00
   -6    3   15     -0.18      0.00
   -6    3   14      0.34      0.00
   -6    3   13     -0.07      0.00
   -6    3   12      0.09      0.00
   -6    3   11     -0.68      0.00
   -6    3   10      1.22      0.00
   -6    3    9     -0.11      0.00
   -6    3    8     -1.25      0.00
   -6    3    7     -0.73      0.00
   -6    3    6      2.16      0.00
   -6    3    5      0.30      0.00
   -6    3    4     -1.57      0.00
   -6    3    3     -0.11      0.00
   -6    3    2      1.79      0.00
   -6    3    1     -0.96      0.00
   -6    3    0     -1.69      0.00
    6   -3    1      1.19      0.00
    6   -3    2      1.32      0.00
    6   -3    3     -0.43      0.00
    6   -3    4     -1.46      0.00
    6   -3    5      1.04      0.00
    6   -3    6     -0.06      0.00
    6   -3    7     -0.16      0.00
    6   -3    8     -0.51      0.00
    6   -3    9      0.69      0.00
    6   -3   10      0.56      0.00
    6   -3   11     -0.82      0.00
    6   -3   12      0.06      0.00
    6   -3   13     -0.02      0.00
    6   -3   14     -0.17      0.00
    6   -3   15      0.04      0.00
    6   -3   16     -0.51      0.00
    6   -3   17      2.19      0.00
    6   -3   18     -1.13      0.00
    6   -3   19     -0.10      0.00
    6   -3   20     -1.21      0.00
    6   -3   21      0.41      0.00
    6   -3   22      0.49      0.00
   -6    2   17     -0.88      0.00
   -6    2   16      0.10      0.00
   -6    2   15     -0.05      0.00
   -6    2   14      0.72      0.00
   -6    2   13     -0.29      0.00
   -6    2   12      0.46      0.00
   -6    2   11     -0.89      0.00
   -6    2   10     -0.22      0.00
   -6    2    9      0.04      0.00
   -6    2    8      1.06      0.00
   -6    2    7     -0.27      0.00
   -6    2    6     -1.00      0.00
   -6    2    5      0.60      0.00
   -6    2    4      1.19      0.00
   -6    2    3     -0.83      0.00
   -6    2    2     -1.81      0.00
   -6    2    1      1.24      0.00
   -6    2    0      1.46      0.00
    6   -2    1     -1.02      0.00
    6   -2    2     -1.04      0.00
    6   -2    3      1.19      0.00
    6   -2    4      0.45      0.00
    6   -2    5     -1.42      0.00
    6   -2    6      0.08      0.00
    6   -2    7      0.76      0.00
    6   -2    8      0.80      0.00
    6   -2    9     -1.06      0.00
    6   -2   10     -0.37      0.00
    6   -2   11      0.32      0.00
    6   -2   12      0.16      0.00
    6   -2   13      0.29      0.00
    6   -2   14     -1.07      0.00
    6   -2   15      0.93      0.00
    6   -2   16      0.52      0.00
    6   -2   17     -0.27      0.00
    6   -2   18     -0.37      0.00
    6   -2   19     -1.13      0.00
    6   -2   20      0.99      0.00
    6   -2   21      0.17      0.00
    6   -2   22      0.14      0.00
   -6    1   17      0.43      0.00
   -6    1   16     -0.70      0.00
   -6    1   15      0.88      0.00
   -6    1   14      0.04      0.00
   -6    1   13      0.21      0.00
   -6    1   12     -1.51      0.00
   -6    1   11      1.06      0.00
   -6    1   10      0.23      0.00
   -6    1    9     -0.19      0.00
   -6    1    8     -1.48      0.00
   -6    1    7      1.92      0.00
   -6    1    6      0.69      0.00
   -6    1    5     -1.68      0.00
   -6    1    4     -0.71      0.00
   -6    1    3      1.71      0.00
   -6    1    2      0.43      0.00
   -6    1    1     -2.21      0.00
   -6    1    0      0.13      0.00
    6   -1    1      2.32      0.00
    6   -1    2     -0.13      0.00
    6   -1    3     -2.08      0.00
    6   -1    4      0.08      0.00
    6   -1    5      1.29      0.00
    6   -1    6      0.08      0.00
    6   -1    7     -0.87      0.00
    6   -1    8      0.33      0.00
    6   -1    9      0.54      0.00
    6   -1   10     -0.56      0.00
    6   -1   11     -0.52      0.00
    6   -1   12      0.36      0.00
    6   -1   13      0.24      0.00
    6   -1   14      0.31      0.00
    6   -1   15     -0.43      0.00
    6   -1   16      1.05      0.00
    6   -1   17     -1.01      0.00
    6   -1   18     -0.85      0.00
    6   -1   19      0.41      0.00
    6   -1   20      0.58      0.00
    6   -1   21      0.09      0.00
    6   -1   22      0.08      0.00
   -6    0   17     -0.53      0.00
   -6    0   16      0.82      0.00
   -6    0   15      0.24      0.00
   -6    0   14     -0.14      0.00
   -6    0   13     -0.29      0.00
   -6    0   12     -0.20      0.00
   -6    0   11     -0.28      0.00
   -6    0   10     -0.04      0.00
   -6    0    9      0.96      0.00
   -6    0    8      0.78      0.00
   -6    0    7     -1.75      0.00
   -6    0    6     -0.35      0.00
   -6    0    5      1.30      0.00
   -6    0    4      0.44      0.00
   -6    0    3     -1.62      0.00
   -6    0    2     -0.36      0.00
   -6    0    1      2.42      0.00
    6    0    0     -0.59      0.00
    6    0    1     -1.75      0.00
    6    0    2      0.45      0.00
    6    0    3      1.47      0.00
    6    0    4     -0.74      0.00
    6    0    5     -0.78      0.00
    6    0    6      0.67      0.00
    6    0    7      0.87      0.00
    6    0    8     -0.91      0.00
    6    0    9     -0.80      0.00
    6    0   10      0.19      0.00
    6    0   11      1.03      0.00
    6    0   12      0.31      0.00
    6    0   13     -0.89      0.00
    6    0   14      0.05      0.00
    6    0   15      0.46      0.00
    6    0   16     -0.32      0.00
    6    0   17     -0.33      0.00
    6    0   18     -0.27      0.00
    6    0   19      0.21      0.00
    6    0   20      1.04      0.00
    6    0   21     -0.17      0.00
    6    0   22     -0.40      0.00
   -6   -1   17     -0.26      0.00
   -6   -1   16      0.51      0.00
   -6   -1   15     -0.07      0.00
   -6   -1   14      0.15      0.00
   -6   -1   13     -1.08      0.00
   -6   -1   12      0.50      0.00
   -6   -1   11      0.26      0.00
   -6   -1   10      0.78      0.00
   -6   -1    9     -1.68      0.00
   -6   -1    8      0.81      0.00
   -6   -1    7      0.89      0.00
   -6   -1    6     -0.95      0.00
   -6   -1    5     -0.66      0.00
   -6   -1    4      0.73      0.00
   -6   -1    3      1.14      0.00
   -6   -1    2     -1.50      0.00
   -6   -1    1     -1.18      0.00
    6    1    0      2.34      0.00
    6    1    1      0.64      0.00
    6    1    2     -1.85      0.00
    6    1    3     -0.99      0.00
    6    1    4      1.91      0.00
    6    1    5      0.62      0.00
    6    1    6     -1.52      0.00
    6    1    7     -0.29      0.00
    6    1    8      0.85      0.00
    6    1    9      0.27      0.00
    6    1   10     -0.74      0.00
    6    1   11      0.08      0.00
    6    1   12      0.42      0.00
    6    1   13      0.42      0.00
    6    1   14     -0.67      0.00
    6    1   15      0.18      0.00
    6    1   16     -0.36      0.00
    6    1   17     -0.76      0.00
    6    1   18      0.80      0.00
    6    1   19      1.16      0.00
    6    1   20     -0.41      0.00
    6    1   21     -0.60      0.00
    6    1   22     -0.16      0.00
   -6   -2   17      0.89      0.00
   -6   -2   16     -0.24      0.00
   -6   -2   15      0.03      0.00
   -6   -2   14     -0.50      0.00
   -6   -2   13      0.19      0.00
   -6   -2   12     -0.09      0.00
   -6   -2   11     -0.07      0.00
   -6   -2   10      0.26      0.00
   -6   -2    9      1.46      0.00
   -6   -2    8     -1.86      0.00
   -6   -2    7     -0.72      0.00
   -6   -2    6      1.04      0.00
   -6   -2    5      1.29      0.00
   -6   -2    4     -1.12      0.00
   -6   -2    3     -1.86      0.00
   -6   -2    2      2.40      0.00
   -6   -2    1      0.76      0.00
    6    2    0     -2.12      0.00
    6    2    1     -0.61      0.00
    6    2    2      2.07      0.00
    6    2    3      0.55      0.00
    6    2    4     -1.85      0.00
    6    2    5     -0.38      0.00
    6    2    6      1.39      0.00
    6    2    7     -0.06      0.00
    6    2    8     -0.89      0.00
    6    2    9     -0.20      0.00
    6    2   10      1.33      0.00
    6    2   11      0.38      0.00
    6    2   12     -1.13      0.00
    6    2   13     -0.54      0.00
    6    2   14      0.50      0.00
    6    2   15      0.12      0.00
    6    2   16     -0.30      0.00
    6    2   17      0.65      0.00
    6    2   18     -0.48      0.00
    6    2   19      0.82      0.00
    6    2   20     -0.40      0.00
    6    2   21     -0.11      0.00
    6    2   22     -0.94      0.00
   -6   -3   17     -0.13      0.00
   -6   -3   16     -0.10      0.00
   -6   -3   15     -0.24      0.00
   -6   -3   14      0.02      0.00
   -6   -3   13      0.18      0.00
   -6   -3   12     -0.20      0.00
   -6   -3   11      1.00      0.00
   -6   -3   10     -1.18      0.00
   -6   -3    9     -0.03      0.00
   -6   -3    8      0.83      0.00
   -6   -3    7     -0.15      0.00
   -6   -3    6     -0.25      0.00
   -6   -3    5     -0.66      0.00
   -6   -3    4      0.84      0.00
   -6   -3    3      0.17      0.00
   -6   -3    2     -1.28      0.00
   -6   -3    1      1.07      0.00
    6    3    0      1.01      0.00
    6    3    1     -0.87      0.00
    6    3    2     -1.63      0.00
    6    3    3      1.08      0.00
    6    3    4      1.32      0.00
    6    3    5     -1.03      0.00
    6    3    6     -1.06      0.00
    6    3    7      0.99      0.00
    6    3    8      0.87      0.00
    6    3    9     -0.55      0.00
    6    3   10     -0.70      0.00
    6    3   11      0.11      0.00
    6    3   12      0.97      0.00
    6    3   13     -0.80      0.00
    6    3   14     -0.21      0.00
    6    3   15      0.09      0.00
    6    3   16      0.26      0.00
    6    3   17     -0.16      0.00
    6    3   18      1.21      0.00
    6    3   19     -0.63      0.00
    6    3   20     -0.61      0.00
    6    3   21     -0.92      0.00
    6    3   22      1.20      0.00
   -6   -4   17     -0.30      0.00
   -6   -4   16     -0.22      0.00
   -6   -4   15      0.06      0.00
   -6   -4   14      0.05      0.00
   -6   -4   13      0.31      0.00
   -6   -4   12     -0.23      0.00
   -6   -4   11     -0.35      0.00
   -6   -4   10      1.55      0.00
   -6   -4    9     -1.26      0.00
   -6   -4    8     -0.66      0.00
   -6   -4    7      0.23      0.00
   -6   -4    6      1.37      0.00
   -6   -4    5     -0.25      0.00
   -6   -4    4     -2.09      0.00
   -6   -4    3      1.39      0.00
   -6   -4    2      1.83      0.00
   -6   -4    1     -1.56      0.00
    6    4    0     -1.81      0.00
    6    4    1      1.42      0.00
    6    4    2      1.92      0.00
    6    4    3     -1.49      0.00
    6    4    4     -1.72      0.00
    6    4    5      1.23      0.00
    6    4    6      1.35      0.00
    6    4    7     -0.87      0.00
    6    4    8     -0.80      0.00
    6    4    9      0.70      0.00
    6    4   10      1.02      0.00
    6    4   11     -1.13      0.00
    6    4   12     -1.21      0.00
    6    4   13      0.78      0.00
    6    4   14      0.89      0.00
    6    4   15     -0.08      0.00
    6    4   16      0.22      0.00
    6    4   17     -0.67      0.00
    6    4   18      0.11      0.00
    6    4   19     -0.32      0.00
    6    4   20      0.40      0.00
    6    4   21     -0.57      0.00
    6    4   22      0.22      0.00
   -6   -5   17     -0.19      0.00
   -6   -5   16     -0.51      0.00
   -6   -5   15      0.64      0.00
   -6   -5   14      0.53      0.00
   -6   -5   13     -0.67      0.00
   -6   -5   12      0.50      0.00
   -6   -5   11     -0.69      0.00
   -6   -5   10      0.03      0.00
   -6   -5    9      0.55      0.00
   -6   -5    8     -0.08      0.00
   -6   -5    7      0.10      0.00
   -6   -5    6     -1.07      0.00
   -6   -5    5      0.29      0.00
   -6   -5    4      1.20      0.00
   -6   -5    3     -0.30      0.00
   -6   -5    2     -0.55      0.00
   -6   -5    1      0.22      0.00
    6    5    0      0.20      0.00
    6    5    1     -0.86      0.00
    6    5    2     -0.06      0.00
    6    5    3      1.18      0.00
    6    5    4      0.20      0.00
    6    5    5     -1.36      0.00
    6    5    6      0.17      0.00
    6    5    7      1.01      0.00
    6    5    8      0.08      0.00
    6    5    9     -0.71      0.00
    6    5   10     -1.00      0.00
    6    5   11      1.37      0.00
    6    5   12     -0.29      0.00
    6    5   13     -0.04      0.00
    6    5   14     -0.06      0.00
    6    5   15      0.81      0.00
    6    5   16     -1.12      0.00
    6    5   17      0.69      0.00
    6    5   18     -0.40      0.00
    6    5   19      0.39      0.00
    6    5   20     -1.50      0.00
    6    5   21      1.42      0.00
    6    5   22      0.09      0.00
   -6   -6   17     -0.53      0.00
   -6   -6   16      0.62      0.00
   -6   -6   15     -0.02      0.00
   -6   -6   14      0.61      0.00
   -6   -6   13     -0.50      0.00
   -6   -6   12     -0.69      0.00
   -6   -6   11      1.16      0.00
   -6   -6   10     -0.46      0.00
   -6   -6    9     -0.48      0.00
   -6   -6    8     -0.47      0.00
   -6   -6    7      1.16      0.00
   -6   -6    6      0.60      0.00
   -6   -6    5     -1.39      0.00
   -6   -6    4     -0.02      0.00
   -6   -6    3      1.38      0.00
   -6   -6    2     -0.38      0.00
   -6   -6    1     -1.79      0.00
    6    6    0      0.30      0.00
    6    6    1      2.19      0.00
    6    6    2     -0.07      0.00
    6    6    3     -2.11      0.00
    6    6    4     -0.32      0.00
    6    6    5      2.06      0.00
    6    6    6     -0.02      0.00
    6    6    7     -0.80      0.00
    6    6    8     -0.54      0.00
    6    6    9      1.04      0.00
    6    6   10     -0.15      0.00
    6    6   11     -1.70      0.00
    6    6   12      1.06      0.00
    6    6   13      1.18      0.00
    6    6   14      0.32      0.00
    6    6   15     -1.27      0.00
    6    6   16     -0.48      0.00
    6    6   17      0.11      0.00
    6    6   18      0.29      0.00
    6    6   19      0.21      0.00
    6    6   20      0.37      0.00
    6    6   21     -0.49      0.00
    6    6   22      0.27      0.00
   -6   -7   17     -0.25      0.00
   -6   -7   16      0.60      0.00
   -6   -7   15      0.82      0.00
   -6   -7   14     -0.80      0.00
   -6   -7   13     -0.12      0.00
   -6   -7   12     -0.58      0.00
   -6   -7   11      0.42      0.00
   -6   -7   10      0.44      0.00
   -6   -7    9     -0.17      0.00
   -6   -7    8      0.13      0.00
   -6   -7    7     -0.57      0.00
   -6   -7    6      0.01      0.00
   -6   -7    5      0.80      0.00
   -6   -7    4      0.25      0.00
   -6   -7    3     -0.95      0.00
   -6   -7    2     -0.44      0.00
   -6   -7    1      0.66      0.00
    6    7    0      0.37      0.00
    6    7    1     -0.55      0.00
    6    7    2      0.15      0.00
    6    7    3      0.57      0.00
    6    7    4     -0.48      0.00
    6    7    5     -0.58      0.00
    6    7    6      0.71      0.00
    6    7    7      0.26      0.00
    6    7    8      0.06      0.00
    6    7    9     -1.69      0.00
    6    7   10      0.89      0.00
    6    7   11      0.74      0.00
    6    7   12      0.15      0.00
    6    7   13     -0.34      0.00
    6    7   14     -0.02      0.00
    6    7   15     -0.80      0.00
    6    7   16      0.36      0.00
    6    7   17      0.11      0.00
    6    7   18      0.91      0.00
    6    7   19     -1.51      0.00
    6    7   20      0.85      0.00
    6    7   21      0.12      0.00
    6    7   22      0.22      0.00
   -6   -8   17      0.52      0.00
   -6   -8   16     -0.07      0.00
   -6   -8   15      0.52      0.00
   -6   -8   14     -0.53      0.00
   -6   -8   13     -0.69      0.00
   -6   -8   12      0.47      0.00
   -6   -8   11      0.33      0.00
   -6   -8   10     -0.29      0.00
   -6   -8    9     -0.50      0.00
   -6   -8    8      0.81      0.00
   -6   -8    7      0.88      0.00
   -6   -8    6     -1.07      0.00
   -6   -8    5     -0.87      0.00
   -6   -8    4      0.60      0.00
   -6   -8    3      0.76      0.00
   -6   -8    2     -0.73      0.00
   -6   -8    1     -0.38      0.00
    6    8    0      1.01      0.00
    6    8    1      0.69      0.00
    6    8    2     -1.33      0.00
    6    8    3     -1.18      0.00
    6    8    4      1.32      0.00
    6    8    5      1.15      0.00
    6    8    6     -0.40      0.00
    6    8    7     -1.32      0.00
    6    8    8     -0.07      0.00
    6    8    9      1.24      0.00
    6    8   10     -1.13      0.00
    6    8   11      0.59      0.00
    6    8   12      0.64      0.00
    6    8   13      0.51      0.00
    6    8   14     -1.65      0.00
    6    8   15     -0.38      0.00
    6    8   16      0.55      0.00
    6    8   17      0.58      0.00
    6    8   18     -0.28      0.00
    6    8   19      0.92      0.00
    6    8   20     -0.82      0.00
    6    8   21     -0.17      0.00
    6    8   22     -0.40      0.00
   -6   -9   17      0.13      0.00
   -6   -9   16      0.50      0.00
   -6   -9   15     -0.55      0.00
   -6   -9   14     -0.18      0.00
   -6   -9   13     -0.48      0.00
   -6   -9   12      0.48      0.00
   -6   -9   11      0.23      0.00
   -6   -9   10      0.37      0.00
   -6   -9    9     -0.19      0.00
   -6   -9    8     -0.18      0.00
   -6   -9    7     -0.62      0.00
   -6   -9    6      0.58      0.00
   -6   -9    5      0.17      0.00
   -6   -9    4     -0.17      0.00
   -6   -9    3     -0.51      0.00
   -6   -9    2      0.59      0.00
   -6   -9    1      0.36      0.00
    6    9    0     -0.51      0.00
    6    9    1     -0.37      0.00
    6    9    2      0.42      0.00
    6    9    3      0.32      0.00
    6    9    4     -0.29      0.00
    6    9    5     -0.17      0.00
    6    9    6      0.00      0.00
    6    9    7      0.35      0.00
    6    9    8     -0.47      0.00
    6    9    9     -0.26      0.00
    6    9   10      0.99      0.00
    6    9   11     -0.17      0.00
    6    9   12      0.09      0.00
    6    9   13     -0.70      0.00
    6    9   14     -0.05      0.00
    6    9   15     -0.09      0.00
    6    9   16      0.38      0.00
    6    9   17      0.75      0.00
    6    9   18     -0.84      0.00
    6    9   19      0.25      0.00
    6    9   20     -0.08      0.00
    6    9   21     -0.03      0.00
    6    9   22     -0.25      0.00
   -6  -10   16      0.19      0.00
   -6  -10   15      0.11      0.00
   -6  -10   14     -0.35      0.00
   -6  -10   13     -0.36      0.00
   -6  -10   12      0.60      0.00
   -6  -10   11      0.12      0.00
   -6  -10   10     -0.20      0.00
   -6  -10    9      0.23      0.00
   -6  -10    8      0.39      0.00
   -6  -10    7     -0.66      0.00
   -6  -10    6     -1.15      0.00
   -6  -10    5      0.85      0.00
   -6  -10    4      1.00      0.00
   -6  -10    3      0.08      0.00
   -6  -10    2     -1.13      0.00
   -6  -10    1      0.10      0.00
    6   10    0      0.71      0.00
    6   10    1     -0.34      0.00
    6   10    2     -0.73      0.00
    6   10    3      0.22      0.00
    6   10    4      1.23      0.00
    6   10    5      0.04      0.00
    6   10    6     -1.27      0.00
    6   10    7     -0.55      0.00
    6   10    8      1.03      0.00
    6   10    9      0.40      0.00
    6   10   10     -0.61      0.00
    6   10   11      0.50      0.00
    6   10   12      0.27      0.00
    6   10   13     -0.70      0.00
    6   10   14     -0.90      0.00
    6   10   15      0.64      0.00
    6   10   16      0.50      0.00
    6   10   17      0.12      0.00
    6   10   18      0.79      0.00
    6   10   19     -0.92      0.00
    6   10   20     -0.75      0.00
    6   10   21     -0.42      0.00
   -6  -11   16      0.08      0.00
   -6  -11   15      0.04      0.00
   -6  -11   14     -0.38      0.00
   -6  -11   13      0.20      0.00
   -6  -11   12     -0.14      0.00
   -6  -11   11      0.98      0.00
   -6  -11   10     -0.44      0.00
   -6  -11    9      0.00      0.00
   -6  -11    8     -1.47      0.00
   -6  -11    7      0.97      0.00
   -6  -11    6      0.47      0.00
   -6  -11    5      0.28      0.00
   -6  -11    4     -0.70      0.00
   -6  -11    3      0.20      0.00
   -6  -11    2      0.17      0.00
   -6  -11    1     -0.55      0.00
    6   11    0     -0.06      0.00
    6   11    1      0.54      0.00
    6   11    2      0.14      0.00
    6   11    3      0.19      0.00
    6   11    4     -0.82      0.00
    6   11    5      0.05      0.00
    6   11    6     -0.14      0.00
    6   11    7      1.03      0.00
    6   11    8     -0.58      0.00
    6   11    9     -0.12      0.00
    6   11   10     -0.01      0.00
    6   11   11      0.42      0.00
    6   11   12      0.05      0.00
    6   11   13     -0.58      0.00
    6   11   14     -0.72      0.00
    6   11   15      0.55      0.00
    6   11   16      1.34      0.00
    6   11   17     -0.18      0.00
    6   11   18     -0.76      0.00
    6   11   19     -0.67      0.00
    6   11   20      0.26      0.00
    6   11   21      0.33      0.00
   -6  -12   16      0.70      0.00
   -6  -12   15     -0.16      0.00
   -6  -12   14     -0.86      0.00
   -6  -12   13      0.24      0.00
   -6  -12   12      0.64      0.00
   -6  -12   11      0.11      0.00
   -6  -12   10     -0.25      0.00
   -6  -12    9     -0.49      0.00
   -6  -12    8      0.43      0.00
   -6  -12    7     -1.19      0.00
   -6  -12    6      1.17      0.00
   -6  -12    5      0.40      0.00
   -6  -12    4      0.60      0.00
   -6  -12    3     -1.75      0.00
   -6  -12    2     -0.10      0.00
   -6  -12    1      0.89      0.00
    6   12    0      0.12      0.00
    6   12    1     -0.44      0.00
    6   12    2     -0.09      0.00
    6   12    3      0.68      0.00
    6   12    4      0.22      0.00
    6   12    5     -1.20      0.00
    6   12    6      0.20      0.00
    6   12    7     -0.39      0.00
    6   12    8      1.67      0.00
    6   12    9     -1.07      0.00
    6   12   10      0.68      0.00
    6   12   11     -0.18      0.00
    6   12   12     -0.65      0.00
    6   12   13     -0.91      0.00
    6   12   14      0.76      0.00
    6   12   15      1.08      0.00
    6   12   16      0.32      0.00
    6   12   17     -0.26      0.00
    6   12   18     -1.03      0.00
    6   12   19     -0.81      0.00
    6   12   20      0.25      0.00
    6   12   21      1.84      0.00
   -6  -13   16     -0.16      0.00
   -6  -13   15     -0.40      0.00
   -6  -13   14     -0.06      0.00
   -6  -13   13      0.01      0.00
   -6  -13   12      0.88      0.00
   -6  -13   11     -0.56      0.00
   -6  -13   10      0.19      0.00
   -6  -13    9     -1.36      0.00
   -6  -13    8      0.68      0.00
   -6  -13    7      0.94      0.00
   -6  -13    6      0.16      0.00
   -6  -13    5     -0.68      0.00
   -6  -13    4     -0.56      0.00
   -6  -13    3      0.68      0.00
   -6  -13    2     -0.53      0.00
   -6  -13    1      0.05      0.00
    6   13    0      0.72      0.00
    6   13    1     -0.01      0.00
    6   13    2      0.05      0.00
    6   13    3     -1.01      0.00
    6   13    4      0.31      0.00
    6   13    5     -0.42      0.00
    6   13    6      1.14      0.00
    6   13    7      0.39      0.00
    6   13    8     -1.27      0.00
    6   13    9      0.45      0.00
    6   13   10     -0.39      0.00
    6   13   11      1.05      0.00
    6   13   12     -1.07      0.00
    6   13   13     -0.74      0.00
    6   13   14      0.92      0.00
    6   13   15      1.58      0.00
    6   13   16     -0.07      0.00
    6   13   17     -2.11      0.00
    6   13   18     -0.83      0.00
    6   13   19      1.53      0.00
    6   13   20      0.78      0.00
    6   13   21     -0.30      0.00
   -6  -14   15     -0.59      0.00
   -6  -14   14      0.11      0.00
   -6  -14   13      0.65      0.00
   -6  -14   12      0.18      0.00
   -6  -14   11     -0.33      0.00
   -6  -14   10     -0.93      0.00
   -6  -14    9      1.06      0.00
   -6  -14    8     -0.75      0.00
   -6  -14    7      0.73      0.00
   -6  -14    6     -0.13      0.00
   -6  -14    5      0.81      0.00
   -6  -14    4     -1.38      0.00
   -6  -14    3     -0.63      0.00
   -6  -14    2      1.14      0.00
   -6  -14    1      0.59      0.00
    6   14    0     -0.60      0.00
    6   14    1     -0.27      0.00
    6   14    2      0.39      0.00
    6   14    3      0.14      0.00
    6   14    4     -1.14      0.00
    6   14    5      0.99      0.00
    6   14    6     -0.82      0.00
    6   14    7      1.51      0.00
    6   14    8     -0.61      0.00
    6   14    9      0.14      0.00
    6   14   10     -0.36      0.00
    6   14   11     -1.27      0.00
    6   14   12      0.40      0.00
    6   14   13      1.07      0.00
    6   14   14      1.43      0.00
    6   14   15     -0.77      0.00
    6   14   16     -1.81      0.00
    6   14   17     -0.02      0.00
    6   14   18      0.32      0.00
    6   14   19      0.62      0.00
   -6  -15   15     -0.07      0.00
   -6  -15   14      0.40      0.00
   -6  -15   13      0.41      0.00
   -6  -15   12     -0.73      0.00
   -6  -15   11      0.21      0.00
   -6  -15   10     -0.35      0.00
   -6  -15    9      0.10      0.00
   -6  -15    8      0.63      0.00
   -6  -15    7      0.10      0.00
   -6  -15    6     -0.13      0.00
   -6  -15    5     -1.10      0.00
   -6  -15    4      0.51      0.00
   -6  -15    3      0.25      0.00
   -6  -15    2     -0.04      0.00
   -6  -15    1      0.52      0.00
    6   15    0     -0.04      0.00
    6   15    1     -0.30      0.00
    6   15    2     -1.06      0.00
    6   15    3      0.64      0.00
    6   15    4      0.07      0.00
    6   15    5      0.68      0.00
    6   15    6      0.65      0.00
    6   15    7     -1.35      0.00
    6   15    8      0.07      0.00
    6   15    9     -0.94      0.00
    6   15   10      1.33      0.00
    6   15   11      0.02      0.00
    6   15   12     -0.51      0.00
    6   15   13      0.74      0.00
    6   15   14      0.08      0.00
    6   15   15      0.10      0.00
    6   15   16     -1.92      0.00
    6   15   17     -0.25      0.00
    6   15   18      2.27      0.00
    6   15   19      0.57      0.00
   -6  -16   14      0.22      0.00
   -6  -16   13     -0.10      0.00
   -6  -16   12     -0.18      0.00
   -6  -16   11     -0.57      0.00
   -6  -16   10      0.82      0.00
   -6  -16    9     -0.21      0.00
   -6  -16    8      0.22      0.00
   -6  -16    7     -0.35      0.00
   -6  -16    6      0.41      0.00
   -6  -16    5     -0.38      0.00
   -6  -16    4     -0.72      0.00
   -6  -16    3      0.67      0.00
   -6  -16    2      1.16      0.00
   -6  -16    1     -0.87      0.00
    6   16    0     -0.57      0.00
    6   16    1      0.08      0.00
    6   16    2      0.47      0.00
    6   16    3     -0.61      0.00
    6   16    4      1.04      0.00
    6   16    5     -0.63      0.00
    6   16    6      0.41      0.00
    6   16    7     -0.44      0.00
    6   16    8      0.19      0.00
    6   16    9     -0.32      0.00
    6   16   10     -0.89      0.00
    6   16   11      1.10      0.00
    6   16   12      1.03      0.00
    6   16   13      0.38      0.00
    6   16   14     -1.31      0.00
    6   16   15     -2.40      0.00
    6   16   16      1.72      0.00
    6   16   17      1.45      0.00
    6   16   18      0.01      0.00
    6   16   19     -0.59      0.00
   -6  -17   13     -0.64      0.00
   -6  -17   12      0.09      0.00
   -6  -17   11      0.30      0.00
   -6  -17   10      0.15      0.00
   -6  -17    8     -0.15      0.00
   -6  -17    7      0.26      0.00
   -6  -17    6     -0.59      0.00
   -6  -17    5     -0.26      0.00
   -6  -17    4      0.94      0.00
   -6  -17    3      0.14      0.00
   -6  -17    2     -0.15      0.00
   -6  -17    1     -0.29      0.00
    6   17    0     -0.42      0.00
    6   17    1     -0.38      0.00
    6   17    2      0.77      0.00
    6   17    3      0.58      0.00
    6   17    4      0.12      0.00
    6   17    5     -0.48      0.00
    6   17    6     -0.57      0.00
    6   17    7     -0.17      0.00
    6   17    8     -0.41      0.00
    6   17    9      1.24      0.00
    6   17   10      0.73      0.00
    6   17   11     -0.60      0.00
    6   17   12     -0.29      0.00
    6   17   13     -0.96      0.00
    6   17   14      0.53      0.00
    6   17   15      0.05      0.00
    6   17   16     -0.09      0.00
    6   17   17      1.27      0.00
    6   17   18     -0.16      0.00
   -6  -18   12     -0.11      0.00
   -6  -18   10     -0.16      0.00
   -6  -18    9      0.02      0.00
   -6  -18    8     -0.39      0.00
   -6  -18    6      0.23      0.00
   -6  -18    5      0.09      0.00
   -6  -18    4     -0.29      0.00
   -6  -18    3      0.95      0.00
   -6  -18    2     -0.96      0.00
   -6  -18    1     -0.23      0.00
    6   18    0     -0.06      0.00
    6   18    1      0.80      0.00
    6   18    2     -0.09      0.00
    6   18    3      0.34      0.00
    6   18    4     -0.71      0.00
    6   18    5     -0.12      0.00
    6   18    6     -0.54      0.00
    6   18    7      1.40      0.00
    6   18    8     -0.47      0.00
    6   18    9     -0.38      0.00
    6   18   10      0.19      0.00
    6   18   11      0.77      0.00
    6   18   12     -0.47      0.00
    6   18   13     -0.47      0.00
    6   18   14     -1.55      0.00
    6   18   16      1.34      0.00
    6   18   17     -0.65      0.00
    6   18   18     -1.49      0.00
   -6  -19    9     -0.48      0.00
   -6  -19    8      0.26      0.00
   -6  -19    7      0.23      0.00
   -6  -19    6     -0.36      0.00
   -6  -19    5      0.44      0.00
   -6  -19    4      0.31      0.00
   -6  -19    3     -0.59      0.00
   -6  -19    2     -0.14      0.00
   -6  -19    1     -0.45      0.00
    6   19    0      0.66      0.00
    6   19    1      0.28      0.00
    6   19    2      0.51      0.00
    6   19    3     -0.44      0.00
    6   19    4     -1.18      0.00
    6   19    5      0.31      0.00
    6   19    6      0.56      0.00
    6   19    7     -0.23      0.00
    6   19    8      0.81      0.00
    6   19    9     -0.02      0.00
    6   19   10     -0.35      0.00
    6   19   12     -0.16      0.00
    6   19   13      0.60      0.00
    6   19   14      1.20      0.00
    6   19   15     -0.52      0.00
   -6  -20    2      0.26      0.00
   -6  -20    1      0.17      0.00
    6   20    0      0.28      0.00
    6   20    1      0.08      0.00
    6   20    2     -0.41      0.00
    6   20    3     -0.34      0.00
    6   20    6      1.63      0.00
    6   20    7     -0.53      0.00
    6   20    8     -0.50      0.00
    6   21    2     -0.40      0.00
    7  -15    9      0.22      0.00
   -7   14    7     -0.26      0.00
   -7   14    5      0.11      0.00
   -7   14    4      0.59      0.00
   -7   14    3      0.58      0.00
   -7   14    2     -0.34      0.00
   -7   14    0     -0.08      0.00
    7  -14    1     -0.20      0.00
    7  -14    2     -0.18      0.00
    7  -14    3      0.25      0.00
    7  -14    4      0.11      0.00
    7  -14    5      0.49      0.00
    7  -14    7     -0.27      0.00
    7  -14    8     -0.17      0.00
    7  -14    9     -0.44      0.00
    7  -14   10      0.57      0.00
    7  -14   11      0.26      0.00
    7  -14   12      0.32      0.00
   -7   13   10      0.71      0.00
   -7   13    9     -0.91      0.00
   -7   13    8     -0.60      0.00
   -7   13    7      0.24      0.00
   -7   13    6      0.39      0.00
   -7   13    5     -0.15      0.00
   -7   13    4      0.04      0.00
   -7   13    3      0.59      0.00
   -7   13    2     -0.46      0.00
   -7   13    1     -0.11      0.00
   -7   13    0     -0.44      0.00
    7  -13    1      0.54      0.00
    7  -13    2     -0.50      0.00
    7  -13    3      0.64      0.00
    7  -13    4      0.23      0.00
    7  -13    5     -0.28      0.00
    7  -13    6     -0.18      0.00
    7  -13    7     -0.39      0.00
    7  -13    8      0.36      0.00
    7  -13    9     -0.15      0.00
    7  -13   10      0.13      0.00
    7  -13   11      0.70      0.00
    7  -13   12     -0.41      0.00
    7  -13   13     -0.54      0.00
    7  -13   14     -0.35      0.00
   -7   12   12      0.72      0.00
   -7   12   11     -1.08      0.00
   -7   12   10     -0.05      0.00
   -7   12    9      0.47      0.00
   -7   12    8     -0.19      0.00
   -7   12    7     -0.71      0.00
   -7   12    6      0.08      0.00
   -7   12    5      1.05      0.00
   -7   12    4      0.47      0.00
   -7   12    3     -0.83      0.00
   -7   12    2     -0.62      0.00
   -7   12    1     -0.04      0.00
   -7   12    0      0.69      0.00
    7  -12    1     -0.40      0.00
    7  -12    2      0.59      0.00
    7  -12    3     -0.26      0.00
    7  -12    4      0.32      0.00
    7  -12    5     -0.28      0.00
    7  -12    6     -0.51      0.00
    7  -12    7      0.18      0.00
    7  -12    8     -0.67      0.00
    7  -12    9      1.45      0.00
    7  -12   10      0.04      0.00
    7  -12   11      0.34      0.00
    7  -12   12     -1.74      0.00
    7  -12   13     -0.24      0.00
    7  -12   14      1.03      0.00
    7  -12   15      0.89      0.00
    7  -12   16     -0.90      0.00
    7  -12   17     -0.34      0.00
    7  -12   19      0.10      0.00
   -7   11   13     -0.55      0.00
   -7   11   12      0.01      0.00
   -7   11   11      1.25      0.00
   -7   11   10     -0.90      0.00
   -7   11    8     -0.25      0.00
   -7   11    7      1.55      0.00
   -7   11    6      0.38      0.00
   -7   11    5     -0.54      0.00
   -7   11    4     -0.55      0.00
   -7   11    3     -0.28      0.00
   -7   11    2      0.56      0.00
   -7   11    1     -0.30      0.00
   -7   11    0      0.27      0.00
    7  -11    1      0.10      0.00
    7  -11    2      0.19      0.00
    7  -11    3     -0.03      0.00
    7  -11    4     -0.52      0.00
    7  -11    5     -0.02      0.00
    7  -11    6     -0.11      0.00
    7  -11    7      0.13      0.00
    7  -11    8      0.68      0.00
    7  -11    9     -0.30      0.00
    7  -11   10      0.75      0.00
    7  -11   11     -1.52      0.00
    7  -11   12      0.03      0.00
    7  -11   13     -0.34      0.00
    7  -11   14      1.98      0.00
    7  -11   15     -0.37      0.00
    7  -11   16     -0.69      0.00
    7  -11   17     -1.10      0.00
    7  -11   18      1.19      0.00
   -7   10   13      1.22      0.00
   -7   10   12     -1.03      0.00
   -7   10   11     -0.74      0.00
   -7   10   10      0.26      0.00
   -7   10    9      0.19      0.00
   -7   10    8      0.29      0.00
   -7   10    7     -0.21      0.00
   -7   10    6      0.56      0.00
   -7   10    5     -0.18      0.00
   -7   10    4     -0.31      0.00
   -7   10    3     -0.56      0.00
   -7   10    2     -0.24      0.00
   -7   10    1      1.36      0.00
   -7   10    0     -0.15      0.00
    7  -10    1      0.01      0.00
    7  -10    2     -0.75      0.00
    7  -10    3      0.28      0.00
    7  -10    4      0.16      0.00
    7  -10    5     -0.58      0.00
    7  -10    6      0.41      0.00
    7  -10    7     -0.13      0.00
    7  -10    8      0.98      0.00
    7  -10    9     -0.34      0.00
    7  -10   10     -0.33      0.00
    7  -10   11     -0.97      0.00
    7  -10   12     -0.02      0.00
    7  -10   13      1.21      0.00
    7  -10   14      0.39      0.00
    7  -10   15     -0.35      0.00
    7  -10   16     -0.87      0.00
    7  -10   17      0.82      0.00
    7  -10   18     -0.70      0.00
    7  -10   19     -0.09      0.00
    7  -10   21      0.36      0.00
   -7    9   14     -0.52      0.00
   -7    9   13     -0.94      0.00
   -7    9   12      1.15      0.00
   -7    9   11     -0.10      0.00
   -7    9   10     -0.78      0.00
   -7    9    9     -0.60      0.00
   -7    9    8      1.55      0.00
   -7    9    7      0.56      0.00
   -7    9    6     -0.58      0.00
   -7    9    5     -1.23      0.00
   -7    9    4     -0.38      0.00
   -7    9    3      1.34      0.00
   -7    9    2      0.66      0.00
   -7    9    1     -0.87      0.00
   -7    9    0     -0.04      0.00
    7   -9    1      0.03      0.00
    7   -9    2      0.27      0.00
    7   -9    3     -0.77      0.00
    7   -9    4      0.13      0.00
    7   -9    5      0.70      0.00
    7   -9    6     -0.24      0.00
    7   -9    7      0.65      0.00
    7   -9    8     -1.00      0.00
    7   -9    9      0.62      0.00
    7   -9   10     -1.23      0.00
    7   -9   11      0.67      0.00
    7   -9   12     -0.24      0.00
    7   -9   13      1.71      0.00
    7   -9   14     -0.68      0.00
    7   -9   15     -0.73      0.00
    7   -9   16     -0.92      0.00
    7   -9   17      0.71      0.00
    7   -9   18      1.26      0.00
    7   -9   19     -0.65      0.00
    7   -9   21      0.06      0.00
   -7    8   15     -0.15      0.00
   -7    8   14      0.81      0.00
   -7    8   13     -0.34      0.00
   -7    8   12     -0.66      0.00
   -7    8   11     -0.24      0.00
   -7    8   10      0.44      0.00
   -7    8    9      0.80      0.00
   -7    8    8     -0.17      0.00
   -7    8    7     -0.22      0.00
   -7    8    6     -0.94      0.00
   -7    8    5      0.66      0.00
   -7    8    4      0.36      0.00
   -7    8    3     -0.65      0.00
   -7    8    2      0.37      0.00
   -7    8    1      0.57      0.00
   -7    8    0     -0.14      0.00
    7   -8    1     -1.11      0.00
    7   -8    2     -0.03      0.00
    7   -8    3      1.26      0.00
    7   -8    4     -0.40      0.00
    7   -8    5     -0.36      0.00
    7   -8    6      0.36      0.00
    7   -8    7      0.31      0.00
    7   -8    8     -0.27      0.00
    7   -8    9     -1.07      0.00
    7   -8   10      0.61      0.00
    7   -8   11      0.17      0.00
    7   -8   12      1.00      0.00
    7   -8   13     -0.91      0.00
    7   -8   14      0.14      0.00
    7   -8   15     -0.53      0.00
    7   -8   16      0.74      0.00
    7   -8   17     -0.64      0.00
    7   -8   18     -0.54      0.00
    7   -8   19      1.37      0.00
    7   -8   20      0.14      0.00
    7   -8   21     -0.45      0.00
   -7    7   15     -0.48      0.00
   -7    7   14     -1.00      0.00
   -7    7   13      0.50      0.00
   -7    7   12      0.72      0.00
   -7    7   11     -0.41      0.00
   -7    7   10     -0.58      0.00
   -7    7    9      0.81      0.00
   -7    7    8      0.06      0.00
   -7    7    7     -0.03      0.00
   -7    7    6     -0.59      0.00
   -7    7    5     -0.58      0.00
   -7    7    4      0.69      0.00
   -7    7    3      1.46      0.00
   -7    7    2     -1.09      0.00
   -7    7    1     -0.71      0.00
   -7    7    0     -0.21      0.00
    7   -7    1      1.33      0.00
    7   -7    2     -0.62      0.00
    7   -7    3     -0.36      0.00
    7   -7    4      0.75      0.00
    7   -7    5     -0.03      0.00
    7   -7    6      0.05      0.00
    7   -7    7     -1.08      0.00
    7   -7    8      0.32      0.00
    7   -7    9      0.13      0.00
    7   -7   10      0.63      0.00
    7   -7   11     -0.11      0.00
    7   -7   12      0.14      0.00
    7   -7   13     -0.14      0.00
    7   -7   14     -0.92      0.00
    7   -7   15      0.13      0.00
    7   -7   16      0.17      0.00
    7   -7   17      1.22      0.00
    7   -7   18     -0.09      0.00
    7   -7   19     -1.51      0.00
    7   -7   20      0.38      0.00
    7   -7   21      0.07      0.00
   -7    6   15      0.14      0.00
   -7    6   14      0.03      0.00
   -7    6   13      0.06      0.00
   -7    6   12     -0.78      0.00
   -7    6   11      0.62      0.00
   -7    6   10      0.42      0.00
   -7    6    9      0.23      0.00
   -7    6    8     -0.53      0.00
   -7    6    7     -1.11      0.00
   -7    6    6      0.80      0.00
   -7    6    5      1.10      0.00
   -7    6    4     -0.48      0.00
   -7    6    3     -1.36      0.00
   -7    6    2      0.91      0.00
   -7    6    1      0.74      0.00
   -7    6    0     -0.55      0.00
    7   -6    1     -1.36      0.00
    7   -6    2      1.82      0.00
    7   -6    3      0.11      0.00
    7   -6    4     -0.97      0.00
    7   -6    5     -0.17      0.00
    7   -6    6      0.61      0.00
    7   -6    7      0.20      0.00
    7   -6    8     -1.23      0.00
    7   -6    9      0.87      0.00
    7   -6   10      0.42      0.00
    7   -6   11      0.53      0.00
    7   -6   12     -1.49      0.00
    7   -6   13     -0.20      0.00
    7   -6   14      0.78      0.00
    7   -6   15      0.39      0.00
    7   -6   16      0.10      0.00
    7   -6   17     -1.76      0.00
    7   -6   18      1.46      0.00
    7   -6   19      0.39      0.00
    7   -6   20     -0.47      0.00
    7   -6   21     -0.41      0.00
   -7    5   15     -0.43      0.00
   -7    5   14     -0.04      0.00
   -7    5   13      0.75      0.00
   -7    5   12      0.01      0.00
   -7    5   11     -0.31      0.00
   -7    5   10      0.36      0.00
   -7    5    9     -0.81      0.00
   -7    5    8      0.45      0.00
   -7    5    7      0.45      0.00
   -7    5    6     -0.41      0.00
   -7    5    5     -0.81      0.00
   -7    5    4      1.20      0.00
   -7    5    3      0.17      0.00
   -7    5    2     -0.75      0.00
   -7    5    1     -0.82      0.00
   -7    5    0      1.47      0.00
    7   -5    1      0.25      0.00
    7   -5    2     -1.07      0.00
    7   -5    3      0.08      0.00
    7   -5    4      0.40      0.00
    7   -5    5      0.25      0.00
    7   -5    6     -0.96      0.00
    7   -5    7      0.05      0.00
    7   -5    8      0.81      0.00
    7   -5    9      0.42      0.00
    7   -5   10     -0.29      0.00
    7   -5   11     -0.99      0.00
    7   -5   12      0.43      0.00
    7   -5   13     -0.43      0.00
    7   -5   14      0.79      0.00
    7   -5   15      0.11      0.00
    7   -5   16     -0.22      0.00
    7   -5   17      0.62      0.00
    7   -5   18     -1.95      0.00
    7   -5   19      1.31      0.00
    7   -5   20     -0.44      0.00
    7   -5   21      1.51      0.00
   -7    4   16      0.10      0.00
   -7    4   15     -0.26      0.00
   -7    4   14      0.54      0.00
   -7    4   13     -0.87      0.00
   -7    4   12      0.90      0.00
   -7    4   11     -0.25      0.00
   -7    4   10      0.42      0.00
   -7    4    9     -0.49      0.00
   -7    4    8     -0.59      0.00
   -7    4    7      0.13      0.00
   -7    4    6      1.00      0.00
   -7    4    5      0.25      0.00
   -7    4    4     -1.76      0.00
   -7    4    3      0.35      0.00
   -7    4    2      1.34      0.00
   -7    4    1      0.44      0.00
   -7    4    0     -2.42      0.00
    7   -4    1      0.98      0.00
    7   -4    2      0.96      0.00
    7   -4    3     -0.51      0.00
    7   -4    4     -0.98      0.00
    7   -4    5      0.77      0.00
    7   -4    6      0.85      0.00
    7   -4    7     -1.05      0.00
    7   -4    8     -0.02      0.00
    7   -4    9      0.28      0.00
    7   -4   10      0.69      0.00
    7   -4   11     -0.95      0.00
    7   -4   12     -0.71      0.00
    7   -4   13      1.28      0.00
    7   -4   14      0.16      0.00
    7   -4   15      0.32      0.00
    7   -4   16     -2.03      0.00
    7   -4   17      0.69      0.00
    7   -4   18      1.46      0.00
    7   -4   19     -0.74      0.00
    7   -4   20      0.26      0.00
    7   -4   21     -1.43      0.00
    7   -4   22      1.28      0.00
   -7    3   16     -0.33      0.00
   -7    3   15      0.09      0.00
   -7    3   14      0.13      0.00
   -7    3   13      0.49      0.00
   -7    3   12     -0.16      0.00
   -7    3   11      0.48      0.00
   -7    3   10     -1.72      0.00
   -7    3    9      0.59      0.00
   -7    3    8      0.90      0.00
   -7    3    7      0.31      0.00
   -7    3    6     -1.80      0.00
   -7    3    5      0.54      0.00
   -7    3    4      1.32      0.00
   -7    3    3     -0.23      0.00
   -7    3    2     -1.45      0.00
   -7    3    1      0.42      0.00
   -7    3    0      1.32      0.00
    7   -3    1     -0.92      0.00
    7   -3    2     -0.65      0.00
    7   -3    3      0.41      0.00
    7   -3    4      0.99      0.00
    7   -3    5     -0.74      0.00
    7   -3    6     -0.48      0.00
    7   -3    7      0.54      0.00
    7   -3    8      0.41      0.00
    7   -3    9     -0.16      0.00
    7   -3   10     -1.05      0.00
    7   -3   11      0.59      0.00
    7   -3   12     -0.01      0.00
    7   -3   13      0.62      0.00
    7   -3   14      0.13      0.00
    7   -3   15     -1.23      0.00
    7   -3   16      0.85      0.00
    7   -3   17     -0.96      0.00
    7   -3   18      1.40      0.00
    7   -3   19     -0.64      0.00
    7   -3   20      0.19      0.00
    7   -3   21      0.06      0.00
    7   -3   22     -0.89      0.00
   -7    2   16     -0.35      0.00
   -7    2   15      0.17      0.00
   -7    2   14     -0.27      0.00
   -7    2   13      0.90      0.00
   -7    2   12     -0.46      0.00
   -7    2   11     -0.13      0.00
   -7    2   10     -0.19      0.00
   -7    2    9      0.04      0.00
   -7    2    8     -0.32      0.00
   -7    2    7      0.37      0.00
   -7    2    6      1.04      0.00
   -7    2    5     -1.02      0.00
   -7    2    4     -0.61      0.00
   -7    2    3      0.75      0.00
   -7    2    2      1.07      0.00
   -7    2    1     -1.77      0.00
   -7    2    0     -0.38      0.00
    7   -2    1      1.44      0.00
    7   -2    2      0.27      0.00
    7   -2    3     -1.15      0.00
    7   -2    4      0.08      0.00
    7   -2    5      1.15      0.00
    7   -2    6     -0.62      0.00
    7   -2    7     -0.77      0.00
    7   -2    8      0.03      0.00
    7   -2    9      1.24      0.00
    7   -2   10     -0.06      0.00
    7   -2   11     -1.24      0.00
    7   -2   12      0.48      0.00
    7   -2   13      0.27      0.00
    7   -2   14      0.43      0.00
    7   -2   15     -1.12      0.00
    7   -2   16      0.00      0.00
    7   -2   17      1.73      0.00
    7   -2   18     -1.17      0.00
    7   -2   19      0.27      0.00
    7   -2   20     -1.16      0.00
    7   -2   21      0.87      0.00
    7   -2   22      0.03      0.00
   -7    1   16      0.45      0.00
   -7    1   15     -0.19      0.00
   -7    1   14      0.65      0.00
   -7    1   13     -0.30      0.00
   -7    1   12      0.67      0.00
   -7    1   11     -1.92      0.00
   -7    1   10      0.40      0.00
   -7    1    9      0.79      0.00
   -7    1    8      1.22      0.00
   -7    1    7     -1.88      0.00
   -7    1    6     -0.11      0.00
   -7    1    5      1.32      0.00
   -7    1    4      0.08      0.00
   -7    1    3     -1.40      0.00
   -7    1    2     -0.36      0.00
   -7    1    1      1.86      0.00
   -7    1    0     -0.14      0.00
    7   -1    1     -1.39      0.00
    7   -1    2      0.06      0.00
    7   -1    3      1.40      0.00
    7   -1    4     -0.14      0.00
    7   -1    5     -1.19      0.00
    7   -1    6      0.10      0.00
    7   -1    7      0.75      0.00
    7   -1    8      0.32      0.00
    7   -1    9     -0.92      0.00
    7   -1   10      0.10      0.00
    7   -1   11      0.10      0.00
    7   -1   12      0.40      0.00
    7   -1   13      0.17      0.00
    7   -1   14     -0.96      0.00
    7   -1   15      0.45      0.00
    7   -1   16      0.10      0.00
    7   -1   17      0.49      0.00
    7   -1   18     -0.20      0.00
    7   -1   19     -1.32      0.00
    7   -1   20      1.15      0.00
    7   -1   21     -0.11      0.00
    7   -1   22      0.02      0.00
   -7    0   16     -0.46      0.00
   -7    0   15      0.36      0.00
   -7    0   14      0.31      0.00
   -7    0   13     -0.05      0.00
   -7    0   12     -0.84      0.00
   -7    0   11      0.25      0.00
   -7    0   10      0.35      0.00
   -7    0    9     -0.14      0.00
   -7    0    8     -0.47      0.00
   -7    0    7      1.55      0.00
   -7    0    6     -0.48      0.00
   -7    0    5     -1.24      0.00
   -7    0    4     -0.12      0.00
   -7    0    3      1.42      0.00
   -7    0    2     -0.08      0.00
   -7    0    1     -1.46      0.00
    7    0    0      0.92      0.00
    7    0    1      0.78      0.00
    7    0    2     -0.67      0.00
    7    0    3     -0.74      0.00
    7    0    4      0.85      0.00
    7    0    5      0.22      0.00
    7    0    6     -0.83      0.00
    7    0    7     -0.29      0.00
    7    0    8      1.20      0.00
    7    0    9      0.49      0.00
    7    0   10     -1.44      0.00
    7    0   11     -0.35      0.00
    7    0   12      0.61      0.00
    7    0   13      0.82      0.00
    7    0   14     -0.54      0.00
    7    0   15     -0.28      0.00
    7    0   16      0.90      0.00
    7    0   17     -0.98      0.00
    7    0   18     -0.45      0.00
    7    0   19      0.61      0.00
    7    0   20      0.10      0.00
    7    0   21      0.51      0.00
    7    0   22     -0.40      0.00
   -7   -1   16      0.08      0.00
   -7   -1   15      0.22      0.00
   -7   -1   14     -0.36      0.00
   -7   -1   13      0.51      0.00
   -7   -1   12     -0.98      0.00
   -7   -1   11      0.00      0.00
   -7   -1   10      0.27      0.00
   -7   -1    9      1.66      0.00
   -7   -1    8     -1.14      0.00
   -7   -1    7     -0.94      0.00
   -7   -1    6      0.67      0.00
   -7   -1    5      0.26      0.00
   -7   -1    4     -0.34      0.00
   -7   -1    3     -0.58      0.00
   -7   -1    2      1.26      0.00
   -7   -1    1      0.42      0.00
    7    1    0     -1.63      0.00
    7    1    1     -0.28      0.00
    7    1    2      1.39      0.00
    7    1    3      0.60      0.00
    7    1    4     -1.45      0.00
    7    1    5     -0.52      0.00
    7    1    6      1.12      0.00
    7    1    7      0.67      0.00
    7    1    8     -0.99      0.00
    7    1    9     -0.60      0.00
    7    1   10      0.55      0.00
    7    1   11      0.63      0.00
    7    1   12     -0.08      0.00
    7    1   13     -0.78      0.00
    7    1   14      0.36      0.00
    7    1   15      0.35      0.00
    7    1   16     -0.37      0.00
    7    1   17      0.21      0.00
    7    1   18     -1.16      0.00
    7    1   19      0.89      0.00
    7    1   20      0.88      0.00
    7    1   21     -0.15      0.00
    7    1   22     -0.74      0.00
   -7   -2   16      0.34      0.00
   -7   -2   15     -0.36      0.00
   -7   -2   14      0.41      0.00
   -7   -2   13     -0.62      0.00
   -7   -2   12      0.29      0.00
   -7   -2   11      0.20      0.00
   -7   -2   10      0.23      0.00
   -7   -2    9     -1.05      0.00
   -7   -2    8      1.54      0.00
   -7   -2    7     -0.28      0.00
   -7   -2    6     -1.21      0.00
   -7   -2    5     -0.34      0.00
   -7   -2    4      1.36      0.00
   -7   -2    3      0.98      0.00
   -7   -2    2     -2.07      0.00
   -7   -2    1      0.03      0.00
    7    2    0      1.26      0.00
    7    2    1      0.20      0.00
    7    2    2     -1.33      0.00
    7    2    3      0.07      0.00
    7    2    4      0.96      0.00
    7    2    5     -0.09      0.00
    7    2    6     -1.02      0.00
    7    2    7      0.58      0.00
    7    2    8      0.84      0.00
    7    2    9     -0.70      0.00
    7    2   10     -0.86      0.00
    7    2   11      0.42      0.00
    7    2   12      1.14      0.00
    7    2   13     -0.33      0.00
    7    2   14     -0.49      0.00
    7    2   15      0.04      0.00
    7    2   16     -0.27      0.00
    7    2   17     -1.01      0.00
    7    2   18      1.93      0.00
    7    2   19     -0.06      0.00
    7    2   20      0.35      0.00
    7    2   21     -1.36      0.00
    7    2   22      0.31      0.00
   -7   -3   16     -0.26      0.00
   -7   -3   15     -0.09      0.00
   -7   -3   14      0.17      0.00
   -7   -3   13      0.10      0.00
   -7   -3   12     -0.20      0.00
   -7   -3   11     -0.43      0.00
   -7   -3   10      1.31      0.00
   -7   -3    9     -0.03      0.00
   -7   -3    8     -1.41      0.00
   -7   -3    7      0.01      0.00
   -7   -3    6      0.47      0.00
   -7   -3    5      0.93      0.00
   -7   -3    4     -0.75      0.00
   -7   -3    3     -0.32      0.00
   -7   -3    2      0.71      0.00
    7    3    0     -0.38      0.00
    7    3    1      0.58      0.00
    7    3    2      0.88      0.00
    7    3    3     -0.85      0.00
    7    3    4     -1.06      0.00
    7    3    5      0.72      0.00
    7    3    6      1.20      0.00
    7    3    7     -0.77      0.00
    7    3    8     -0.99      0.00
    7    3    9      0.58      0.00
    7    3   10      1.06      0.00
    7    3   11     -0.32      0.00
    7    3   12     -1.27      0.00
    7    3   13      0.79      0.00
    7    3   14      0.34      0.00
    7    3   15     -0.73      0.00
    7    3   16     -0.04      0.00
    7    3   17      0.53      0.00
    7    3   18     -0.04      0.00
    7    3   19      0.79      0.00
    7    3   20     -0.59      0.00
    7    3   21     -0.37      0.00
    7    3   22     -1.24      0.00
   -7   -4   16     -0.46      0.00
   -7   -4   15      0.24      0.00
   -7   -4   14      0.27      0.00
   -7   -4   13     -0.01      0.00
   -7   -4   12     -0.14      0.00
   -7   -4   11      0.30      0.00
   -7   -4   10     -0.98      0.00
   -7   -4    9      1.15      0.00
   -7   -4    8     -0.08      0.00
   -7   -4    7     -0.73      0.00
   -7   -4    6     -0.24      0.00
   -7   -4    5      0.72      0.00
   -7   -4    4      0.92      0.00
   -7   -4    3     -1.66      0.00
   -7   -4    2     -0.24      0.00
   -7   -4    1      1.42      0.00
    7    4    0      0.62      0.00
    7    4    1     -1.62      0.00
    7    4    2     -0.72      0.00
    7    4    3      1.15      0.00
    7    4    4      1.10      0.00
    7    4    5     -1.28      0.00
    7    4    6     -0.49      0.00
    7    4    7      0.94      0.00
    7    4    8      0.31      0.00
    7    4    9     -0.87      0.00
    7    4   10     -0.44      0.00
    7    4   11      1.22      0.00
    7    4   12      0.30      0.00
    7    4   13     -1.06      0.00
    7    4   14     -0.47      0.00
    7    4   15      0.55      0.00
    7    4   16     -0.38      0.00
    7    4   17      1.50      0.00
    7    4   18     -0.12      0.00
    7    4   19     -0.19      0.00
    7    4   20     -1.79      0.00
    7    4   21      0.38      0.00
    7    4   22      0.56      0.00
   -7   -5   16      0.06      0.00
   -7   -5   15     -0.04      0.00
   -7   -5   14      0.42      0.00
   -7   -5   13      0.09      0.00
   -7   -5   12     -0.77      0.00
   -7   -5   11      0.50      0.00
   -7   -5   10      0.52      0.00
   -7   -5    9     -0.93      0.00
   -7   -5    8     -0.28      0.00
   -7   -5    7      0.32      0.00
   -7   -5    6      1.31      0.00
   -7   -5    5     -0.69      0.00
   -7   -5    4     -1.31      0.00
   -7   -5    3      0.75      0.00
   -7   -5    2      0.91      0.00
   -7   -5    1     -0.40      0.00
    7    5    0     -0.80      0.00
    7    5    1      0.50      0.00
    7    5    2      0.44      0.00
    7    5    3     -0.75      0.00
    7    5    4     -0.35      0.00
    7    5    5      1.31      0.00
    7    5    6      0.01      0.00
    7    5    7     -1.14      0.00
    7    5    8     -0.11      0.00
    7    5    9      1.14      0.00
    7    5   10      0.47      0.00
    7    5   11     -1.93      0.00
    7    5   12      0.54      0.00
    7    5   13      0.56      0.00
    7    5   14     -0.20      0.00
    7    5   15     -0.44      0.00
    7    5   16      1.55      0.00
    7    5   17     -0.78      0.00
    7    5   18     -0.16      0.00
    7    5   19     -1.16      0.00
    7    5   20      1.25      0.00
    7    5   21     -1.08      0.00
    7    5   22      1.14      0.00
   -7   -6   16     -0.28      0.00
   -7   -6   15      0.81      0.00
   -7   -6   14     -0.03      0.00
   -7   -6   13     -0.15      0.00
   -7   -6   12     -0.18      0.00
   -7   -6   11     -0.64      0.00
   -7   -6   10      0.77      0.00
   -7   -6    9      0.32      0.00
   -7   -6    8     -0.37      0.00
   -7   -6    7     -0.40      0.00
   -7   -6    6      0.10      0.00
   -7   -6    5      0.67      0.00
   -7   -6    4     -0.58      0.00
   -7   -6    3     -0.07      0.00
   -7   -6    2      0.69      0.00
   -7   -6    1      0.26      0.00
    7    6    0     -1.18      0.00
    7    6    1     -0.72      0.00
    7    6    2      0.87      0.00
    7    6    3      1.58      0.00
    7    6    4     -0.56      0.00
    7    6    5     -1.50      0.00
    7    6    6      0.26      0.00
    7    6    7      0.90      0.00
    7    6    8      0.00      0.00
    7    6    9     -0.79      0.00
    7    6   10      0.27      0.00
    7    6   11      1.07      0.00
    7    6   12     -1.54      0.00
    7    6   13     -0.26      0.00
    7    6   14      0.99      0.00
    7    6   15      0.79      0.00
    7    6   16     -0.34      0.00
    7    6   17     -0.69      0.00
    7    6   18     -0.17      0.00
    7    6   19     -0.51      0.00
    7    6   20      0.09      0.00
    7    6   21      1.35      0.00
    7    6   22      0.08      0.00
   -7   -7   16      0.03      0.00
   -7   -7   15      0.36      0.00
   -7   -7   14      0.46      0.00
   -7   -7   13     -0.81      0.00
   -7   -7   12     -0.18      0.00
   -7   -7   11      0.25      0.00
   -7   -7   10      0.12      0.00
   -7   -7    9     -0.26      0.00
   -7   -7    8      0.03      0.00
   -7   -7    7      0.76      0.00
   -7   -7    6     -0.23      0.00
   -7   -7    5     -1.10      0.00
   -7   -7    4      0.48      0.00
   -7   -7    3      1.08      0.00
   -7   -7    2     -0.36      0.00
   -7   -7    1     -1.26      0.00
    7    7    0      0.18      0.00
    7    7    1      1.25      0.00
    7    7    2     -0.11      0.00
    7    7    3     -0.98      0.00
    7    7    4      0.30      0.00
    7    7    5      0.82      0.00
    7    7    6     -0.72      0.00
    7    7    7     -0.45      0.00
    7    7    8      0.42      0.00
    7    7    9      1.31      0.00
    7    7   10     -1.68      0.00
    7    7   11     -0.64      0.00
    7    7   12      1.14      0.00
    7    7   13      0.64      0.00
    7    7   14     -0.27      0.00
    7    7   15      0.26      0.00
    7    7   16     -0.88      0.00
    7    7   17     -0.42      0.00
    7    7   18     -0.78      0.00
    7    7   19      2.35      0.00
    7    7   20     -0.46      0.00
    7    7   21      0.02      0.00
    7    7   22     -0.64      0.00
   -7   -8   16      0.78      0.00
   -7   -8   15      0.00      0.00
   -7   -8   14      0.00      0.00
   -7   -8   13     -0.74      0.00
   -7   -8   12     -0.32      0.00
   -7   -8   11      0.51      0.00
   -7   -8   10      0.76      0.00
   -7   -8    9     -0.24      0.00
   -7   -8    8     -0.72      0.00
   -7   -8    7     -0.09      0.00
   -7   -8    6      0.75      0.00
   -7   -8    5      0.06      0.00
   -7   -8    4     -0.31      0.00
   -7   -8    3     -0.15      0.00
   -7   -8    2      0.13      0.00
   -7   -8    1     -0.19      0.00
    7    8    0     -0.32      0.00
    7    8    1      0.27      0.00
    7    8    2      1.06      0.00
    7    8    3      0.12      0.00
    7    8    4     -1.39      0.00
    7    8    5     -0.71      0.00
    7    8    6      1.06      0.00
    7    8    7      0.85      0.00
    7    8    8     -0.22      0.00
    7    8    9     -1.28      0.00
    7    8   10      1.14      0.00
    7    8   11     -0.99      0.00
    7    8   12      0.30      0.00
    7    8   13      0.78      0.00
    7    8   14      0.85      0.00
    7    8   15     -1.52      0.00
    7    8   16     -1.12      0.00
    7    8   17      0.73      0.00
    7    8   18      1.16      0.00
    7    8   19     -0.66      0.00
    7    8   20      0.88      0.00
    7    8   21     -0.60      0.00
   -7   -9   15      0.35      0.00
   -7   -9   14     -0.83      0.00
   -7   -9   13     -0.21      0.00
   -7   -9   12     -0.15      0.00
   -7   -9   11      0.98      0.00
   -7   -9   10     -0.42      0.00
   -7   -9    9      0.11      0.00
   -7   -9    8      0.06      0.00
   -7   -9    7      0.33      0.00
   -7   -9    6     -1.05      0.00
   -7   -9    5      0.28      0.00
   -7   -9    4      0.48      0.00
   -7   -9    3      0.12      0.00
   -7   -9    2     -0.85      0.00
   -7   -9    1      0.23      0.00
    7    9    0      0.87      0.00
    7    9    1     -0.07      0.00
    7    9    2     -0.73      0.00
    7    9    3     -0.43      0.00
    7    9    4      0.76      0.00
    7    9    5      0.27      0.00
    7    9    6     -0.29      0.00
    7    9    7     -0.43      0.00
    7    9    8      0.59      0.00
    7    9    9     -0.11      0.00
    7    9   10     -1.17      0.00
    7    9   11      1.26      0.00
    7    9   12      0.43      0.00
    7    9   13      0.25      0.00
    7    9   14     -1.35      0.00
    7    9   15     -0.33      0.00
    7    9   16      0.07      0.00
    7    9   17      0.16      0.00
    7    9   18      1.75      0.00
    7    9   19     -0.22      0.00
    7    9   20     -1.01      0.00
    7    9   21     -0.89      0.00
   -7  -10   15     -0.15      0.00
   -7  -10   14     -0.55      0.00
   -7  -10   13      0.10      0.00
   -7  -10   12      0.30      0.00
   -7  -10   11      0.58      0.00
   -7  -10   10      0.03      0.00
   -7  -10    9     -0.77      0.00
   -7  -10    8     -0.06      0.00
   -7  -10    7      0.40      0.00
   -7  -10    6      0.41      0.00
   -7  -10    5     -0.82      0.00
   -7  -10    4     -0.06      0.00
   -7  -10    3      0.35      0.00
   -7  -10    2      0.66      0.00
   -7  -10    1     -0.77      0.00
    7   10    0     -0.28      0.00
    7   10    1      0.76      0.00
    7   10    2      0.37      0.00
    7   10    3     -0.81      0.00
    7   10    4     -0.91      0.00
    7   10    5      0.75      0.00
    7   10    6      1.04      0.00
    7   10    7     -0.03      0.00
    7   10    8     -1.20      0.00
    7   10    9      0.08      0.00
    7   10   10      0.22      0.00
    7   10   11      0.09      0.00
    7   10   12      0.76      0.00
    7   10   13      0.09      0.00
    7   10   14     -1.13      0.00
    7   10   15     -1.33      0.00
    7   10   16      1.52      0.00
    7   10   17      1.52      0.00
    7   10   18     -0.94      0.00
    7   10   19     -0.30      0.00
    7   10   20     -0.60      0.00
    7   10   21      0.25      0.00
   -7  -11   15     -0.47      0.00
   -7  -11   14      0.15      0.00
   -7  -11   13     -0.29      0.00
   -7  -11   12      1.03      0.00
   -7  -11   11     -0.58      0.00
   -7  -11   10      0.32      0.00
   -7  -11    9     -0.29      0.00
   -7  -11    8      0.66      0.00
   -7  -11    7     -1.43      0.00
   -7  -11    6      0.12      0.00
   -7  -11    5      0.62      0.00
   -7  -11    4      0.86      0.00
   -7  -11    3     -0.79      0.00
   -7  -11    2     -0.30      0.00
   -7  -11    1      0.48      0.00
    7   11    0     -0.04      0.00
    7   11    1     -0.43      0.00
    7   11    2     -0.18      0.00
    7   11    3      0.18      0.00
    7   11    4      0.93      0.00
    7   11    5     -0.17      0.00
    7   11    6     -0.67      0.00
    7   11    7     -0.63      0.00
    7   11    8      0.82      0.00
    7   11    9      0.07      0.00
    7   11   10      0.18      0.00
    7   11   11      0.00      0.00
    7   11   12      0.12      0.00
    7   11   13     -0.91      0.00
    7   11   14     -0.12      0.00
    7   11   15      0.19      0.00
    7   11   16      0.56      0.00
    7   11   17      0.95      0.00
    7   11   18     -0.19      0.00
    7   11   19     -1.38      0.00
    7   11   20     -0.70      0.00
    7   11   21      0.65      0.00
   -7  -12   15      0.04      0.00
   -7  -12   14      0.26      0.00
   -7  -12   13      0.13      0.00
   -7  -12   12     -0.04      0.00
   -7  -12   11      0.26      0.00
   -7  -12   10     -0.40      0.00
   -7  -12    9      0.07      0.00
   -7  -12    8     -0.56      0.00
   -7  -12    7      0.82      0.00
   -7  -12    6     -0.71      0.00
   -7  -12    5      0.48      0.00
   -7  -12    4      0.02      0.00
   -7  -12    3      0.92      0.00
   -7  -12    2     -1.35      0.00
   -7  -12    1     -0.62      0.00
    7   12    0      1.07      0.00
    7   12    1      0.74      0.00
    7   12    2     -0.97      0.00
    7   12    3     -0.53      0.00
    7   12    4      0.39      0.00
    7   12    5      1.12      0.00
    7   12    6     -0.90      0.00
    7   12    7      0.25      0.00
    7   12    8     -0.96      0.00
    7   12    9      0.75      0.00
    7   12   10     -0.21      0.00
    7   12   11      0.91      0.00
    7   12   12      0.04      0.00
    7   12   13     -1.16      0.00
    7   12   14     -1.32      0.00
    7   12   15      1.66      0.00
    7   12   16      1.64      0.00
    7   12   17     -0.62      0.00
    7   12   18     -1.62      0.00
    7   12   19     -0.21      0.00
    7   12   20      0.61      0.00
   -7  -13   14     -0.26      0.00
   -7  -13   13      0.46      0.00
   -7  -13   12     -0.19      0.00
   -7  -13   11      0.34      0.00
   -7  -13   10     -0.53      0.00
   -7  -13    9      0.55      0.00
   -7  -13    8     -1.08      0.00
   -7  -13    7     -0.16      0.00
   -7  -13    6      0.96      0.00
   -7  -13    5      1.23      0.00
   -7  -13    4     -0.79      0.00
   -7  -13    3     -1.47      0.00
   -7  -13    2      0.46      0.00
   -7  -13    1      0.82      0.00
    7   13    0     -0.47      0.00
    7   13    1     -0.12      0.00
    7   13    2      0.06      0.00
    7   13    3      0.98      0.00
    7   13    4     -0.32      0.00
    7   13    5     -0.76      0.00
    7   13    6     -0.63      0.00
    7   13    7      0.09      0.00
    7   13    8      1.99      0.00
    7   13    9     -0.87      0.00
    7   13   10      0.25      0.00
    7   13   11     -1.10      0.00
    7   13   12      0.11      0.00
    7   13   13      0.04      0.00
    7   13   14      0.16      0.00
    7   13   15      0.80      0.00
    7   13   16      0.33      0.00
    7   13   17     -0.29      0.00
    7   13   18     -1.45      0.00
    7   13   19     -0.57      0.00
    7   13   20      1.43      0.00
   -7  -14   14      0.11      0.00
   -7  -14   13      0.06      0.00
   -7  -14   12      0.07      0.00
   -7  -14   11     -0.23      0.00
   -7  -14   10      0.19      0.00
   -7  -14    9     -0.91      0.00
   -7  -14    8      0.81      0.00
   -7  -14    7     -0.10      0.00
   -7  -14    6      0.72      0.00
   -7  -14    5     -0.63      0.00
   -7  -14    4      0.44      0.00
   -7  -14    3     -0.89      0.00
   -7  -14    2     -0.62      0.00
   -7  -14    1      0.94      0.00
    7   14    0      1.37      0.00
    7   14    1     -1.19      0.00
    7   14    2     -0.56      0.00
    7   14    3      0.07      0.00
    7   14    4      1.25      0.00
    7   14    5     -1.45      0.00
    7   14    6      0.95      0.00
    7   14    7     -0.66      0.00
    7   14    8      0.30      0.00
    7   14    9      0.14      0.00
    7   14   10      0.22      0.00
    7   14   11      0.63      0.00
    7   14   12     -1.98      0.00
    7   14   13     -0.47      0.00
    7   14   14      1.62      0.00
    7   14   15      1.81      0.00
    7   14   16     -0.63      0.00
    7   14   17     -3.03      0.00
    7   14   18      0.43      0.00
    7   14   19      1.46      0.00
   -7  -15   13      0.23      0.00
   -7  -15   11     -0.85      0.00
   -7  -15   10      0.23      0.00
   -7  -15    9     -0.11      0.00
   -7  -15    8     -0.03      0.00
   -7  -15    7      0.48      0.00
   -7  -15    6      0.83      0.00
   -7  -15    5     -0.31      0.00
   -7  -15    4     -1.78      0.00
   -7  -15    3     -0.16      0.00
   -7  -15    2      1.83      0.00
   -7  -15    1     -0.05      0.00
    7   15    0     -0.58      0.00
    7   15    1     -0.05      0.00
    7   15    2      0.68      0.00
    7   15    3     -0.58      0.00
    7   15    4     -0.67      0.00
    7   15    5      0.30      0.00
    7   15    6     -0.44      0.00
    7   15    7      2.15      0.00
    7   15    8     -0.75      0.00
    7   15    9      0.17      0.00
    7   15   10     -2.11      0.00
    7   15   11      0.13      0.00
    7   15   12      1.29      0.00
    7   15   13      0.44      0.00
    7   15   14      0.87      0.00
    7   15   15     -1.22      0.00
    7   15   16     -0.62      0.00
    7   15   17     -0.53      0.00
    7   15   18     -0.01      0.00
   -7  -16   12     -0.62      0.00
   -7  -16   11      0.17      0.00
   -7  -16   10     -0.21      0.00
   -7  -16    9      0.64      0.00
   -7  -16    8     -0.10      0.00
   -7  -16    7      0.57      0.00
   -7  -16    6     -0.75      0.00
   -7  -16    5     -0.27      0.00
   -7  -16    4     -0.23      0.00
   -7  -16    3      0.21      0.00
   -7  -16    2      0.18      0.00
   -7  -16    1      1.57      0.00
    7   16    0     -1.08      0.00
    7   16    1     -0.93      0.00
    7   16    2     -0.42      0.00
    7   16    3      1.40      0.00
    7   16    4     -0.56      0.00
    7   16    5      0.64      0.00
    7   16    6     -0.29      0.00
    7   16    7     -0.27      0.00
    7   16    8      0.03      0.00
    7   16    9     -0.20      0.00
    7   16   10      0.92      0.00
    7   16   11     -1.67      0.00
    7   16   12      0.34      0.00
    7   16   13      1.36      0.00
    7   16   14      0.79      0.00
    7   16   15     -0.64      0.00
    7   16   16     -3.29      0.00
    7   16   17      1.25      0.00
    7   16   18      2.22      0.00
    7   16   19      0.35      0.00
   -7  -17   11      0.15      0.00
   -7  -17   10      0.41      0.00
   -7  -17    9      0.31      0.00
   -7  -17    8     -0.10      0.00
   -7  -17    7     -0.14      0.00
   -7  -17    6      0.10      0.00
   -7  -17    5     -0.73      0.00
   -7  -17    4     -0.68      0.00
   -7  -17    3      1.63      0.00
   -7  -17    2      0.79      0.00
   -7  -17    1     -1.07      0.00
    7   17    0     -0.49      0.00
    7   17    1      0.12      0.00
    7   17    2     -0.16      0.00
    7   17    3     -0.03      0.00
    7   17    4      0.82      0.00
    7   17    5     -0.22      0.00
    7   17    6      0.21      0.00
    7   17    7     -0.17      0.00
    7   17    8      0.22      0.00
    7   17    9     -1.84      0.00
    7   17   10      0.04      0.00
    7   17   11      2.15      0.00
    7   17   12      0.56      0.00
    7   17   13     -0.05      0.00
    7   17   14     -2.26      0.00
    7   17   15     -0.70      0.00
    7   17   16      1.33      0.00
    7   17   18      0.79      0.00
   -7  -18    9     -0.61      0.00
   -7  -18    8      0.09      0.00
   -7  -18    7     -0.30      0.00
   -7  -18    6     -0.33      0.00
   -7  -18    5     -0.10      0.00
   -7  -18    4      1.11      0.00
   -7  -18    3     -0.33      0.00
   -7  -18    2      0.77      0.00
   -7  -18    1     -1.03      0.00
    7   18    0     -0.75      0.00
    7   18    1     -0.29      0.00
    7   18    2      1.41      0.00
    7   18    3      0.54      0.00
    7   18    4     -0.05      0.00
    7   18    5     -1.07      0.00
    7   18    6     -0.06      0.00
    7   18    7     -0.48      0.00
    7   18    8      0.72      0.00
    7   18    9      0.79      0.00
    7   18   10     -0.71      0.00
    7   18   11     -0.16      0.00
    7   18   12      0.59      0.00
    7   18   13     -0.18      0.00
    7   18   14     -0.05      0.00
    7   18   15     -1.78      0.00
    7   18   17      1.70      0.00
   -7  -19    9      0.03      0.00
   -7  -19    8     -0.70      0.00
   -7  -19    7      0.16      0.00
   -7  -19    6      0.26      0.00
   -7  -19    5     -0.25      0.00
   -7  -19    4      0.38      0.00
   -7  -19    3      0.87      0.00
   -7  -19    2     -1.13      0.00
   -7  -19    1     -0.36      0.00
    7   19    0     -0.24      0.00
    7   19    1      0.69      0.00
    7   19    2      0.33      0.00
    7   19    3      0.39      0.00
    7   19    4     -0.15      0.00
    7   19    5     -1.25      0.00
    7   19    6      0.07      0.00
    7   19    7      1.25      0.00
    7   19    8     -1.11      0.00
    7   19    9      0.07      0.00
    7   19   10      1.06      0.00
    7   19   11      0.53      0.00
    7   19   13     -1.39      0.00
    7   19   14     -0.26      0.00
    7   19   15      1.99      0.00
   -7  -20    6     -0.09      0.00
   -7  -20    5      0.78      0.00
   -7  -20    4     -0.16      0.00
   -7  -20    3     -0.18      0.00
   -7  -20    2     -0.78      0.00
   -7  -20    1     -0.16      0.00
    7   20    0      0.53      0.00
    7   20    1      0.72      0.00
    7   20    2      0.57      0.00
    7   20    3     -0.73      0.00
    7   20    4     -1.46      0.00
    7   20    5      0.75      0.00
    7   20    6     -0.27      0.00
    7   20    7      1.12      0.00
    7   20    8      0.39      0.00
    7   20   10     -0.81      0.00
    7   20   11     -0.11      0.00
    7   20   12      0.36      0.00
   -7  -21    1     -0.20      0.00
    7   21    0      0.72      0.00
    7   21    1      0.00      0.00
    7   21    3      0.07      0.00
    7   21    4     -0.89      0.00
    7   21    5     -0.05      0.00
    8  -15    1     -0.19      0.00
    8  -15    2     -0.74      0.00
   -8   14    5     -0.98      0.00
   -8   14    2      0.98      0.00
   -8   14    1     -0.01      0.00
   -8   14    0     -0.26      0.00
    8  -14    1     -0.58      0.00
    8  -14    2     -0.21      0.00
    8  -14    3      0.12      0.00
    8  -14    4      1.10      0.00
    8  -14    5     -0.58      0.00
    8  -14    6     -0.51      0.00
    8  -14    7      0.41      0.00
    8  -14   11      0.23      0.00
   -8   13    9      0.73      0.00
   -8   13    6     -0.12      0.00
   -8   13    5      0.48      0.00
   -8   13    3      0.09      0.00
   -8   13    2      0.72      0.00
   -8   13    1     -0.39      0.00
   -8   13    0     -0.54      0.00
    8  -13    1     -1.02      0.00
    8  -13    2      1.25      0.00
    8  -13    4     -0.38      0.00
    8  -13    5      0.15      0.00
    8  -13    6     -0.36      0.00
    8  -13    8     -0.54      0.00
    8  -13    9      0.14      0.00
    8  -13   10      0.35      0.00
    8  -13   11     -0.22      0.00
    8  -13   12      0.53      0.00
    8  -13   14     -0.32      0.00
   -8   12   11      1.74      0.00
   -8   12   10     -0.37      0.00
   -8   12    9     -1.17      0.00
   -8   12    8     -0.43      0.00
   -8   12    7      0.93      0.00
   -8   12    6     -0.16      0.00
   -8   12    5     -0.49      0.00
   -8   12    4      0.48      0.00
   -8   12    3      0.90      0.00
   -8   12    2     -0.32      0.00
   -8   12    1     -1.01      0.00
   -8   12    0     -0.53      0.00
    8  -12    1      1.04      0.00
    8  -12    2     -0.19      0.00
    8  -12    3      0.84      0.00
    8  -12    4     -0.53      0.00
    8  -12    5     -0.52      0.00
    8  -12    6      0.42      0.00
    8  -12    7     -0.36      0.00
    8  -12    8      0.80      0.00
    8  -12    9     -1.48      0.00
    8  -12   10      1.07      0.00
    8  -12   11      0.26      0.00
    8  -12   12      0.46      0.00
    8  -12   13     -1.31      0.00
    8  -12   16      0.78      0.00
    8  -12   17     -0.91      0.00
   -8   11   11     -0.77      0.00
   -8   11   10      0.74      0.00
   -8   11    9     -0.63      0.00
   -8   11    8     -0.43      0.00
   -8   11    7     -0.73      0.00
   -8   11    6      1.29      0.00
   -8   11    5      0.63      0.00
   -8   11    4     -0.02      0.00
   -8   11    3     -0.45      0.00
   -8   11    2     -0.99      0.00
   -8   11    1      0.31      0.00
   -8   11    0     -0.34      0.00
    8  -11    1      1.11      0.00
    8  -11    2      0.48      0.00
    8  -11    3     -0.79      0.00
    8  -11    4     -0.23      0.00
    8  -11    5      0.03      0.00
    8  -11    6      0.13      0.00
    8  -11    7     -0.29      0.00
    8  -11    8     -0.40      0.00
    8  -11    9      1.54      0.00
    8  -11   10     -0.76      0.00
    8  -11   11      0.69      0.00
    8  -11   12     -1.50      0.00
    8  -11   13      0.45      0.00
    8  -11   14     -0.58      0.00
    8  -11   15      1.55      0.00
    8  -11   16     -0.35      0.00
    8  -11   17      0.08      0.00
   -8   10   10     -1.66      0.00
   -8   10    9     -0.66      0.00
   -8   10    8      0.66      0.00
   -8   10    7      1.34      0.00
   -8   10    6     -0.50      0.00
   -8   10    5      0.17      0.00
   -8   10    4     -0.42      0.00
   -8   10    3     -0.11      0.00
   -8   10    1     -0.40      0.00
   -8   10    0      1.62      0.00
    8  -10    1     -0.20      0.00
    8  -10    2     -0.08      0.00
    8  -10    3     -0.66      0.00
    8  -10    4     -0.05      0.00
    8  -10    5      0.40      0.00
    8  -10    6     -0.66      0.00
    8  -10    7      0.82      0.00
    8  -10    8     -0.31      0.00
    8  -10    9      0.45      0.00
    8  -10   10     -0.11      0.00
    8  -10   11     -0.25      0.00
    8  -10   12     -0.67      0.00
    8  -10   13     -0.09      0.00
    8  -10   14      1.36      0.00
    8  -10   15     -0.08      0.00
    8  -10   16     -0.46      0.00
    8  -10   17     -1.12      0.00
    8  -10   18      1.51      0.00
   -8    9   13      0.88      0.00
   -8    9   11      0.15      0.00
   -8    9   10     -0.21      0.00
   -8    9    9      0.26      0.00
   -8    9    8     -0.57      0.00
   -8    9    7      1.04      0.00
   -8    9    6      0.51      0.00
   -8    9    5     -0.31      0.00
   -8    9    4     -0.72      0.00
   -8    9    3     -1.27      0.00
   -8    9    2      0.95      0.00
   -8    9    1      1.01      0.00
   -8    9    0      0.22      0.00
    8   -9    1     -0.36      0.00
    8   -9    2     -0.71      0.00
    8   -9    3     -0.03      0.00
    8   -9    4      0.31      0.00
    8   -9    5     -0.48      0.00
    8   -9    6      0.68      0.00
    8   -9    7     -0.44      0.00
    8   -9    8      1.60      0.00
    8   -9    9     -1.55      0.00
    8   -9   10      0.22      0.00
    8   -9   11     -1.12      0.00
    8   -9   12      1.40      0.00
    8   -9   13     -0.71      0.00
    8   -9   14      1.20      0.00
    8   -9   15     -0.52      0.00
    8   -9   16      0.13      0.00
    8   -9   17     -0.75      0.00
    8   -9   18     -0.56      0.00
    8   -9   19      0.94      0.00
   -8    8   13      0.34      0.00
   -8    8   11     -1.06      0.00
   -8    8   10     -0.59      0.00
   -8    8    9      0.37      0.00
   -8    8    8      1.68      0.00
   -8    8    7     -0.41      0.00
   -8    8    6     -0.13      0.00
   -8    8    5     -1.49      0.00
   -8    8    4      0.08      0.00
   -8    8    3      0.97      0.00
   -8    8    2      0.10      0.00
   -8    8    1      0.32      0.00
   -8    8    0     -0.27      0.00
    8   -8    1     -0.20      0.00
    8   -8    2     -0.57      0.00
    8   -8    3      0.12      0.00
    8   -8    4      0.46      0.00
    8   -8    5      0.06      0.00
    8   -8    6     -0.26      0.00
    8   -8    7      0.94      0.00
    8   -8    8     -0.87      0.00
    8   -8    9     -0.04      0.00
    8   -8   10     -0.79      0.00
    8   -8   11      0.90      0.00
    8   -8   12     -0.15      0.00
    8   -8   13      1.34      0.00
    8   -8   14     -1.22      0.00
    8   -8   15     -0.15      0.00
    8   -8   16     -0.84      0.00
    8   -8   17      1.53      0.00
    8   -8   18      0.12      0.00
    8   -8   19     -1.12      0.00
    8   -8   20      0.01      0.00
   -8    7   14      0.42      0.00
   -8    7   13     -1.04      0.00
   -8    7   12     -0.46      0.00
   -8    7   11      0.41      0.00
   -8    7   10      0.63      0.00
   -8    7    9     -0.20      0.00
   -8    7    8      0.40      0.00
   -8    7    7     -0.30      0.00
   -8    7    6     -0.49      0.00
   -8    7    5      0.14      0.00
   -8    7    4     -0.45      0.00
   -8    7    3      0.17      0.00
   -8    7    2      1.27      0.00
   -8    7    1     -0.02      0.00
   -8    7    0     -0.90      0.00
    8   -7    1     -0.89      0.00
    8   -7    2      0.69      0.00
    8   -7    3      0.81      0.00
    8   -7    4     -0.96      0.00
    8   -7    5      0.43      0.00
    8   -7    6      0.43      0.00
    8   -7    7      0.48      0.00
    8   -7    8     -1.42      0.00
    8   -7    9     -0.70      0.00
    8   -7   10      0.67      0.00
    8   -7   11      1.48      0.00
    8   -7   12     -0.34      0.00
    8   -7   13     -0.66      0.00
    8   -7   14     -0.17      0.00
    8   -7   15      0.14      0.00
    8   -7   16      0.18      0.00
    8   -7   17     -0.86      0.00
    8   -7   18      0.38      0.00
    8   -7   19      1.40      0.00
    8   -7   20     -0.61      0.00
    8   -7   21     -0.52      0.00
   -8    6   14     -0.40      0.00
   -8    6   13      0.35      0.00
   -8    6   12      0.19      0.00
   -8    6   11     -0.66      0.00
   -8    6   10      0.46      0.00
   -8    6    9      0.72      0.00
   -8    6    8     -0.41      0.00
   -8    6    7     -0.03      0.00
   -8    6    6     -1.10      0.00
   -8    6    5     -0.04      0.00
   -8    6    4      1.23      0.00
   -8    6    3      0.99      0.00
   -8    6    2     -1.28      0.00
   -8    6    1     -0.69      0.00
   -8    6    0      0.27      0.00
    8   -6    1      0.64      0.00
    8   -6    2     -0.43      0.00
    8   -6    3      0.01      0.00
    8   -6    4      0.82      0.00
    8   -6    5     -0.83      0.00
    8   -6    6      0.71      0.00
    8   -6    7     -1.12      0.00
    8   -6    8      0.21      0.00
    8   -6    9     -0.30      0.00
    8   -6   10      1.28      0.00
    8   -6   11     -0.15      0.00
    8   -6   12      0.37      0.00
    8   -6   13     -1.30      0.00
    8   -6   14     -0.47      0.00
    8   -6   15      0.43      0.00
    8   -6   16      0.98      0.00
    8   -6   17      0.67      0.00
    8   -6   18     -1.59      0.00
    8   -6   19     -0.31      0.00
    8   -6   20      0.92      0.00
   -8    5   14     -0.30      0.00
   -8    5   13     -0.51      0.00
   -8    5   12      0.53      0.00
   -8    5   11      0.72      0.00
   -8    5   10     -0.27      0.00
   -8    5    9      0.24      0.00
   -8    5    8     -1.00      0.00
   -8    5    7     -0.37      0.00
   -8    5    6      0.80      0.00
   -8    5    5      0.79      0.00
   -8    5    4     -0.85      0.00
   -8    5    3     -0.07      0.00
   -8    5    2      0.43      0.00
   -8    5    1     -0.09      0.00
   -8    5    0     -0.89      0.00
    8   -5    1      0.35      0.00
    8   -5    2      1.26      0.00
    8   -5    3     -0.80      0.00
    8   -5    4     -0.75      0.00
    8   -5    5      1.04      0.00
    8   -5    6      0.09      0.00
    8   -5    7     -0.66      0.00
    8   -5    8     -1.30      0.00
    8   -5    9      1.59      0.00
    8   -5   10      1.09      0.00
    8   -5   11     -0.06      0.00
    8   -5   12     -1.95      0.00
    8   -5   13     -0.13      0.00
    8   -5   14      0.59      0.00
    8   -5   15      0.93      0.00
    8   -5   16     -0.15      0.00
    8   -5   17     -1.26      0.00
    8   -5   18      1.76      0.00
    8   -5   19     -0.98      0.00
    8   -5   20      0.09      0.00
    8   -5   21     -0.87      0.00
   -8    4   14     -0.05      0.00
   -8    4   13      0.96      0.00
   -8    4   12     -0.83      0.00
   -8    4   11      0.75      0.00
   -8    4   10     -0.20      0.00
   -8    4    9     -0.56      0.00
   -8    4    8      0.08      0.00
   -8    4    7      0.12      0.00
   -8    4    6     -0.08      0.00
   -8    4    5      0.05      0.00
   -8    4    4      1.31      0.00
   -8    4    3     -1.21      0.00
   -8    4    2     -0.91      0.00
   -8    4    1      0.23      0.00
   -8    4    0      1.84      0.00
    8   -4    1     -0.71      0.00
    8   -4    2     -1.05      0.00
    8   -4    3      0.73      0.00
    8   -4    4      0.06      0.00
    8   -4    5      0.01      0.00
    8   -4    6     -0.75      0.00
    8   -4    7      0.27      0.00
    8   -4    8      0.51      0.00
    8   -4    9      0.49      0.00
    8   -4   10     -0.38      0.00
    8   -4   11     -0.37      0.00
    8   -4   12     -0.43      0.00
    8   -4   13     -0.58      0.00
    8   -4   14      1.22      0.00
    8   -4   15      0.55      0.00
    8   -4   16      0.31      0.00
    8   -4   17     -1.32      0.00
    8   -4   18     -1.10      0.00
    8   -4   19      1.80      0.00
    8   -4   20     -0.51      0.00
    8   -4   21      1.15      0.00
   -8    3   14     -0.05      0.00
   -8    3   13      0.03      0.00
   -8    3   12      0.81      0.00
   -8    3   11     -0.58      0.00
   -8    3   10      0.57      0.00
   -8    3    9     -1.35      0.00
   -8    3    8     -0.03      0.00
   -8    3    7      0.63      0.00
   -8    3    6      1.42      0.00
   -8    3    5     -1.02      0.00
   -8    3    4     -1.21      0.00
   -8    3    3      0.64      0.00
   -8    3    2      0.94      0.00
   -8    3    1     -0.39      0.00
   -8    3    0     -0.91      0.00
    8   -3    1      1.07      0.00
    8   -3    2      0.02      0.00
    8   -3    3     -1.16      0.00
    8   -3    4      0.64      0.00
    8   -3    5      0.51      0.00
    8   -3    6      0.08      0.00
    8   -3    7     -1.46      0.00
    8   -3    8      0.93      0.00
    8   -3    9      0.68      0.00
    8   -3   10      0.38      0.00
    8   -3   11     -1.79      0.00
    8   -3   12     -0.26      0.00
    8   -3   13      0.72      0.00
    8   -3   14      1.09      0.00
    8   -3   15      0.47      0.00
    8   -3   16     -2.18      0.00
    8   -3   17      0.97      0.00
    8   -3   18     -0.21      0.00
    8   -3   19      0.35      0.00
    8   -3   20     -0.25      0.00
    8   -3   21     -0.24      0.00
   -8    2   14      0.60      0.00
   -8    2   13     -0.69      0.00
   -8    2   12      0.73      0.00
   -8    2   11     -0.15      0.00
   -8    2   10     -0.97      0.00
   -8    2    9      0.03      0.00
   -8    2    8      0.97      0.00
   -8    2    7      0.22      0.00
   -8    2    6     -1.16      0.00
   -8    2    5      0.92      0.00
   -8    2    4     -0.01      0.00
   -8    2    3     -0.68      0.00
   -8    2    2     -0.51      0.00
   -8    2    1      1.68      0.00
   -8    2    0      0.04      0.00
    8   -2    1     -1.61      0.00
    8   -2    2      0.05      0.00
    8   -2    3      1.05      0.00
    8   -2    4      0.14      0.00
    8   -2    5     -0.73      0.00
    8   -2    6     -0.13      0.00
    8   -2    7      0.87      0.00
    8   -2    8     -0.11      0.00
    8   -2    9     -0.55      0.00
    8   -2   10     -0.39      0.00
    8   -2   11      0.61      0.00
    8   -2   12     -0.56      0.00
    8   -2   13      0.89      0.00
    8   -2   14      0.22      0.00
    8   -2   15     -0.28      0.00
    8   -2   16     -0.56      0.00
    8   -2   17     -1.08      0.00
    8   -2   18      2.12      0.00
    8   -2   19     -0.93      0.00
    8   -2   20      0.74      0.00
    8   -2   21     -0.76      0.00
   -8    1   14     -0.41      0.00
   -8    1   13      0.75      0.00
   -8    1   12     -0.64      0.00
   -8    1   11      0.75      0.00
   -8    1   10     -1.21      0.00
   -8    1    9      0.14      0.00
   -8    1    8      0.15      0.00
   -8    1    7      1.41      0.00
   -8    1    6     -0.57      0.00
   -8    1    5     -1.24      0.00
   -8    1    4      0.28      0.00
   -8    1    3      0.88      0.00
   -8    1    2      0.18      0.00
   -8    1    1     -1.36      0.00
   -8    1    0      0.58      0.00
    8   -1    1      0.72      0.00
    8   -1    2     -0.74      0.00
    8   -1    3     -0.18      0.00
    8   -1    4      0.58      0.00
    8   -1    5      0.63      0.00
    8   -1    6     -1.28      0.00
    8   -1    7     -0.14      0.00
    8   -1    8      0.46      0.00
    8   -1    9      1.11      0.00
    8   -1   10     -1.02      0.00
    8   -1   11     -0.67      0.00
    8   -1   12      0.24      0.00
    8   -1   13      0.95      0.00
    8   -1   14      0.60      0.00
    8   -1   15     -1.55      0.00
    8   -1   16     -0.08      0.00
    8   -1   17      0.68      0.00
    8   -1   18     -0.28      0.00
    8   -1   19      0.70      0.00
    8   -1   20     -1.20      0.00
    8   -1   21      1.04      0.00
   -8    0   14     -0.32      0.00
   -8    0   13      0.25      0.00
   -8    0   12      0.59      0.00
   -8    0   11     -1.25      0.00
   -8    0   10     -0.14      0.00
   -8    0    9      1.04      0.00
   -8    0    8      0.79      0.00
   -8    0    7     -1.67      0.00
   -8    0    6      0.40      0.00
   -8    0    5      0.74      0.00
   -8    0    4     -0.43      0.00
   -8    0    3     -1.06      0.00
   -8    0    2      0.86      0.00
   -8    0    1      1.27      0.00
    8    0    0     -1.39      0.00
    8    0    1     -0.74      0.00
    8    0    2      0.96      0.00
    8    0    3      0.92      0.00
    8    0    4     -0.77      0.00
    8    0    5     -0.88      0.00
    8    0    6      0.80      0.00
    8    0    7      0.24      0.00
    8    0    8     -0.35      0.00
    8    0    9     -0.55      0.00
    8    0   10      1.01      0.00
    8    0   11     -0.50      0.00
    8    0   12      0.30      0.00
    8    0   13     -0.13      0.00
    8    0   14     -0.08      0.00
    8    0   15     -0.17      0.00
    8    0   16     -0.38      0.00
    8    0   17      1.21      0.00
    8    0   18     -0.54      0.00
    8    0   19     -0.69      0.00
    8    0   20      0.84      0.00
    8    0   21     -0.27      0.00
   -8   -1   15     -0.41      0.00
   -8   -1   14      0.35      0.00
   -8   -1   13     -0.22      0.00
   -8   -1   12      0.52      0.00
   -8   -1   11     -0.54      0.00
   -8   -1   10     -0.01      0.00
   -8   -1    9     -0.28      0.00
   -8   -1    8      1.07      0.00
   -8   -1    7      0.17      0.00
   -8   -1    6     -0.99      0.00
   -8   -1    5     -0.32      0.00
   -8   -1    4      0.22      0.00
   -8   -1    3      0.79      0.00
   -8   -1    2     -0.63      0.00
   -8   -1    1      0.00      0.00
    8    1    0      0.60      0.00
    8    1    1     -0.29      0.00
    8    1    2     -0.51      0.00
    8    1    3      0.14      0.00
    8    1    4      0.85      0.00
    8    1    5     -0.58      0.00
    8    1    6     -0.74      0.00
    8    1    7      0.24      0.00
    8    1    8      1.41      0.00
    8    1    9     -0.40      0.00
    8    1   10     -1.27      0.00
    8    1   11     -0.01      0.00
    8    1   12      1.04      0.00
    8    1   13      0.49      0.00
    8    1   14     -1.00      0.00
    8    1   15     -0.22      0.00
    8    1   16      0.82      0.00
    8    1   17     -1.01      0.00
    8    1   18      0.82      0.00
    8    1   19     -0.42      0.00
    8    1   20      0.41      0.00
    8    1   21      0.01      0.00
   -8   -2   15     -0.05      0.00
   -8   -2   14     -0.23      0.00
   -8   -2   13      1.10      0.00
   -8   -2   12     -0.76      0.00
   -8   -2   11     -0.45      0.00
   -8   -2   10      0.41      0.00
   -8   -2    9      1.27      0.00
   -8   -2    8     -1.40      0.00
   -8   -2    7     -0.13      0.00
   -8   -2    6      0.62      0.00
   -8   -2    5     -0.21      0.00
   -8   -2    4     -0.65      0.00
   -8   -2    3      0.29      0.00
   -8   -2    2      1.67      0.00
   -8   -2    1     -1.20      0.00
    8    2    0     -1.12      0.00
    8    2    1      0.43      0.00
    8    2    2      1.65      0.00
    8    2    3     -0.56      0.00
    8    2    4     -1.38      0.00
    8    2    5      0.22      0.00
    8    2    6      1.22      0.00
    8    2    7     -0.12      0.00
    8    2    8     -1.08      0.00
    8    2    9      0.53      0.00
    8    2   10      0.29      0.00
    8    2   11      0.17      0.00
    8    2   12     -0.80      0.00
    8    2   13      0.24      0.00
    8    2   14      0.24      0.00
    8    2   15      0.16      0.00
    8    2   16     -0.22      0.00
    8    2   17      0.19      0.00
    8    2   18     -1.38      0.00
    8    2   19      1.68      0.00
    8    2   20     -0.13      0.00
    8    2   21      0.27      0.00
   -8   -3   15     -0.06      0.00
   -8   -3   14      0.40      0.00
   -8   -3   13      0.27      0.00
   -8   -3   12     -0.04      0.00
   -8   -3   11     -0.28      0.00
   -8   -3   10     -0.50      0.00
   -8   -3    9      0.56      0.00
   -8   -3    8      0.85      0.00
   -8   -3    7     -0.83      0.00
   -8   -3    6     -0.77      0.00
   -8   -3    5     -0.02      0.00
   -8   -3    4      1.32      0.00
   -8   -3    3      0.08      0.00
   -8   -3    2     -0.93      0.00
   -8   -3    1      0.09      0.00
    8    3    0      0.34      0.00
    8    3    1     -0.05      0.00
    8    3    2     -0.54      0.00
    8    3    3      0.47      0.00
    8    3    4      0.33      0.00
    8    3    5     -0.48      0.00
    8    3    6     -0.52      0.00
    8    3    7      1.10      0.00
    8    3    8      0.16      0.00
    8    3    9     -1.11      0.00
    8    3   10     -0.31      0.00
    8    3   11      1.10      0.00
    8    3   12      0.46      0.00
    8    3   13     -1.17      0.00
    8    3   14      0.25      0.00
    8    3   15      0.68      0.00
    8    3   16     -1.22      0.00
    8    3   17     -0.15      0.00
    8    3   18      1.44      0.00
    8    3   19      0.08      0.00
    8    3   20     -0.29      0.00
    8    3   21     -0.95      0.00
   -8   -4   15     -0.20      0.00
   -8   -4   14      0.80      0.00
   -8   -4   13      0.02      0.00
   -8   -4   12     -0.63      0.00
   -8   -4   11     -0.35      0.00
   -8   -4   10      1.23      0.00
   -8   -4    9     -0.60      0.00
   -8   -4    8     -0.49      0.00
   -8   -4    7      0.18      0.00
   -8   -4    6      0.20      0.00
   -8   -4    5      0.16      0.00
   -8   -4    4     -0.16      0.00
   -8   -4    3      0.76      0.00
   -8   -4    2     -0.90      0.00
   -8   -4    1     -0.61      0.00
    8    4    0      0.33      0.00
    8    4    1      1.46      0.00
    8    4    2     -0.34      0.00
    8    4    3     -1.33      0.00
    8    4    4     -0.53      0.00
    8    4    5      1.73      0.00
    8    4    6      0.41      0.00
    8    4    7     -1.29      0.00
    8    4    8     -0.37      0.00
    8    4    9      1.01      0.00
    8    4   10      0.56      0.00
    8    4   11     -1.53      0.00
    8    4   12      0.04      0.00
    8    4   13      1.18      0.00
    8    4   14      0.26      0.00
    8    4   15     -1.60      0.00
    8    4   16      0.49      0.00
    8    4   17     -0.20      0.00
    8    4   18      1.45      0.00
    8    4   19     -0.58      0.00
    8    4   20      0.08      0.00
    8    4   21     -1.27      0.00
   -8   -5   14      0.11      0.00
   -8   -5   13     -0.04      0.00
   -8   -5   12     -0.33      0.00
   -8   -5   11     -0.37      0.00
   -8   -5   10      0.12      0.00
   -8   -5    9      0.86      0.00
   -8   -5    8     -0.39      0.00
   -8   -5    7     -0.70      0.00
   -8   -5    6      0.00      0.00
   -8   -5    5      1.16      0.00
   -8   -5    4      0.11      0.00
   -8   -5    3     -1.39      0.00
   -8   -5    2      0.04      0.00
   -8   -5    1      1.02      0.00
    8    5    0      0.33      0.00
    8    5    1     -1.16      0.00
    8    5    2     -0.29      0.00
    8    5    3      0.97      0.00
    8    5    4      0.41      0.00
    8    5    5     -1.12      0.00
    8    5    6      0.26      0.00
    8    5    7      0.66      0.00
    8    5    8     -0.30      0.00
    8    5    9     -0.85      0.00
    8    5   10      0.53      0.00
    8    5   11      1.06      0.00
    8    5   12     -1.12      0.00
    8    5   13     -0.03      0.00
    8    5   14      0.42      0.00
    8    5   15     -0.43      0.00
    8    5   16     -0.85      0.00
    8    5   17      2.31      0.00
    8    5   18     -0.11      0.00
    8    5   19     -0.77      0.00
    8    5   20     -2.15      0.00
    8    5   21      1.67      0.00
   -8   -6   14      0.34      0.00
   -8   -6   13     -0.41      0.00
   -8   -6   12     -0.36      0.00
   -8   -6   11      0.47      0.00
   -8   -6   10     -0.07      0.00
   -8   -6    9     -0.38      0.00
   -8   -6    8      0.12      0.00
   -8   -6    7      0.49      0.00
   -8   -6    6      0.24      0.00
   -8   -6    5     -0.61      0.00
   -8   -6    4     -0.12      0.00
   -8   -6    3     -0.10      0.00
   -8   -6    2      0.21      0.00
   -8   -6    1      0.20      0.00
    8    6    0      0.38      0.00
    8    6    1     -0.13      0.00
    8    6    2     -0.72      0.00
    8    6    3     -0.75      0.00
    8    6    4      1.18      0.00
    8    6    5      1.11      0.00
    8    6    6     -0.79      0.00
    8    6    7     -1.27      0.00
    8    6    8      0.56      0.00
    8    6    9      1.09      0.00
    8    6   10     -0.92      0.00
    8    6   11     -0.75      0.00
    8    6   12      1.68      0.00
    8    6   13      0.00      0.00
    8    6   14     -1.90      0.00
    8    6   15      0.40      0.00
    8    6   16      1.62      0.00
    8    6   17      0.43      0.00
    8    6   18     -1.81      0.00
    8    6   19     -0.40      0.00
    8    6   20      0.59      0.00
    8    6   21      0.00      0.00
   -8   -7   14     -0.02      0.00
   -8   -7   13      0.00      0.00
   -8   -7   12     -0.33      0.00
   -8   -7   11     -0.10      0.00
   -8   -7   10      0.26      0.00
   -8   -7    9      0.38      0.00
   -8   -7    8     -0.32      0.00
   -8   -7    7     -0.18      0.00
   -8   -7    6      0.36      0.00
   -8   -7    5      0.04      0.00
   -8   -7    4     -0.81      0.00
   -8   -7    3      0.32      0.00
   -8   -7    2      0.90      0.00
   -8   -7    1     -0.02      0.00
    8    7    0     -1.12      0.00
    8    7    1     -0.55      0.00
    8    7    2      1.18      0.00
    8    7    3      0.81      0.00
    8    7    4     -0.70      0.00
    8    7    5     -0.86      0.00
    8    7    6      0.62      0.00
    8    7    7      0.31      0.00
    8    7    8     -0.60      0.00
    8    7    9     -0.26      0.00
    8    7   10      1.38      0.00
    8    7   11     -0.42      0.00
    8    7   12     -1.24      0.00
    8    7   13      0.40      0.00
    8    7   14      0.82      0.00
    8    7   15     -0.29      0.00
    8    7   16      0.71      0.00
    8    7   17     -0.70      0.00
    8    7   18     -0.26      0.00
    8    7   19     -1.78      0.00
    8    7   20      2.14      0.00
    8    7   21      0.71      0.00
   -8   -8   14     -0.15      0.00
   -8   -8   13      0.04      0.00
   -8   -8   12     -0.43      0.00
   -8   -8   11     -0.10      0.00
   -8   -8   10      0.15      0.00
   -8   -8    9      0.44      0.00
   -8   -8    8      0.41      0.00
   -8   -8    7     -0.40      0.00
   -8   -8    6     -0.78      0.00
   -8   -8    5      0.06      0.00
   -8   -8    4      0.69      0.00
   -8   -8    3      0.25      0.00
   -8   -8    2     -0.42      0.00
   -8   -8    1     -0.29      0.00
    8    8    0      0.46      0.00
    8    8    1     -0.16      0.00
    8    8    2     -0.69      0.00
    8    8    3      0.39      0.00
    8    8    4      1.15      0.00
    8    8    5      0.02      0.00
    8    8    6     -1.64      0.00
    8    8    7     -0.17      0.00
    8    8    8      1.00      0.00
    8    8    9      0.69      0.00
    8    8   10     -1.42      0.00
    8    8   11      1.01      0.00
    8    8   12     -0.09      0.00
    8    8   13     -0.92      0.00
    8    8   14      0.25      0.00
    8    8   15      1.63      0.00
    8    8   16     -0.45      0.00
    8    8   17     -2.28      0.00
    8    8   18     -0.08      0.00
    8    8   19      2.70      0.00
    8    8   20     -0.35      0.00
    8    8   21     -0.30      0.00
   -8   -9   14      0.27      0.00
   -8   -9   13     -0.71      0.00
   -8   -9   12      0.02      0.00
   -8   -9   11     -0.17      0.00
   -8   -9   10      1.10      0.00
   -8   -9    9     -0.28      0.00
   -8   -9    8     -0.46      0.00
   -8   -9    7     -0.23      0.00
   -8   -9    6      0.52      0.00
   -8   -9    5     -0.34      0.00
   -8   -9    4      0.24      0.00
   -8   -9    3      0.17      0.00
   -8   -9    2      0.01      0.00
   -8   -9    1     -0.64      0.00
    8    9    0     -0.32      0.00
    8    9    1      0.96      0.00
    8    9    2      0.46      0.00
    8    9    3     -0.03      0.00
    8    9    4     -1.33      0.00
    8    9    5      0.06      0.00
    8    9    6      0.63      0.00
    8    9    7      0.35      0.00
    8    9    8     -0.50      0.00
    8    9    9      0.27      0.00
    8    9   10      0.44      0.00
    8    9   11     -1.68      0.00
    8    9   12      0.83      0.00
    8    9   13      0.97      0.00
    8    9   14      0.47      0.00
    8    9   15     -1.65      0.00
    8    9   16     -0.80      0.00
    8    9   17      1.18      0.00
    8    9   18     -0.01      0.00
    8    9   19      0.80      0.00
    8    9   20      0.11      0.00
    8    9   21     -0.69      0.00
   -8  -10   14     -0.12      0.00
   -8  -10   13     -0.58      0.00
   -8  -10   12     -0.03      0.00
   -8  -10   11      0.71      0.00
   -8  -10   10      0.29      0.00
   -8  -10    9      0.14      0.00
   -8  -10    8     -0.72      0.00
   -8  -10    7     -0.45      0.00
   -8  -10    6      0.20      0.00
   -8  -10    5      0.87      0.00
   -8  -10    4     -0.17      0.00
   -8  -10    3     -0.63      0.00
   -8  -10    2     -0.27      0.00
   -8  -10    1      1.21      0.00
    8   10    0     -0.32      0.00
    8   10    1     -0.89      0.00
    8   10    2      0.16      0.00
    8   10    3      0.94      0.00
    8   10    4      0.19      0.00
    8   10    5     -1.13      0.00
    8   10    6     -0.33      0.00
    8   10    7      0.48      0.00
    8   10    8      0.93      0.00
    8   10    9     -0.70      0.00
    8   10   10      0.05      0.00
    8   10   11      0.18      0.00
    8   10   12     -0.55      0.00
    8   10   13      0.34      0.00
    8   10   14      0.31      0.00
    8   10   15     -0.04      0.00
    8   10   16     -1.69      0.00
    8   10   17      0.78      0.00
    8   10   18      2.44      0.00
    8   10   19     -0.84      0.00
    8   10   20     -1.47      0.00
   -8  -11   13      0.43      0.00
   -8  -11   12     -0.04      0.00
   -8  -11   11      0.97      0.00
   -8  -11   10     -0.54      0.00
   -8  -11    9     -0.49      0.00
   -8  -11    8     -0.17      0.00
   -8  -11    7      1.06      0.00
   -8  -11    6     -0.64      0.00
   -8  -11    5     -0.31      0.00
   -8  -11    4     -0.09      0.00
   -8  -11    3      1.09      0.00
   -8  -11    2     -0.42      0.00
   -8  -11    1     -0.84      0.00
    8   11    0      0.49      0.00
    8   11    1      0.70      0.00
    8   11    2      0.08      0.00
    8   11    3     -1.29      0.00
    8   11    4     -0.29      0.00
    8   11    5      0.86      0.00
    8   11    6      0.98      0.00
    8   11    7     -0.55      0.00
    8   11    8     -0.74      0.00
    8   11    9      0.24      0.00
    8   11   10     -0.38      0.00
    8   11   11      0.67      0.00
    8   11   12      0.48      0.00
    8   11   13      0.20      0.00
    8   11   14     -1.98      0.00
    8   11   15     -0.25      0.00
    8   11   16      1.97      0.00
    8   11   17      0.74      0.00
    8   11   18     -0.92      0.00
    8   11   19     -0.77      0.00
    8   11   20     -0.27      0.00
   -8  -12   13      0.21      0.00
   -8  -12   12      0.80      0.00
   -8  -12   11     -0.27      0.00
   -8  -12   10     -0.20      0.00
   -8  -12    9     -0.26      0.00
   -8  -12    8      0.20      0.00
   -8  -12    7     -0.45      0.00
   -8  -12    6      0.36      0.00
   -8  -12    5      0.06      0.00
   -8  -12    4      0.28      0.00
   -8  -12    3     -0.61      0.00
   -8  -12    2      1.03      0.00
   -8  -12    1     -0.56      0.00
    8   12    0     -0.80      0.00
    8   12    1      0.08      0.00
    8   12    2      1.22      0.00
    8   12    3     -0.32      0.00
    8   12    4     -0.42      0.00
    8   12    5     -0.27      0.00
    8   12    6      0.48      0.00
    8   12    7     -0.38      0.00
    8   12    8      0.54      0.00
    8   12    9     -0.02      0.00
    8   12   10      0.10      0.00
    8   12   11     -0.88      0.00
    8   12   12      0.25      0.00
    8   12   13      0.22      0.00
    8   12   14      0.58      0.00
    8   12   15     -1.24      0.00
    8   12   16      0.82      0.00
    8   12   17      0.94      0.00
    8   12   18     -0.44      0.00
    8   12   19     -1.79      0.00
    8   12   20      0.25      0.00
   -8  -13   13      0.21      0.00
   -8  -13   12      0.16      0.00
   -8  -13   11     -0.56      0.00
   -8  -13   10     -0.08      0.00
   -8  -13    9      0.05      0.00
   -8  -13    8      0.86      0.00
   -8  -13    7     -0.96      0.00
   -8  -13    6     -0.46      0.00
   -8  -13    5      0.16      0.00
   -8  -13    4      1.93      0.00
   -8  -13    3     -0.45      0.00
   -8  -13    2     -1.83      0.00
   -8  -13    1     -0.20      0.00
    8   13    0      1.87      0.00
    8   13    1      0.22      0.00
    8   13    2     -1.63      0.00
    8   13    3     -0.27      0.00
    8   13    4      1.04      0.00
    8   13    5      1.17      0.00
    8   13    6     -1.11      0.00
    8   13    7     -0.32      0.00
    8   13    8     -1.09      0.00
    8   13    9      1.36      0.00
    8   13   10      0.11      0.00
    8   13   11      0.78      0.00
    8   13   12     -0.85      0.00
    8   13   13     -1.33      0.00
    8   13   14      0.25      0.00
    8   13   15      1.71      0.00
    8   13   16      0.64      0.00
    8   13   17     -1.47      0.00
    8   13   18     -1.04      0.00
    8   13   19      0.64      0.00
   -8  -14   12     -0.10      0.00
   -8  -14   11     -0.37      0.00
   -8  -14   10      0.05      0.00
   -8  -14    9      0.45      0.00
   -8  -14    8     -0.83      0.00
   -8  -14    7     -0.21      0.00
   -8  -14    6      0.59      0.00
   -8  -14    5      1.43      0.00
   -8  -14    4     -1.20      0.00
   -8  -14    3     -0.30      0.00
   -8  -14    2     -0.38      0.00
   -8  -14    1      0.31      0.00
    8   14    0     -0.39      0.00
    8   14    1      1.41      0.00
    8   14    2     -0.44      0.00
    8   14    3     -0.25      0.00
    8   14    4     -0.57      0.00
    8   14    5      0.78      0.00
    8   14    6     -0.94      0.00
    8   14    7      0.48      0.00
    8   14    8      0.75      0.00
    8   14    9     -0.29      0.00
    8   14   10     -0.43      0.00
    8   14   11     -0.80      0.00
    8   14   12      1.19      0.00
    8   14   13      0.20      0.00
    8   14   14     -0.81      0.00
    8   14   15      0.38      0.00
    8   14   16      0.20      0.00
    8   14   17      0.48      0.00
    8   14   18     -1.90      0.00
    8   14   19      0.55      0.00
   -8  -15   12     -0.39      0.00
   -8  -15   11      0.28      0.00
   -8  -15   10     -0.11      0.00
   -8  -15    9      0.31      0.00
   -8  -15    8     -0.79      0.00
   -8  -15    7      0.17      0.00
   -8  -15    6      0.29      0.00
   -8  -15    5      1.34      0.00
   -8  -15    4     -0.58      0.00
   -8  -15    3     -1.63      0.00
   -8  -15    2     -0.85      0.00
   -8  -15    1      2.38      0.00
    8   15    0      0.96      0.00
    8   15    1     -1.86      0.00
    8   15    2     -0.60      0.00
    8   15    3      0.87      0.00
    8   15    4      1.09      0.00
    8   15    5     -1.29      0.00
    8   15    6      0.40      0.00
    8   15    7     -1.65      0.00
    8   15    8      1.65      0.00
    8   15    9      0.28      0.00
    8   15   10      1.16      0.00
    8   15   11     -1.71      0.00
    8   15   12     -1.71      0.00
    8   15   13      1.11      0.00
    8   15   14      1.52      0.00
    8   15   15      0.89      0.00
    8   15   16     -1.76      0.00
    8   15   17     -1.46      0.00
   -8  -16   12     -0.15      0.00
   -8  -16   11     -0.42      0.00
   -8  -16    9     -0.37      0.00
   -8  -16    8      0.17      0.00
   -8  -16    7      0.36      0.00
   -8  -16    6      1.43      0.00
   -8  -16    5     -1.22      0.00
   -8  -16    4     -1.18      0.00
   -8  -16    3     -0.42      0.00
   -8  -16    2      1.86      0.00
   -8  -16    1     -0.65      0.00
    8   16    0      0.91      0.00
    8   16    1     -0.26      0.00
    8   16    2     -0.47      0.00
    8   16    3     -1.11      0.00
    8   16    4      0.91      0.00
    8   16    5      0.15      0.00
    8   16    6     -0.10      0.00
    8   16    7      0.66      0.00
    8   16    8     -0.21      0.00
    8   16    9      0.10      0.00
    8   16   10     -1.88      0.00
    8   16   11      1.46      0.00
    8   16   12      0.14      0.00
    8   16   13      0.00      0.00
    8   16   14      0.19      0.00
    8   16   15     -0.53      0.00
    8   16   16      0.81      0.00
   -8  -17   11     -0.36      0.00
   -8  -17    9     -0.22      0.00
   -8  -17    8      0.51      0.00
   -8  -17    7      0.28      0.00
   -8  -17    6     -0.01      0.00
   -8  -17    5     -0.75      0.00
   -8  -17    4     -0.35      0.00
   -8  -17    3     -0.48      0.00
   -8  -17    2      1.36      0.00
   -8  -17    1      1.47      0.00
    8   17    0     -1.52      0.00
    8   17    1     -1.13      0.00
    8   17    2      0.20      0.00
    8   17    3      1.01      0.00
    8   17    4     -0.17      0.00
    8   17    5      0.34      0.00
    8   17    6     -1.09      0.00
    8   17    7      0.37      0.00
    8   17    8      0.49      0.00
    8   17    9      1.27      0.00
    8   17   10     -1.74      0.00
    8   17   11     -2.01      0.00
    8   17   12      1.87      0.00
    8   17   13      1.62      0.00
    8   17   14      0.64      0.00
    8   17   15     -2.10      0.00
    8   17   16     -1.91      0.00
   -8  -18   10      0.05      0.00
   -8  -18    9      0.93      0.00
   -8  -18    8     -0.20      0.00
   -8  -18    7      0.20      0.00
   -8  -18    6     -0.72      0.00
   -8  -18    5     -0.62      0.00
   -8  -18    4     -0.51      0.00
   -8  -18    3      2.27      0.00
   -8  -18    2     -0.34      0.00
   -8  -18    1     -0.06      0.00
    8   18    0     -0.48      0.00
    8   18    1     -0.51      0.00
    8   18    2     -0.88      0.00
    8   18    3      1.03      0.00
    8   18    4      1.23      0.00
    8   18    5     -0.15      0.00
    8   18    6     -1.07      0.00
    8   18    7      0.34      0.00
    8   18    8      0.13      0.00
    8   18    9     -1.52      0.00
    8   18   10      1.13      0.00
    8   18   11      0.73      0.00
    8   18   12      0.27      0.00
    8   18   13     -0.38      0.00
    8   18   14     -1.17      0.00
    8   18   15      0.68      0.00
    8   18   16     -0.49      0.00
    8   18   17      0.34      0.00
   -8  -19    7     -0.60      0.00
   -8  -19    6     -0.56      0.00
   -8  -19    5      0.46      0.00
   -8  -19    4      0.57      0.00
   -8  -19    3     -0.02      0.00
   -8  -19    2      0.79      0.00
   -8  -19    1     -1.14      0.00
    8   19    0     -0.76      0.00
    8   19    1     -0.09      0.00
    8   19    2      1.06      0.00
    8   19    3      0.84      0.00
    8   19    4     -0.38      0.00
    8   19    5     -0.76      0.00
    8   19    6     -0.49      0.00
    8   19    7      0.08      0.00
    8   19    8      1.75      0.00
    8   19    9     -1.04      0.00
    8   19   10     -1.40      0.00
    8   19   11      1.12      0.00
    8   19   12      1.28      0.00
    8   19   15     -1.38      0.00
    8   19   16      1.73      0.00
   -8  -20    5     -0.14      0.00
   -8  -20    4      1.09      0.00
   -8  -20    3     -0.04      0.00
   -8  -20    2     -0.66      0.00
    8   20    1      0.18      0.00
    8   20    2      0.67      0.00
    8   20    4     -0.11      0.00
    8   20    5     -2.22      0.00
    8   20    7      0.53      0.00
    8   20    8     -0.56      0.00
    8   20    9      0.68      0.00
    8   20   12     -1.12      0.00
    8   21    3     -0.99      0.00
    8   21    6     -0.20      0.00
    9  -14    8      0.31      0.00
   -9   13    1      0.57      0.00
    9  -13    1     -0.20      0.00
    9  -13    2     -1.08      0.00
    9  -13    3      0.95      0.00
    9  -13    4      1.06      0.00
    9  -13    5     -1.11      0.00
    9  -13    6     -0.09      0.00
    9  -13    8      0.55      0.00
    9  -13    9     -0.62      0.00
    9  -13   10     -0.37      0.00
    9  -13   11      0.67      0.00
   -9   12    6      0.98      0.00
   -9   12    5      0.56      0.00
   -9   12    2      0.59      0.00
   -9   12    1      0.00      0.00
   -9   12    0     -1.05      0.00
    9  -12    1     -0.61      0.00
    9  -12    2      1.70      0.00
    9  -12    3     -0.26      0.00
    9  -12    4     -0.22      0.00
    9  -12    5      0.00      0.00
    9  -12    6     -0.41      0.00
    9  -12    7      0.57      0.00
    9  -12    8     -0.80      0.00
    9  -12    9      1.17      0.00
    9  -12   10     -0.95      0.00
    9  -12   11      0.27      0.00
    9  -12   13      0.58      0.00
   -9   11   10     -0.72      0.00
   -9   11    9     -0.40      0.00
   -9   11    8     -0.60      0.00
   -9   11    7      0.73      0.00
   -9   11    6     -0.66      0.00
   -9   11    3      0.09      0.00
   -9   11    2     -0.05      0.00
   -9   11    1     -1.35      0.00
   -9   11    0      0.75      0.00
    9  -11    1     -0.34      0.00
    9  -11    2      0.60      0.00
    9  -11    3      0.60      0.00
    9  -11    4     -0.69      0.00
    9  -11    5     -0.45      0.00
    9  -11    6      0.39      0.00
    9  -11    7      0.16      0.00
    9  -11    8      0.07      0.00
    9  -11    9     -1.18      0.00
    9  -11   10      1.51      0.00
    9  -11   11     -0.55      0.00
    9  -11   12      0.65      0.00
    9  -11   13     -1.18      0.00
   -9   10   10      0.46      0.00
   -9   10    9     -1.12      0.00
   -9   10    8     -0.92      0.00
   -9   10    7      0.16      0.00
   -9   10    6      1.73      0.00
   -9   10    5     -0.35      0.00
   -9   10    4      0.18      0.00
   -9   10    3     -0.66      0.00
   -9   10    2     -0.30      0.00
   -9   10    1     -0.17      0.00
   -9   10    0     -0.50      0.00
    9  -10    1      2.03      0.00
    9  -10    2     -0.33      0.00
    9  -10    3     -0.85      0.00
    9  -10    4     -0.33      0.00
    9  -10    5      0.46      0.00
    9  -10    6      0.40      0.00
    9  -10    7     -1.07      0.00
    9  -10    8      0.82      0.00
    9  -10    9      0.16      0.00
    9  -10   10     -0.29      0.00
    9  -10   11     -0.03      0.00
    9  -10   12      0.27      0.00
    9  -10   13     -0.31      0.00
    9  -10   14     -0.78      0.00
    9  -10   15      1.13      0.00
    9  -10   17      0.23      0.00
   -9    9   11     -0.79      0.00
   -9    9   10     -0.78      0.00
   -9    9    9     -0.69      0.00
   -9    9    8      1.10      0.00
   -9    9    7     -0.06      0.00
   -9    9    6      0.25      0.00
   -9    9    5      0.46      0.00
   -9    9    4     -0.54      0.00
   -9    9    3      0.00      0.00
   -9    9    2     -1.48      0.00
   -9    9    1      1.05      0.00
   -9    9    0      0.78      0.00
    9   -9    1      0.04      0.00
    9   -9    2     -0.56      0.00
    9   -9    3      0.02      0.00
    9   -9    4     -0.16      0.00
    9   -9    5      0.38      0.00
    9   -9    6     -0.95      0.00
    9   -9    7      1.10      0.00
    9   -9    8     -0.76      0.00
    9   -9    9      1.31      0.00
    9   -9   10     -1.19      0.00
    9   -9   11      0.59      0.00
    9   -9   12     -1.18      0.00
    9   -9   13      1.35      0.00
    9   -9   14     -0.80      0.00
    9   -9   15      0.63      0.00
    9   -9   16     -0.53      0.00
    9   -9   17      0.43      0.00
    9   -9   18      0.36      0.00
   -9    8   11      0.51      0.00
   -9    8   10     -0.61      0.00
   -9    8    9     -0.33      0.00
   -9    8    8     -0.25      0.00
   -9    8    7      1.70      0.00
   -9    8    6     -0.34      0.00
   -9    8    5      0.16      0.00
   -9    8    4     -1.12      0.00
   -9    8    3     -0.82      0.00
   -9    8    2      1.02      0.00
   -9    8    1      0.25      0.00
   -9    8    0      0.95      0.00
    9   -8    1     -0.69      0.00
    9   -8    2     -0.34      0.00
    9   -8    3     -0.62      0.00
    9   -8    4      0.73      0.00
    9   -8    5     -0.40      0.00
    9   -8    6      0.43      0.00
    9   -8    7     -0.25      0.00
    9   -8    8      1.32      0.00
    9   -8    9     -1.60      0.00
    9   -8   10      0.07      0.00
    9   -8   11     -0.05      0.00
    9   -8   12      0.98      0.00
    9   -8   13     -1.33      0.00
    9   -8   14      1.35      0.00
    9   -8   15     -0.45      0.00
    9   -8   16      0.55      0.00
    9   -8   17     -1.66      0.00
    9   -8   18      0.48      0.00
    9   -8   19      0.86      0.00
   -9    7   11     -0.90      0.00
   -9    7   10     -0.25      0.00
   -9    7    9      1.00      0.00
   -9    7    8      0.27      0.00
   -9    7    7     -0.08      0.00
   -9    7    6      0.09      0.00
   -9    7    5     -1.01      0.00
   -9    7    4      0.21      0.00
   -9    7    3     -0.11      0.00
   -9    7    2      0.34      0.00
   -9    7    1      0.70      0.00
   -9    7    0     -0.06      0.00
    9   -7    1     -0.71      0.00
    9   -7    2     -0.16      0.00
    9   -7    3      0.17      0.00
    9   -7    4      0.43      0.00
    9   -7    5     -0.89      0.00
    9   -7    6      0.60      0.00
    9   -7    7      0.82      0.00
    9   -7    8     -0.28      0.00
    9   -7    9     -0.95      0.00
    9   -7   10     -0.21      0.00
    9   -7   11      0.24      0.00
    9   -7   12      1.10      0.00
    9   -7   13     -0.17      0.00
    9   -7   14     -0.64      0.00
    9   -7   15     -0.34      0.00
    9   -7   16      0.29      0.00
    9   -7   17      1.02      0.00
    9   -7   18     -0.98      0.00
    9   -7   19     -0.77      0.00
   -9    6   11      0.45      0.00
   -9    6   10     -0.20      0.00
   -9    6    9     -0.02      0.00
   -9    6    8      0.74      0.00
   -9    6    7     -0.62      0.00
   -9    6    6      0.06      0.00
   -9    6    5     -0.24      0.00
   -9    6    4     -0.67      0.00
   -9    6    3      0.48      0.00
   -9    6    2      1.14      0.00
   -9    6    1      0.01      0.00
   -9    6    0     -1.02      0.00
    9   -6    1     -0.15      0.00
    9   -6    2      0.01      0.00
    9   -6    3      0.62      0.00
    9   -6    4     -1.20      0.00
    9   -6    5      1.65      0.00
    9   -6    6     -0.39      0.00
    9   -6    7      0.70      0.00
    9   -6    8     -2.00      0.00
    9   -6    9     -0.03      0.00
    9   -6   10      0.75      0.00
    9   -6   11      1.42      0.00
    9   -6   12     -1.19      0.00
    9   -6   13      0.25      0.00
    9   -6   14     -0.45      0.00
    9   -6   15      0.21      0.00
    9   -6   16     -0.49      0.00
    9   -6   17      0.07      0.00
    9   -6   18      0.97      0.00
    9   -6   19      0.04      0.00
    9   -6   20     -0.73      0.00
   -9    5   12     -0.53      0.00
   -9    5   11     -0.07      0.00
   -9    5   10      0.94      0.00
   -9    5    9     -0.21      0.00
   -9    5    8     -0.17      0.00
   -9    5    7     -0.13      0.00
   -9    5    6     -0.54      0.00
   -9    5    5     -0.10      0.00
   -9    5    4      1.02      0.00
   -9    5    3      0.11      0.00
   -9    5    2     -0.43      0.00
   -9    5    1     -0.21      0.00
   -9    5    0      0.12      0.00
    9   -5    1     -0.10      0.00
    9   -5    2     -0.17      0.00
    9   -5    3      0.30      0.00
    9   -5    4      0.35      0.00
    9   -5    5     -0.86      0.00
    9   -5    6      1.50      0.00
    9   -5    7     -1.27      0.00
    9   -5    8     -0.04      0.00
    9   -5    9     -0.60      0.00
    9   -5   10      1.16      0.00
    9   -5   11      0.40      0.00
    9   -5   12      0.21      0.00
    9   -5   13     -1.29      0.00
    9   -5   14     -0.53      0.00
    9   -5   15      0.45      0.00
    9   -5   16      1.31      0.00
    9   -5   17      0.10      0.00
    9   -5   18     -1.97      0.00
    9   -5   19      0.96      0.00
    9   -5   20      0.40      0.00
   -9    4   12      1.15      0.00
   -9    4   11     -0.46      0.00
   -9    4   10      0.19      0.00
   -9    4    9      0.11      0.00
   -9    4    8     -0.73      0.00
   -9    4    7     -0.13      0.00
   -9    4    6      0.59      0.00
   -9    4    5      0.26      0.00
   -9    4    4     -0.85      0.00
   -9    4    3      1.00      0.00
   -9    4    2      0.01      0.00
   -9    4    1     -0.67      0.00
   -9    4    0     -0.62      0.00
    9   -4    1      0.77      0.00
    9   -4    2      0.81      0.00
    9   -4    3     -1.54      0.00
    9   -4    4      0.86      0.00
    9   -4    5      0.65      0.00
    9   -4    6     -0.31      0.00
    9   -4    7     -1.34      0.00
    9   -4    8     -0.38      0.00
    9   -4    9      1.79      0.00
    9   -4   10      0.82      0.00
    9   -4   11     -0.91      0.00
    9   -4   12     -0.87      0.00
    9   -4   13     -0.12      0.00
    9   -4   14     -0.02      0.00
    9   -4   15      0.73      0.00
    9   -4   16      0.23      0.00
    9   -4   17      0.13      0.00
    9   -4   18      0.08      0.00
    9   -4   19     -1.40      0.00
    9   -4   20      0.80      0.00
   -9    3   13      0.09      0.00
   -9    3   12     -0.50      0.00
   -9    3   11      1.00      0.00
   -9    3   10     -0.71      0.00
   -9    3    9      0.04      0.00
   -9    3    8     -0.29      0.00
   -9    3    7      0.32      0.00
   -9    3    6     -0.48      0.00
   -9    3    5      0.79      0.00
   -9    3    4      0.53      0.00
   -9    3    3     -0.98      0.00
   -9    3    2     -0.58      0.00
   -9    3    1      0.51      0.00
   -9    3    0      0.86      0.00
    9   -3    1     -0.64      0.00
    9   -3    2     -0.53      0.00
    9   -3    3      1.11      0.00
    9   -3    4     -1.03      0.00
    9   -3    5      0.97      0.00
    9   -3    6     -1.10      0.00
    9   -3    7      0.64      0.00
    9   -3    8     -0.33      0.00
    9   -3    9      0.71      0.00
    9   -3   10     -0.32      0.00
    9   -3   11      0.36      0.00
    9   -3   12     -0.83      0.00
    9   -3   13     -0.55      0.00
    9   -3   14      0.41      0.00
    9   -3   15      1.14      0.00
    9   -3   16      0.92      0.00
    9   -3   17     -2.37      0.00
    9   -3   18      0.07      0.00
    9   -3   19      0.67      0.00
    9   -3   20      0.37      0.00
    9   -3   21      0.08      0.00
   -9    2   13      0.77      0.00
   -9    2   12     -0.54      0.00
   -9    2   11      0.11      0.00
   -9    2   10      0.36      0.00
   -9    2    9     -0.70      0.00
   -9    2    8     -0.39      0.00
   -9    2    7      0.63      0.00
   -9    2    6      1.07      0.00
   -9    2    5     -1.24      0.00
   -9    2    4      0.09      0.00
   -9    2    3      0.27      0.00
   -9    2    2      0.03      0.00
   -9    2    1     -0.81      0.00
   -9    2    0      0.59      0.00
    9   -2    1      1.04      0.00
    9   -2    2     -1.24      0.00
    9   -2    3     -0.57      0.00
    9   -2    4      1.43      0.00
    9   -2    5     -0.16      0.00
    9   -2    6     -0.67      0.00
    9   -2    7     -1.01      0.00
    9   -2    8      1.90      0.00
    9   -2    9      0.25      0.00
    9   -2   10     -0.60      0.00
    9   -2   11     -1.19      0.00
    9   -2   12      0.42      0.00
    9   -2   13     -0.17      0.00
    9   -2   14      1.13      0.00
    9   -2   15      0.48      0.00
    9   -2   16     -0.83      0.00
    9   -2   17     -0.12      0.00
    9   -2   18     -1.36      0.00
    9   -2   19      1.57      0.00
    9   -2   20     -0.40      0.00
    9   -2   21      0.57      0.00
   -9    1   13     -0.92      0.00
   -9    1   12      0.90      0.00
   -9    1   11     -0.48      0.00
   -9    1   10      0.17      0.00
   -9    1    9     -0.49      0.00
   -9    1    8      0.69      0.00
   -9    1    7     -0.43      0.00
   -9    1    6      0.13      0.00
   -9    1    5      0.64      0.00
   -9    1    4     -0.53      0.00
   -9    1    3     -0.68      0.00
   -9    1    2      0.03      0.00
   -9    1    1      1.49      0.00
   -9    1    0     -0.51      0.00
    9   -1    1     -1.25      0.00
    9   -1    2      0.81      0.00
    9   -1    3      0.15      0.00
    9   -1    4      0.41      0.00
    9   -1    5     -1.04      0.00
    9   -1    6      0.55      0.00
    9   -1    7      0.20      0.00
    9   -1    8      0.03      0.00
    9   -1    9     -0.81      0.00
    9   -1   10      0.63      0.00
    9   -1   11      0.07      0.00
    9   -1   12     -0.46      0.00
    9   -1   13     -0.05      0.00
    9   -1   14      0.68      0.00
    9   -1   15      0.89      0.00
    9   -1   16     -1.56      0.00
    9   -1   17     -0.75      0.00
    9   -1   18      1.17      0.00
    9   -1   19     -0.13      0.00
    9   -1   20      0.83      0.00
    9   -1   21     -1.05      0.00
   -9    0   13     -0.27      0.00
   -9    0   12     -0.05      0.00
   -9    0   11      1.00      0.00
   -9    0   10     -0.66      0.00
   -9    0    9     -0.75      0.00
   -9    0    8      0.29      0.00
   -9    0    7      1.44      0.00
   -9    0    6     -0.79      0.00
   -9    0    5     -0.60      0.00
   -9    0    4      0.25      0.00
   -9    0    3      0.30      0.00
   -9    0    2     -0.49      0.00
   -9    0    1     -0.06      0.00
    9    0    0      1.16      0.00
    9    0    1     -0.63      0.00
    9    0    2     -1.00      0.00
    9    0    3      0.92      0.00
    9    0    4      0.50      0.00
    9    0    5     -0.23      0.00
    9    0    6     -1.43      0.00
    9    0    7      1.21      0.00
    9    0    8      0.32      0.00
    9    0    9      0.06      0.00
    9    0   10     -1.27      0.00
    9    0   11      0.66      0.00
    9    0   12     -0.36      0.00
    9    0   13      1.00      0.00
    9    0   14      0.25      0.00
    9    0   15     -0.77      0.00
    9    0   16     -0.41      0.00
    9    0   17     -0.63      0.00
    9    0   18      1.18      0.00
    9    0   19      0.44      0.00
    9    0   20     -0.62      0.00
    9    0   21      0.29      0.00
   -9   -1   13      0.54      0.00
   -9   -1   12      0.27      0.00
   -9   -1   11      0.02      0.00
   -9   -1   10     -0.58      0.00
   -9   -1    9      0.57      0.00
   -9   -1    8     -0.13      0.00
   -9   -1    7     -0.18      0.00
   -9   -1    6      0.37      0.00
   -9   -1    5      0.00      0.00
   -9   -1    4     -0.51      0.00
   -9   -1    3     -0.52      0.00
   -9   -1    2      1.30      0.00
   -9   -1    1      0.08      0.00
    9    1    0     -1.16      0.00
    9    1    1      0.09      0.00
    9    1    2      0.88      0.00
    9    1    3      0.38      0.00
    9    1    4     -1.32      0.00
    9    1    5     -0.01      0.00
    9    1    6      0.83      0.00
    9    1    7      0.12      0.00
    9    1    8     -0.98      0.00
    9    1    9      0.46      0.00
    9    1   10      0.65      0.00
    9    1   11     -0.56      0.00
    9    1   12     -0.34      0.00
    9    1   13      0.37      0.00
    9    1   14      0.68      0.00
    9    1   15     -0.85      0.00
    9    1   16     -0.66      0.00
    9    1   17      1.20      0.00
    9    1   18     -0.59      0.00
    9    1   19      0.56      0.00
    9    1   20     -0.22      0.00
    9    1   21     -0.10      0.00
   -9   -2   13     -0.13      0.00
   -9   -2   12      1.23      0.00
   -9   -2   11     -0.30      0.00
   -9   -2   10     -1.00      0.00
   -9   -2    9     -0.22      0.00
   -9   -2    8      1.52      0.00
   -9   -2    7     -0.16      0.00
   -9   -2    6     -0.87      0.00
   -9   -2    5     -0.08      0.00
   -9   -2    4      0.25      0.00
   -9   -2    3      0.06      0.00
   -9   -2    2     -0.34      0.00
   -9   -2    1      1.13      0.00
    9    2    0     -0.38      0.00
    9    2    1     -0.69      0.00
    9    2    2     -0.22      0.00
    9    2    3      0.79      0.00
    9    2    4      0.26      0.00
    9    2    5     -0.99      0.00
    9    2    6      0.08      0.00
    9    2    7      0.61      0.00
    9    2    8      0.62      0.00
    9    2    9     -1.28      0.00
    9    2   10      0.03      0.00
    9    2   11      0.07      0.00
    9    2   12      1.15      0.00
    9    2   13     -0.52      0.00
    9    2   14     -0.54      0.00
    9    2   15     -0.10      0.00
    9    2   16      0.24      0.00
    9    2   17     -0.18      0.00
    9    2   18      0.99      0.00
    9    2   19     -0.83      0.00
    9    2   20      0.42      0.00
    9    2   21     -0.52      0.00
   -9   -3   13      0.84      0.00
   -9   -3   12     -0.01      0.00
   -9   -3   11     -0.60      0.00
   -9   -3   10      0.15      0.00
   -9   -3    9      0.14      0.00
   -9   -3    8     -0.20      0.00
   -9   -3    7      0.07      0.00
   -9   -3    6      0.19      0.00
   -9   -3    5     -0.31      0.00
   -9   -3    4     -0.49      0.00
   -9   -3    3      0.90      0.00
   -9   -3    2      0.49      0.00
   -9   -3    1     -0.98      0.00
    9    3    0     -0.38      0.00
    9    3    1      0.71      0.00
    9    3    2      0.79      0.00
    9    3    3     -1.23      0.00
    9    3    4     -0.57      0.00
    9    3    5      0.96      0.00
    9    3    6      0.85      0.00
    9    3    7     -1.07      0.00
    9    3    8     -0.24      0.00
    9    3    9      0.58      0.00
    9    3   10      0.04      0.00
    9    3   11     -0.44      0.00
    9    3   12      0.12      0.00
    9    3   13      0.52      0.00
    9    3   14     -0.62      0.00
    9    3   15     -0.13      0.00
    9    3   16      0.84      0.00
    9    3   17     -0.53      0.00
    9    3   18     -0.46      0.00
    9    3   19      0.84      0.00
    9    3   20     -0.02      0.00
    9    3   21     -0.25      0.00
   -9   -4   13      0.86      0.00
   -9   -4   12      0.07      0.00
   -9   -4   11     -0.91      0.00
   -9   -4   10     -0.72      0.00
   -9   -4    9      1.20      0.00
   -9   -4    8      0.38      0.00
   -9   -4    7     -0.73      0.00
   -9   -4    6     -0.50      0.00
   -9   -4    5      0.38      0.00
   -9   -4    4      0.52      0.00
   -9   -4    3     -0.35      0.00
   -9   -4    2      0.53      0.00
   -9   -4    1     -0.35      0.00
    9    4    0     -0.30      0.00
    9    4    1     -0.58      0.00
    9    4    2      0.60      0.00
    9    4    3      0.68      0.00
    9    4    7      0.90      0.00
    9    4    8     -0.63      0.00
    9    4    9     -0.73      0.00
    9    4   10      0.38      0.00
    9    4   11      1.63      0.00
    9    4   12     -1.39      0.00
    9    4   13     -0.89      0.00
    9    4   14      0.81      0.00
    9    4   15      1.30      0.00
    9    4   16     -1.80      0.00
    9    4   17      0.34      0.00
    9    4   18      0.36      0.00
    9    4   19      0.86      0.00
    9    4   20     -1.24      0.00
    9    4   21      0.13      0.00
   -9   -5   13      0.05      0.00
   -9   -5   12     -0.56      0.00
   -9   -5   11     -0.33      0.00
   -9   -5   10      0.30      0.00
   -9   -5    9     -0.02      0.00
   -9   -5    8     -0.11      0.00
   -9   -5    7      0.20      0.00
   -9   -5    6      0.05      0.00
   -9   -5    5     -0.25      0.00
   -9   -5    4      0.45      0.00
   -9   -5    3      0.26      0.00
   -9   -5    2     -0.88      0.00
   -9   -5    1     -0.35      0.00
    9    5    0      0.57      0.00
    9    5    1      1.01      0.00
    9    5    2     -0.65      0.00
    9    5    3     -1.07      0.00
    9    5    4      0.36      0.00
    9    5    5      1.34      0.00
    9    5    6     -0.59      0.00
    9    5    7     -0.74      0.00
    9    5    8      0.03      0.00
    9    5    9      1.01      0.00
    9    5   10     -0.50      0.00
    9    5   11     -0.60      0.00
    9    5   12      0.59      0.00
    9    5   13      0.02      0.00
    9    5   14      0.03      0.00
    9    5   15     -0.18      0.00
    9    5   16      0.12      0.00
    9    5   17     -0.84      0.00
    9    5   18      1.37      0.00
    9    5   19     -0.23      0.00
    9    5   20      0.01      0.00
    9    5   21     -1.41      0.00
   -9   -6   13      0.06      0.00
   -9   -6   12     -0.58      0.00
   -9   -6   11     -0.52      0.00
   -9   -6   10      0.56      0.00
   -9   -6    9      0.40      0.00
   -9   -6    8     -0.22      0.00
   -9   -6    7     -0.49      0.00
   -9   -6    6      0.50      0.00
   -9   -6    5      0.41      0.00
   -9   -6    4     -0.54      0.00
   -9   -6    3     -0.12      0.00
   -9   -6    2      0.09      0.00
   -9   -6    1      0.06      0.00
    9    6    0     -0.32      0.00
    9    6    1      0.06      0.00
    9    6    2      0.77      0.00
    9    6    3      0.26      0.00
    9    6    4     -1.26      0.00
    9    6    5     -0.37      0.00
    9    6    6      1.02      0.00
    9    6    7      0.56      0.00
    9    6    8     -0.91      0.00
    9    6    9     -0.42      0.00
    9    6   10      1.53      0.00
    9    6   11     -0.96      0.00
    9    6   12     -1.22      0.00
    9    6   13      1.20      0.00
    9    6   14      1.83      0.00
    9    6   15     -2.34      0.00
    9    6   16     -0.86      0.00
    9    6   17      1.74      0.00
    9    6   18      1.38      0.00
    9    6   19     -1.96      0.00
    9    6   20     -1.15      0.00
   -9   -7   13     -0.33      0.00
   -9   -7   12     -0.23      0.00
   -9   -7   11      0.12      0.00
   -9   -7   10      0.12      0.00
   -9   -7    9     -0.19      0.00
   -9   -7    8      0.31      0.00
   -9   -7    7      0.45      0.00
   -9   -7    6     -0.41      0.00
   -9   -7    5     -0.13      0.00
   -9   -7    4     -0.04      0.00
   -9   -7    3     -0.31      0.00
   -9   -7    2     -0.01      0.00
   -9   -7    1      0.50      0.00
    9    7    0      0.58      0.00
    9    7    1     -0.03      0.00
    9    7    2     -1.39      0.00
    9    7    3     -0.14      0.00
    9    7    4      1.00      0.00
    9    7    5      0.74      0.00
    9    7    6     -0.77      0.00
    9    7    7     -0.65      0.00
    9    7    8      0.84      0.00
    9    7    9     -0.14      0.00
    9    7   10     -0.98      0.00
    9    7   11      0.69      0.00
    9    7   12      1.06      0.00
    9    7   13     -0.60      0.00
    9    7   14     -1.27      0.00
    9    7   15      0.83      0.00
    9    7   16      0.30      0.00
    9    7   17      0.72      0.00
    9    7   18     -1.42      0.00
    9    7   19      0.53      0.00
    9    7   20     -0.80      0.00
   -9   -8   12      0.08      0.00
   -9   -8   11      0.01      0.00
   -9   -8   10     -0.13      0.00
   -9   -8    9      0.29      0.00
   -9   -8    8      0.03      0.00
   -9   -8    7      0.32      0.00
   -9   -8    6     -0.11      0.00
   -9   -8    5     -0.88      0.00
   -9   -8    4      0.01      0.00
   -9   -8    3      0.76      0.00
   -9   -8    2      0.23      0.00
   -9   -8    1     -0.50      0.00
    9    8    0     -0.45      0.00
    9    8    1      0.88      0.00
    9    8    2      0.28      0.00
    9    8    3     -1.05      0.00
    9    8    4     -0.47      0.00
    9    8    5      0.73      0.00
    9    8    6      1.28      0.00
    9    8    7     -0.77      0.00
    9    8    8     -1.10      0.00
    9    8    9      0.44      0.00
    9    8   10      0.59      0.00
    9    8   11     -0.93      0.00
    9    8   12      0.58      0.00
    9    8   13      1.40      0.00
    9    8   14     -1.42      0.00
    9    8   15     -1.27      0.00
    9    8   16      1.38      0.00
    9    8   17      1.33      0.00
    9    8   18     -1.50      0.00
    9    8   19     -1.80      0.00
    9    8   20      2.27      0.00
   -9   -9   12     -0.39      0.00
   -9   -9   11      0.06      0.00
   -9   -9   10     -0.06      0.00
   -9   -9    9      0.58      0.00
   -9   -9    8      0.42      0.00
   -9   -9    7     -0.83      0.00
   -9   -9    6     -0.55      0.00
   -9   -9    5      0.41      0.00
   -9   -9    4      0.21      0.00
   -9   -9    3      0.10      0.00
   -9   -9    2     -0.12      0.00
   -9   -9    1      0.38      0.00
    9    9    0      0.38      0.00
    9    9    1     -1.44      0.00
    9    9    2     -0.16      0.00
    9    9    3      0.44      0.00
    9    9    4      1.75      0.00
    9    9    5     -0.71      0.00
    9    9    6     -1.05      0.00
    9    9    7     -0.11      0.00
    9    9    8      0.41      0.00
    9    9    9     -0.30      0.00
    9    9   10      0.28      0.00
    9    9   11      1.64      0.00
    9    9   12     -1.39      0.00
    9    9   13     -1.27      0.00
    9    9   14      0.69      0.00
    9    9   15      1.64      0.00
    9    9   16     -0.56      0.00
    9    9   17     -2.17      0.00
    9    9   18      1.22      0.00
    9    9   19      1.05      0.00
    9    9   20     -0.12      0.00
   -9  -10   12     -0.12      0.00
   -9  -10   11     -0.41      0.00
   -9  -10   10      0.62      0.00
   -9  -10    9      0.25      0.00
   -9  -10    8     -0.12      0.00
   -9  -10    7     -0.18      0.00
   -9  -10    6     -0.73      0.00
   -9  -10    5      0.20      0.00
   -9  -10    4      0.75      0.00
   -9  -10    3      0.26      0.00
   -9  -10    2     -0.49      0.00
   -9  -10    1     -0.90      0.00
    9   10    0      1.09      0.00
    9   10    1      0.26      0.00
    9   10    2     -0.79      0.00
    9   10    3     -0.30      0.00
    9   10    4      0.37      0.00
    9   10    5      1.04      0.00
    9   10    6     -0.50      0.00
    9   10    7     -0.70      0.00
    9   10    8     -0.55      0.00
    9   10    9      1.00      0.00
    9   10   10      0.01      0.00
    9   10   11     -0.03      0.00
    9   10   12      0.88      0.00
    9   10   13     -0.94      0.00
    9   10   14     -0.72      0.00
    9   10   15     -0.35      0.00
    9   10   16      1.65      0.00
    9   10   17     -0.19      0.00
    9   10   18     -0.99      0.00
    9   10   19      1.06      0.00
    9   10   20      0.04      0.00
   -9  -11   12      0.10      0.00
   -9  -11   11      0.35      0.00
   -9  -11   10      0.49      0.00
   -9  -11    9     -0.05      0.00
   -9  -11    8     -0.84      0.00
   -9  -11    7     -0.45      0.00
   -9  -11    6      1.10      0.00
   -9  -11    5     -0.11      0.00
   -9  -11    4     -0.01      0.00
   -9  -11    3     -0.81      0.00
   -9  -11    2      1.02      0.00
   -9  -11    1      0.57      0.00
    9   11    0     -1.60      0.00
    9   11    1     -0.34      0.00
    9   11    2      0.60      0.00
    9   11    3      1.96      0.00
    9   11    4     -1.07      0.00
    9   11    5     -0.94      0.00
    9   11    6     -0.53      0.00
    9   11    7      0.77      0.00
    9   11    8      0.22      0.00
    9   11    9      0.17      0.00
    9   11   10      1.15      0.00
    9   11   11     -1.33      0.00
    9   11   12     -1.02      0.00
    9   11   13      0.19      0.00
    9   11   14      1.78      0.00
    9   11   15     -0.59      0.00
    9   11   16     -1.69      0.00
    9   11   17      1.45      0.00
    9   11   18      1.40      0.00
    9   11   19     -1.18      0.00
   -9  -12   11      0.49      0.00
   -9  -12   10     -0.04      0.00
   -9  -12    9     -0.54      0.00
   -9  -12    8      0.42      0.00
   -9  -12    7     -0.05      0.00
   -9  -12    6     -0.33      0.00
   -9  -12    5     -0.13      0.00
   -9  -12    4      0.44      0.00
   -9  -12    3      0.80      0.00
   -9  -12    2     -1.43      0.00
   -9  -12    1      0.49      0.00
    9   12    0      0.21      0.00
    9   12    1      0.05      0.00
    9   12    2     -0.58      0.00
    9   12    3      0.21      0.00
    9   12    4      0.53      0.00
    9   12    5     -0.16      0.00
    9   12    6     -0.13      0.00
    9   12    7     -0.52      0.00
    9   12    8      0.13      0.00
    9   12    9      0.51      0.00
    9   12   10      0.19      0.00
    9   12   11      0.56      0.00
    9   12   12     -1.26      0.00
    9   12   13     -0.39      0.00
    9   12   14     -0.84      0.00
    9   12   15      2.42      0.00
    9   12   16      0.34      0.00
    9   12   17     -0.57      0.00
    9   12   18     -1.21      0.00
    9   12   19      0.06      0.00
   -9  -13   10     -0.53      0.00
   -9  -13    9     -0.18      0.00
   -9  -13    8     -0.05      0.00
   -9  -13    7      1.03      0.00
   -9  -13    6     -0.98      0.00
   -9  -13    5      0.31      0.00
   -9  -13    4     -0.70      0.00
   -9  -13    3      1.42      0.00
   -9  -13    2      0.34      0.00
   -9  -13    1     -1.57      0.00
    9   13    0     -0.87      0.00
    9   13    1      1.04      0.00
    9   13    2      2.20      0.00
    9   13    3     -1.58      0.00
    9   13    4     -0.88      0.00
    9   13    5     -0.46      0.00
    9   13    6      1.31      0.00
    9   13    7     -0.20      0.00
    9   13    8      0.77      0.00
    9   13    9     -0.30      0.00
    9   13   10     -0.58      0.00
    9   13   11     -1.16      0.00
    9   13   12      0.62      0.00
    9   13   13      1.27      0.00
    9   13   14      0.07      0.00
    9   13   15     -1.21      0.00
    9   13   16      0.74      0.00
    9   13   17      0.36      0.00
    9   13   18     -0.81      0.00
    9   13   19     -1.20      0.00
   -9  -14   10     -0.45      0.00
   -9  -14    9      0.78      0.00
   -9  -14    8      0.25      0.00
   -9  -14    7     -0.92      0.00
   -9  -14    6     -0.70      0.00
   -9  -14    5      0.59      0.00
   -9  -14    4      2.26      0.00
   -9  -14    3     -1.64      0.00
   -9  -14    2     -0.81      0.00
   -9  -14    1     -0.23      0.00
    9   14    0      1.58      0.00
    9   14    1     -0.84      0.00
    9   14    2     -0.13      0.00
    9   14    3      0.43      0.00
    9   14    4      0.02      0.00
    9   14    5     -0.14      0.00
    9   14    6     -0.06      0.00
    9   14    7     -0.08      0.00
    9   14    8     -0.42      0.00
    9   14    9      0.76      0.00
    9   14   10      0.38      0.00
    9   14   11     -0.41      0.00
    9   14   12     -1.23      0.00
    9   14   13     -0.08      0.00
    9   14   14      2.20      0.00
    9   14   15      0.12      0.00
    9   14   16     -0.84      0.00
    9   14   17     -2.00      0.00
    9   14   18      1.04      0.00
   -9  -15    9     -0.06      0.00
   -9  -15    8      0.48      0.00
   -9  -15    7     -1.37      0.00
   -9  -15    6      0.98      0.00
   -9  -15    5      0.01      0.00
   -9  -15    4      0.76      0.00
   -9  -15    3     -0.49      0.00
   -9  -15    2     -0.75      0.00
   -9  -15    1     -0.88      0.00
    9   15    0      0.68      0.00
    9   15    1      2.46      0.00
    9   15    2     -1.15      0.00
    9   15    3     -1.36      0.00
    9   15    4     -0.68      0.00
    9   15    5      1.77      0.00
    9   15    6     -0.16      0.00
    9   15    7      0.83      0.00
    9   15    8     -1.48      0.00
    9   15    9     -0.06      0.00
    9   15   10     -0.58      0.00
    9   15   11      1.31      0.00
    9   15   12      0.71      0.00
    9   15   13     -0.64      0.00
    9   15   14     -0.84      0.00
    9   15   15      0.17      0.00
    9   15   16      0.30      0.00
    9   15   17      0.26      0.00
   -9  -16   10      0.32      0.00
   -9  -16    9     -0.12      0.00
   -9  -16    8     -0.91      0.00
   -9  -16    7      0.03      0.00
   -9  -16    6      0.41      0.00
   -9  -16    5      2.01      0.00
   -9  -16    4     -1.43      0.00
   -9  -16    3     -1.10      0.00
   -9  -16    2     -0.96      0.00
   -9  -16    1      2.50      0.00
    9   16    0     -0.38      0.00
    9   16    1     -0.49      0.00
    9   16    2      0.31      0.00
    9   16    3     -0.11      0.00
    9   16    4     -0.56      0.00
    9   16    5      0.30      0.00
    9   16    6      0.68      0.00
    9   16    7     -1.34      0.00
    9   16    8      0.44      0.00
    9   16    9      0.72      0.00
    9   16   10      1.22      0.00
    9   16   11     -2.64      0.00
    9   16   12     -0.13      0.00
    9   16   13      1.55      0.00
    9   16   14      0.55      0.00
    9   16   15     -0.49      0.00
    9   16   16     -1.84      0.00
    9   16   17      1.30      0.00
   -9  -17    9      0.23      0.00
   -9  -17    8     -0.57      0.00
   -9  -17    7      1.02      0.00
   -9  -17    5     -0.27      0.00
   -9  -17    4     -1.16      0.00
   -9  -17    3      0.21      0.00
   -9  -17    2      0.15      0.00
   -9  -17    1     -0.27      0.00
    9   17    0      1.94      0.00
    9   17    1     -0.07      0.00
    9   17    2     -1.82      0.00
    9   17    3     -1.23      0.00
    9   17    4      1.56      0.00
    9   17    5      1.23      0.00
    9   17    6      0.12      0.00
    9   17    7     -1.85      0.00
    9   17    8      0.00      0.00
    9   17    9      0.28      0.00
    9   17   10      1.28      0.00
    9   17   11      0.17      0.00
    9   17   12     -1.70      0.00
    9   17   13     -0.03      0.00
    9   17   14      0.47      0.00
    9   17   15      0.71      0.00
    9   17   16      0.43      0.00
    9   17   17     -1.66      0.00
   -9  -18    9     -0.54      0.00
   -9  -18    7      0.21      0.00
   -9  -18    6      0.35      0.00
   -9  -18    5     -1.13      0.00
   -9  -18    4     -0.01      0.00
   -9  -18    3     -0.93      0.00
   -9  -18    2      1.83      0.00
   -9  -18    1      0.24      0.00
    9   18    0     -0.49      0.00
    9   18    1     -0.18      0.00
    9   18    2     -0.38      0.00
    9   18    3     -0.66      0.00
    9   18    4      0.82      0.00
    9   18    5      1.05      0.00
    9   18    6     -0.90      0.00
    9   18    7     -0.98      0.00
    9   18    8      1.08      0.00
    9   18   10     -3.01      0.00
    9   18   11     -0.68      0.00
    9   18   12      1.53      0.00
    9   18   13      1.35      0.00
    9   18   14     -0.24      0.00
    9   18   15     -1.90      0.00
   -9  -19    4      0.52      0.00
   -9  -19    3      1.15      0.00
   -9  -19    2     -0.77      0.00
   -9  -19    1      0.61      0.00
    9   19    2     -1.14      0.00
    9   19    3      1.07      0.00
    9   19    4      2.33      0.00
    9   19    5     -0.50      0.00
    9   19    6     -2.11      0.00
    9   19    8      0.37      0.00
    9   19    9      1.02      0.00
    9   19   10      0.09      0.00
    9   19   11     -1.39      0.00
    9   19   12      0.27      0.00
    9   19   15      0.07      0.00
   -9  -20    4     -0.07      0.00
   -9  -20    2      0.10      0.00
    9   20    0     -0.28      0.00
    9   20    3      0.93      0.00
    9   20    5     -0.08      0.00
    9   20    6     -1.76      0.00
    9   20    7      0.76      0.00
    9   20    8      1.77      0.00
    9   20    9     -1.96      0.00
    9   21    4     -0.75      0.00
    9   21    5     -1.91      0.00
   10  -13    1     -0.17      0.00
   10  -12    1     -0.37      0.00
   10  -12    2     -0.95      0.00
   10  -12    3      1.26      0.00
   10  -12    5     -0.76      0.00
   10  -12    6      0.29      0.00
   10  -12    7     -0.08      0.00
   10  -12   12     -0.09      0.00
  -10   11    4     -0.06      0.00
  -10   11    3      0.25      0.00
  -10   11    2     -0.38      0.00
  -10   11    1      0.40      0.00
  -10   11    0     -1.34      0.00
   10  -11    2      0.09      0.00
   10  -11    3     -0.49      0.00
   10  -11    4     -0.10      0.00
   10  -11    5      0.32      0.00
   10  -11    6     -0.13      0.00
   10  -11    7      0.00      0.00
   10  -11    9      0.73      0.00
   10  -11   10     -1.01      0.00
   10  -11   11      0.66      0.00
   10  -11   12     -0.41      0.00
   10  -11   13      0.64      0.00
   10  -11   14     -0.85      0.00
   10  -11   15      0.69      0.00
  -10   10    8     -0.40      0.00
  -10   10    7     -0.24      0.00
  -10   10    5      1.46      0.00
  -10   10    4     -0.28      0.00
  -10   10    3      0.03      0.00
  -10   10    2     -0.65      0.00
  -10   10    1     -0.15      0.00
  -10   10    0      0.77      0.00
   10  -10    1     -1.13      0.00
   10  -10    2      1.13      0.00
   10  -10    3      0.05      0.00
   10  -10    4     -0.36      0.00
   10  -10    5     -0.38      0.00
   10  -10    6      0.30      0.00
   10  -10    7      0.37      0.00
   10  -10    8     -0.79      0.00
   10  -10   10      0.36      0.00
   10  -10   11     -0.51      0.00
   10  -10   12     -0.12      0.00
   10  -10   13      0.54      0.00
   10  -10   14      0.26      0.00
   10  -10   15     -1.14      0.00
   10  -10   16      0.46      0.00
  -10    9    8     -1.17      0.00
  -10    9    7      0.88      0.00
  -10    9    6      0.59      0.00
  -10    9    5     -0.17      0.00
  -10    9    4      0.51      0.00
  -10    9    3     -1.03      0.00
  -10    9    2      0.51      0.00
  -10    9    1     -1.28      0.00
  -10    9    0      1.10      0.00
   10   -9    1      0.79      0.00
   10   -9    2     -0.39      0.00
   10   -9    3     -1.16      0.00
   10   -9    4      0.72      0.00
   10   -9    5      0.35      0.00
   10   -9    6      0.15      0.00
   10   -9    7     -1.28      0.00
   10   -9    8      1.28      0.00
   10   -9    9     -0.79      0.00
   10   -9   10      0.53      0.00
   10   -9   11     -0.53      0.00
   10   -9   12      1.21      0.00
   10   -9   13     -1.38      0.00
   10   -9   14      0.49      0.00
   10   -9   15     -0.25      0.00
   10   -9   16      0.67      0.00
  -10    8    9     -0.38      0.00
  -10    8    8      0.24      0.00
  -10    8    7     -0.60      0.00
  -10    8    6      1.24      0.00
  -10    8    5     -0.09      0.00
  -10    8    4     -0.17      0.00
  -10    8    3     -0.38      0.00
  -10    8    2     -0.98      0.00
  -10    8    1      1.40      0.00
  -10    8    0     -0.53      0.00
   10   -8    1      0.52      0.00
   10   -8    2     -0.52      0.00
   10   -8    3      0.87      0.00
   10   -8    4     -0.88      0.00
   10   -8    5      0.25      0.00
   10   -8    6     -0.85      0.00
   10   -8    7      1.06      0.00
   10   -8    8     -0.39      0.00
   10   -8    9      0.93      0.00
   10   -8   10     -1.29      0.00
   10   -8   11      0.45      0.00
   10   -8   12     -0.08      0.00
   10   -8   13      0.95      0.00
   10   -8   14     -1.84      0.00
   10   -8   15      0.95      0.00
   10   -8   16     -0.12      0.00
   10   -8   17      1.26      0.00
   10   -8   18     -1.05      0.00
  -10    7    9     -0.71      0.00
  -10    7    8      0.47      0.00
  -10    7    7      0.71      0.00
  -10    7    6     -0.33      0.00
  -10    7    5      0.50      0.00
  -10    7    4     -0.98      0.00
  -10    7    3     -0.11      0.00
  -10    7    2      0.00      0.00
  -10    7    1      0.29      0.00
  -10    7    0      0.69      0.00
   10   -7    1     -0.07      0.00
   10   -7    2     -0.64      0.00
   10   -7    3     -0.07      0.00
   10   -7    4      0.24      0.00
   10   -7    5     -0.01      0.00
   10   -7    6     -0.35      0.00
   10   -7    7      0.36      0.00
   10   -7    8      0.54      0.00
   10   -7    9     -0.70      0.00
   10   -7   10     -0.07      0.00
   10   -7   11      0.71      0.00
   10   -7   12     -0.73      0.00
   10   -7   13     -0.27      0.00
   10   -7   14      0.70      0.00
   10   -7   15      0.19      0.00
   10   -7   16     -0.22      0.00
   10   -7   17     -0.91      0.00
   10   -7   18      1.04      0.00
   10   -7   19     -0.05      0.00
  -10    6    9      0.16      0.00
  -10    6    8     -0.27      0.00
  -10    6    7      0.61      0.00
  -10    6    6     -0.04      0.00
  -10    6    5     -0.59      0.00
  -10    6    4      0.21      0.00
  -10    6    3     -0.48      0.00
  -10    6    2      0.34      0.00
  -10    6    1      0.21      0.00
  -10    6    0      0.40      0.00
   10   -6    1     -0.50      0.00
   10   -6    2      0.69      0.00
   10   -6    3     -0.98      0.00
   10   -6    4      0.30      0.00
   10   -6    5     -1.45      0.00
   10   -6    6      2.18      0.00
   10   -6    7      0.03      0.00
   10   -6    8      0.01      0.00
   10   -6    9     -1.49      0.00
   10   -6   10      0.33      0.00
   10   -6   11      0.21      0.00
   10   -6   12      1.02      0.00
   10   -6   13     -1.22      0.00
   10   -6   14      0.44      0.00
   10   -6   15     -0.16      0.00
   10   -6   16      0.59      0.00
   10   -6   18     -0.93      0.00
  -10    5   10     -0.52      0.00
  -10    5    9      0.55      0.00
  -10    5    8      0.21      0.00
  -10    5    7     -0.47      0.00
  -10    5    6      0.15      0.00
  -10    5    5      0.15      0.00
  -10    5    4     -0.81      0.00
  -10    5    3      0.40      0.00
  -10    5    2      0.27      0.00
  -10    5    1      0.36      0.00
  -10    5    0     -0.14      0.00
   10   -5    1      0.01      0.00
   10   -5    2     -0.63      0.00
   10   -5    3     -0.10      0.00
   10   -5    4     -0.41      0.00
   10   -5    5      1.89      0.00
   10   -5    6     -0.97      0.00
   10   -5    7      0.72      0.00
   10   -5    8     -1.73      0.00
   10   -5    9      0.70      0.00
   10   -5   10      0.51      0.00
   10   -5   11     -0.01      0.00
   10   -5   12     -0.85      0.00
   10   -5   13      1.05      0.00
   10   -5   14     -0.04      0.00
   10   -5   15     -0.57      0.00
   10   -5   16     -0.74      0.00
   10   -5   17      1.02      0.00
   10   -5   18      0.82      0.00
   10   -5   19     -1.23      0.00
  -10    4   10     -0.02      0.00
  -10    4    9     -0.22      0.00
  -10    4    8      0.17      0.00
  -10    4    7      0.15      0.00
  -10    4    6     -0.54      0.00
  -10    4    5     -0.10      0.00
  -10    4    4      0.69      0.00
  -10    4    3     -0.56      0.00
  -10    4    2      0.35      0.00
  -10    4    1      0.24      0.00
  -10    4    0      0.04      0.00
   10   -4    1     -0.35      0.00
   10   -4    2     -0.75      0.00
   10   -4    3      0.79      0.00
   10   -4    4     -0.58      0.00
   10   -4    5      0.83      0.00
   10   -4    6      0.91      0.00
   10   -4    7     -1.22      0.00
   10   -4    8     -0.67      0.00
   10   -4    9     -0.11      0.00
   10   -4   10      1.01      0.00
   10   -4   11      0.37      0.00
   10   -4   12     -0.38      0.00
   10   -4   13     -0.20      0.00
   10   -4   14     -0.28      0.00
   10   -4   15     -0.22      0.00
   10   -4   16      0.87      0.00
   10   -4   17     -0.21      0.00
   10   -4   18     -0.49      0.00
   10   -4   19      0.54      0.00
  -10    3   11     -0.78      0.00
  -10    3   10      0.70      0.00
  -10    3    9     -0.13      0.00
  -10    3    8     -0.27      0.00
  -10    3    7     -0.38      0.00
  -10    3    6      0.95      0.00
  -10    3    5     -0.62      0.00
  -10    3    4     -0.25      0.00
  -10    3    3      0.69      0.00
  -10    3    2      0.24      0.00
  -10    3    1     -0.46      0.00
  -10    3    0     -0.37      0.00
   10   -3    1      0.09      0.00
   10   -3    2      0.30      0.00
   10   -3    3     -1.10      0.00
   10   -3    4      2.33      0.00
   10   -3    5     -1.00      0.00
   10   -3    6      0.01      0.00
   10   -3    7     -1.68      0.00
   10   -3    8      1.10      0.00
   10   -3    9      0.96      0.00
   10   -3   10     -0.08      0.00
   10   -3   11     -1.23      0.00
   10   -3   12      0.76      0.00
   10   -3   13      0.14      0.00
   10   -3   14     -0.68      0.00
   10   -3   15     -0.27      0.00
   10   -3   16      0.77      0.00
   10   -3   17      1.35      0.00
   10   -3   18     -1.72      0.00
   10   -3   19     -0.48      0.00
  -10    2   11      0.00      0.00
  -10    2   10     -0.32      0.00
  -10    2    9      0.22      0.00
  -10    2    8      0.30      0.00
  -10    2    7     -0.26      0.00
  -10    2    6     -0.78      0.00
  -10    2    5      1.05      0.00
  -10    2    4     -0.14      0.00
  -10    2    3      0.10      0.00
  -10    2    2     -0.37      0.00
  -10    2    1      0.23      0.00
  -10    2    0     -0.30      0.00
   10   -2    1     -0.39      0.00
   10   -2    2      0.72      0.00
   10   -2    3      0.32      0.00
   10   -2    4     -0.91      0.00
   10   -2    5      1.22      0.00
   10   -2    6     -1.23      0.00
   10   -2    7      0.35      0.00
   10   -2    8     -0.58      0.00
   10   -2    9      1.18      0.00
   10   -2   10     -0.34      0.00
   10   -2   11      0.09      0.00
   10   -2   12     -0.38      0.00
   10   -2   13      0.00      0.00
   10   -2   14     -0.81      0.00
   10   -2   15      1.22      0.00
   10   -2   16      0.72      0.00
   10   -2   17     -1.17      0.00
   10   -2   18      0.03      0.00
   10   -2   19     -0.56      0.00
   10   -2   20      1.06      0.00
  -10    1   11      0.59      0.00
  -10    1   10      0.18      0.00
  -10    1    9      0.04      0.00
  -10    1    8     -0.89      0.00
  -10    1    7      0.74      0.00
  -10    1    6      0.14      0.00
  -10    1    5     -0.48      0.00
  -10    1    4      0.48      0.00
  -10    1    3      0.08      0.00
  -10    1    2     -0.39      0.00
  -10    1    1     -0.80      0.00
  -10    1    0      0.95      0.00
   10   -1    1      0.79      0.00
   10   -1    2     -1.60      0.00
   10   -1    3      0.86      0.00
   10   -1    4      0.21      0.00
   10   -1    5      0.05      0.00
   10   -1    6     -1.37      0.00
   10   -1    7      0.52      0.00
   10   -1    8      1.36      0.00
   10   -1    9     -0.25      0.00
   10   -1   10     -1.40      0.00
   10   -1   11      0.46      0.00
   10   -1   12      0.62      0.00
   10   -1   13     -0.57      0.00
   10   -1   14     -0.01      0.00
   10   -1   15      0.42      0.00
   10   -1   16      1.04      0.00
   10   -1   17     -1.45      0.00
   10   -1   18     -0.92      0.00
   10   -1   19      1.09      0.00
   10   -1   20      0.29      0.00
  -10    0   11     -0.17      0.00
  -10    0   10      0.51      0.00
  -10    0    9      0.20      0.00
  -10    0    8     -0.36      0.00
  -10    0    7     -0.86      0.00
  -10    0    6      0.80      0.00
  -10    0    5      0.48      0.00
  -10    0    4     -0.10      0.00
  -10    0    3     -0.72      0.00
  -10    0    2      0.01      0.00
  -10    0    1      0.44      0.00
   10    0    0     -0.30      0.00
   10    0    1      0.16      0.00
   10    0    2      0.46      0.00
   10    0    3     -0.79      0.00
   10    0    4      0.78      0.00
   10    0    5     -0.90      0.00
   10    0    6      0.71      0.00
   10    0    7     -0.66      0.00
   10    0    8      0.81      0.00
   10    0    9     -0.67      0.00
   10    0   10      0.55      0.00
   10    0   11     -0.41      0.00
   10    0   12      0.38      0.00
   10    0   13     -1.08      0.00
   10    0   14      0.96      0.00
   10    0   15      0.89      0.00
   10    0   16     -1.04      0.00
   10    0   17     -0.42      0.00
   10    0   18     -0.38      0.00
   10    0   19      1.01      0.00
   10    0   20      0.37      0.00
  -10   -1   11      0.75      0.00
  -10   -1   10      0.11      0.00
  -10   -1    9     -1.29      0.00
  -10   -1    8      0.29      0.00
  -10   -1    7      0.69      0.00
  -10   -1    6     -0.01      0.00
  -10   -1    5     -0.22      0.00
  -10   -1    4     -0.16      0.00
  -10   -1    3      0.01      0.00
  -10   -1    2     -0.65      0.00
  -10   -1    1      0.93      0.00
   10    1    0      0.69      0.00
   10    1    1     -1.29      0.00
   10    1    2     -0.23      0.00
   10    1    3      0.86      0.00
   10    1    4      0.56      0.00
   10    1    5     -1.23      0.00
   10    1    6     -0.45      0.00
   10    1    7      1.39      0.00
   10    1    8      0.15      0.00
   10    1    9     -1.12      0.00
   10    1   10     -0.01      0.00
   10    1   11      0.92      0.00
   10    1   12     -0.54      0.00
   10    1   13      0.02      0.00
   10    1   14      0.12      0.00
   10    1   15      0.68      0.00
   10    1   16     -0.98      0.00
   10    1   17     -0.86      0.00
   10    1   18      1.27      0.00
   10    1   19      0.25      0.00
   10    1   20      0.06      0.00
  -10   -2   11      0.52      0.00
  -10   -2   10      0.10      0.00
  -10   -2    9     -0.52      0.00
  -10   -2    8     -0.64      0.00
  -10   -2    7      0.65      0.00
  -10   -2    6      0.49      0.00
  -10   -2    5     -0.15      0.00
  -10   -2    4     -0.58      0.00
  -10   -2    3     -0.08      0.00
  -10   -2    2      0.66      0.00
  -10   -2    1     -0.53      0.00
   10    2    0      0.15      0.00
   10    2    1      0.30      0.00
   10    2    2      0.20      0.00
   10    2    3     -0.15      0.00
   10    2    4     -1.03      0.00
   10    2    5      0.63      0.00
   10    2    6      0.21      0.00
   10    2    7      0.31      0.00
   10    2    8     -0.71      0.00
   10    2    9      0.68      0.00
   10    2   10     -0.35      0.00
   10    2   11      0.02      0.00
   10    2   12     -0.73      0.00
   10    2   13      1.06      0.00
   10    2   14      0.32      0.00
   10    2   15     -0.90      0.00
   10    2   16     -0.31      0.00
   10    2   17      0.34      0.00
   10    2   18      0.18      0.00
   10    2   19      0.58      0.00
   10    2   20     -0.45      0.00
  -10   -3   11      0.24      0.00
  -10   -3   10     -1.35      0.00
  -10   -3    9     -0.06      0.00
  -10   -3    8      0.80      0.00
  -10   -3    7      0.41      0.00
  -10   -3    6     -0.71      0.00
  -10   -3    5     -0.27      0.00
  -10   -3    4      0.38      0.00
  -10   -3    3     -0.35      0.00
  -10   -3    2      0.48      0.00
  -10   -3    1      0.52      0.00
   10    3    0     -0.67      0.00
   10    3    1     -0.41      0.00
   10    3    2      0.18      0.00
   10    3    3      0.80      0.00
   10    3    4     -0.55      0.00
   10    3    5     -0.73      0.00
   10    3    6      0.69      0.00
   10    3    7      0.73      0.00
   10    3    8     -0.61      0.00
   10    3    9     -0.47      0.00
   10    3   10      0.26      0.00
   10    3   11      0.15      0.00
   10    3   12      0.11      0.00
   10    3   13     -0.16      0.00
   10    3   14      0.25      0.00
   10    3   15     -0.45      0.00
   10    3   16     -0.38      0.00
   10    3   17      0.75      0.00
   10    3   18      0.31      0.00
   10    3   19     -0.29      0.00
   10    3   20     -0.23      0.00
  -10   -4   11      0.07      0.00
  -10   -4   10     -0.37      0.00
  -10   -4    9     -0.67      0.00
  -10   -4    8      0.50      0.00
  -10   -4    7      0.19      0.00
  -10   -4    6      0.15      0.00
  -10   -4    5     -0.42      0.00
  -10   -4    4      0.04      0.00
  -10   -4    3      0.45      0.00
  -10   -4    2     -0.66      0.00
  -10   -4    1      0.35      0.00
   10    4    0      0.21      0.00
   10    4    1      0.34      0.00
   10    4    2     -0.60      0.00
   10    4    3     -0.95      0.00
   10    4    4      0.63      0.00
   10    4    5      1.10      0.00
   10    4    6     -0.19      0.00
   10    4    7     -0.85      0.00
   10    4    8      0.34      0.00
   10    4    9     -0.01      0.00
   10    4   10     -0.29      0.00
   10    4   11     -0.44      0.00
   10    4   12      1.80      0.00
   10    4   13     -0.59      0.00
   10    4   14     -1.28      0.00
   10    4   15     -0.03      0.00
   10    4   16      1.76      0.00
   10    4   17     -0.75      0.00
   10    4   18     -0.34      0.00
   10    4   19     -0.03      0.00
   10    4   20      0.55      0.00
  -10   -5   11     -0.91      0.00
  -10   -5   10     -0.58      0.00
  -10   -5    9      0.54      0.00
  -10   -5    8      0.54      0.00
  -10   -5    7     -0.47      0.00
  -10   -5    6     -0.36      0.00
  -10   -5    5      0.67      0.00
  -10   -5    4     -0.35      0.00
  -10   -5    3      0.14      0.00
  -10   -5    2      0.44      0.00
  -10   -5    1     -0.33      0.00
   10    5    0     -0.53      0.00
   10    5    1     -0.47      0.00
   10    5    2      0.90      0.00
   10    5    3      0.78      0.00
   10    5    4     -0.70      0.00
   10    5    5     -0.73      0.00
   10    5    6      0.62      0.00
   10    5    7      0.24      0.00
   10    5    8     -0.13      0.00
   10    5    9     -0.93      0.00
   10    5   10      1.04      0.00
   10    5   11      0.42      0.00
   10    5   12     -0.90      0.00
   10    5   13     -0.31      0.00
   10    5   14      0.46      0.00
   10    5   15      0.65      0.00
   10    5   16     -0.73      0.00
   10    5   17      0.15      0.00
   10    5   18     -0.15      0.00
   10    5   19      0.52      0.00
   10    5   20     -0.67      0.00
  -10   -6   11     -0.32      0.00
  -10   -6   10     -0.58      0.00
  -10   -6    9      0.36      0.00
  -10   -6    8     -0.02      0.00
  -10   -6    7      0.53      0.00
  -10   -6    6     -0.18      0.00
  -10   -6    5     -0.04      0.00
  -10   -6    4      0.21      0.00
  -10   -6    3     -0.67      0.00
  -10   -6    2      0.19      0.00
  -10   -6    1      0.28      0.00
   10    6    0      0.01      0.00
   10    6    1     -0.16      0.00
   10    6    2     -0.43      0.00
   10    6    3      0.42      0.00
   10    6    4      0.77      0.00
   10    6    5     -0.51      0.00
   10    6    6     -0.62      0.00
   10    6    7      0.10      0.00
   10    6    8      0.40      0.00
   10    6    9      0.09      0.00
   10    6   10     -0.90      0.00
   10    6   11      1.80      0.00
   10    6   12     -0.78      0.00
   10    6   13     -1.24      0.00
   10    6   14     -0.09      0.00
   10    6   15      2.54      0.00
   10    6   16     -0.89      0.00
   10    6   17     -1.62      0.00
   10    6   18      0.33      0.00
   10    6   19      1.47      0.00
  -10   -7   11     -0.65      0.00
  -10   -7   10      0.18      0.00
  -10   -7    9      0.38      0.00
  -10   -7    8      0.24      0.00
  -10   -7    7     -0.39      0.00
  -10   -7    6      0.76      0.00
  -10   -7    5     -0.63      0.00
  -10   -7    4     -0.17      0.00
  -10   -7    3      0.36      0.00
  -10   -7    2     -0.01      0.00
  -10   -7    1     -0.64      0.00
   10    7    0     -0.30      0.00
   10    7    1      0.80      0.00
   10    7    2      1.73      0.00
   10    7    3     -1.26      0.00
   10    7    4     -1.60      0.00
   10    7    5     -0.05      0.00
   10    7    6      1.55      0.00
   10    7    7      0.71      0.00
   10    7    8     -1.54      0.00
   10    7    9      0.52      0.00
   10    7   10      0.61      0.00
   10    7   11     -1.33      0.00
   10    7   12     -0.48      0.00
   10    7   13      1.58      0.00
   10    7   14      1.40      0.00
   10    7   15     -2.45      0.00
   10    7   16     -0.48      0.00
   10    7   17      0.85      0.00
   10    7   18      1.62      0.00
   10    7   19     -1.68      0.00
  -10   -8   11     -0.18      0.00
  -10   -8   10      0.40      0.00
  -10   -8    9     -0.13      0.00
  -10   -8    8      0.42      0.00
  -10   -8    7      0.22      0.00
  -10   -8    6     -0.44      0.00
  -10   -8    5      0.19      0.00
  -10   -8    4     -0.75      0.00
  -10   -8    3      0.08      0.00
  -10   -8    2      0.41      0.00
  -10   -8    1      0.11      0.00
   10    8    0      0.34      0.00
   10    8    1     -0.30      0.00
   10    8    2     -0.13      0.00
   10    8    3      0.00      0.00
   10    8    4     -0.47      0.00
   10    8    5      0.43      0.00
   10    8    6     -0.06      0.00
   10    8    7      0.45      0.00
   10    8    8      0.16      0.00
   10    8    9     -1.10      0.00
   10    8   10      0.53      0.00
   10    8   11      0.20      0.00
   10    8   12     -0.25      0.00
   10    8   13     -0.55      0.00
   10    8   14      1.58      0.00
   10    8   15     -0.23      0.00
   10    8   16     -1.51      0.00
   10    8   17      0.02      0.00
   10    8   18      1.25      0.00
   10    8   19      0.50      0.00
  -10   -9   10     -0.12      0.00
  -10   -9    9      0.57      0.00
  -10   -9    8     -0.15      0.00
  -10   -9    7      0.53      0.00
  -10   -9    6     -0.76      0.00
  -10   -9    5     -0.62      0.00
  -10   -9    4      0.63      0.00
  -10   -9    3      0.24      0.00
  -10   -9    2     -0.29      0.00
  -10   -9    1     -0.31      0.00
   10    9    0      0.48      0.00
   10    9    1      1.83      0.00
   10    9    2     -1.93      0.00
   10    9    3     -1.27      0.00
   10    9    4     -0.36      0.00
   10    9    5      2.48      0.00
   10    9    6      0.85      0.00
   10    9    7     -1.35      0.00
   10    9    8     -0.75      0.00
   10    9    9      0.17      0.00
   10    9   10     -0.50      0.00
   10    9   11     -0.22      0.00
   10    9   12      2.34      0.00
   10    9   13      0.81      0.00
   10    9   14     -2.90      0.00
   10    9   15     -1.35      0.00
   10    9   16      1.92      0.00
   10    9   17      2.17      0.00
   10    9   18     -2.13      0.00
   10    9   19     -0.88      0.00
  -10  -10   10     -0.13      0.00
  -10  -10    9      0.03      0.00
  -10  -10    8      0.41      0.00
  -10  -10    7     -0.82      0.00
  -10  -10    6      0.53      0.00
  -10  -10    5     -0.54      0.00
  -10  -10    4     -0.04      0.00
  -10  -10    3      0.25      0.00
  -10  -10    2      0.31      0.00
  -10  -10    1      0.83      0.00
   10   10    0     -0.87      0.00
   10   10    1     -0.65      0.00
   10   10    2     -0.07      0.00
   10   10    3      0.03      0.00
   10   10    4      1.25      0.00
   10   10    5     -0.48      0.00
   10   10    6      0.21      0.00
   10   10    7     -0.40      0.00
   10   10    8     -0.43      0.00
   10   10    9     -0.50      0.00
   10   10   10      0.91      0.00
   10   10   11      0.99      0.00
   10   10   12     -1.13      0.00
   10   10   13      0.26      0.00
   10   10   14     -0.21      0.00
   10   10   15      0.14      0.00
   10   10   16     -0.98      0.00
   10   10   18      1.21      0.00
   10   10   19     -0.79      0.00
  -10  -11   10      0.47      0.00
  -10  -11    9      0.14      0.00
  -10  -11    8      0.14      0.00
  -10  -11    7     -0.32      0.00
  -10  -11    6     -0.92      0.00
  -10  -11    5      0.98      0.00
  -10  -11    4     -0.15      0.00
  -10  -11    3      0.46      0.00
  -10  -11    2     -0.69      0.00
  -10  -11    1      0.14      0.00
   10   11    0      1.54      0.00
   10   11    1     -1.86      0.00
   10   11    2     -0.66      0.00
   10   11    3     -0.30      0.00
   10   11    4      2.68      0.00
   10   11    5      0.12      0.00
   10   11    6     -0.96      0.00
   10   11    7     -1.20      0.00
   10   11    8     -0.34      0.00
   10   11    9      0.41      0.00
   10   11   10      0.39      0.00
   10   11   11      2.28      0.00
   10   11   12     -0.28      0.00
   10   11   13     -2.66      0.00
   10   11   14     -1.59      0.00
   10   11   15      2.02      0.00
   10   11   16      2.63      0.00
   10   11   17     -1.63      0.00
   10   11   18     -1.15      0.00
  -10  -12    9      0.26      0.00
  -10  -12    8     -0.90      0.00
  -10  -12    7      0.93      0.00
  -10  -12    6      0.07      0.00
  -10  -12    5     -0.53      0.00
  -10  -12    4     -0.23      0.00
  -10  -12    3      0.11      0.00
  -10  -12    2      1.86      0.00
  -10  -12    1     -1.35      0.00
   10   12    0     -1.12      0.00
   10   12    1     -0.03      0.00
   10   12    2      0.99      0.00
   10   12    3      1.23      0.00
   10   12    4     -1.11      0.00
   10   12    5      0.04      0.00
   10   12    6     -0.80      0.00
   10   12    7      0.28      0.00
   10   12    8     -0.31      0.00
   10   12    9      0.86      0.00
   10   12   10      1.22      0.00
   10   12   11     -1.44      0.00
   10   12   12     -0.25      0.00
   10   12   13     -0.74      0.00
   10   12   14      1.49      0.00
   10   12   15     -1.26      0.00
   10   12   16      0.83      0.00
   10   12   17      0.89      0.00
   10   12   18     -0.04      0.00
  -10  -13    8      0.41      0.00
  -10  -13    7     -0.83      0.00
  -10  -13    6      0.80      0.00
  -10  -13    5     -1.04      0.00
  -10  -13    4      1.21      0.00
  -10  -13    3     -0.41      0.00
  -10  -13    2     -0.23      0.00
  -10  -13    1      0.88      0.00
   10   13    0     -1.08      0.00
   10   13    1     -0.35      0.00
   10   13    2     -0.56      0.00
   10   13    3      2.68      0.00
   10   13    4     -0.29      0.00
   10   13    5     -1.05      0.00
   10   13    6     -1.20      0.00
   10   13    7      0.19      0.00
   10   13    8      0.56      0.00
   10   13    9      0.99      0.00
   10   13   10      1.02      0.00
   10   13   11     -0.62      0.00
   10   13   12     -2.56      0.00
   10   13   13     -0.71      0.00
   10   13   14      1.65      0.00
   10   13   17     -1.38      0.00
   10   13   18     -0.86      0.00
  -10  -14    9     -0.57      0.00
  -10  -14    7      0.38      0.00
  -10  -14    6     -1.02      0.00
  -10  -14    5     -0.30      0.00
  -10  -14    4     -0.27      0.00
  -10  -14    3      2.54      0.00
  -10  -14    2     -1.11      0.00
  -10  -14    1     -1.31      0.00
   10   14    0     -0.73      0.00
   10   14    1      1.67      0.00
   10   14    2      1.34      0.00
   10   14    3     -1.45      0.00
   10   14    4     -0.19      0.00
   10   14    5     -0.93      0.00
   10   14    6      0.65      0.00
   10   14    7      0.50      0.00
   10   14    8      0.95      0.00
   10   14    9     -0.31      0.00
   10   14   10     -1.42      0.00
   10   14   11     -0.17      0.00
   10   14   12      0.30      0.00
   10   14   13      1.19      0.00
   10   14   14     -0.79      0.00
   10   14   15      0.62      0.00
   10   14   16      0.03      0.00
   10   14   17     -0.21      0.00
  -10  -15    7      0.34      0.00
  -10  -15    6     -1.38      0.00
  -10  -15    5      1.48      0.00
  -10  -15    4      0.38      0.00
  -10  -15    3     -0.47      0.00
  -10  -15    2     -0.19      0.00
  -10  -15    1     -0.27      0.00
   10   15    0      0.02      0.00
   10   15    1     -1.07      0.00
   10   15    2      2.35      0.00
   10   15    3      0.49      0.00
   10   15    4     -1.66      0.00
   10   15    5     -1.59      0.00
   10   15    6      1.23      0.00
   10   15    7      1.02      0.00
   10   15    8      0.60      0.00
   10   15    9     -0.85      0.00
   10   15   10     -0.17      0.00
   10   15   11     -1.43      0.00
   10   15   12      0.24      0.00
   10   15   13      1.29      0.00
   10   15   14      1.97      0.00
   10   15   16     -1.49      0.00
   10   15   17     -1.11      0.00
  -10  -16    8      0.11      0.00
  -10  -16    6      0.38      0.00
  -10  -16    5     -0.36      0.00
  -10  -16    4      1.78      0.00
  -10  -16    3     -0.73      0.00
  -10  -16    2     -0.51      0.00
  -10  -16    1     -1.54      0.00
   10   16    0      1.20      0.00
   10   16    1      1.83      0.00
   10   16    2     -0.84      0.00
   10   16    3     -0.76      0.00
   10   16    4     -1.18      0.00
   10   16    5      0.74      0.00
   10   16    6      1.37      0.00
   10   16    7      1.02      0.00
   10   16    8     -2.15      0.00
   10   16    9     -1.33      0.00
   10   16   10      0.54      0.00
   10   16   11      2.57      0.00
   10   16   12     -0.38      0.00
   10   16   13     -1.34      0.00
   10   16   14     -0.03      0.00
   10   16   15      0.11      0.00
   10   16   16      0.29      0.00
  -10  -17    5      0.45      0.00
  -10  -17    4     -0.49      0.00
  -10  -17    3     -0.76      0.00
  -10  -17    2     -0.03      0.00
  -10  -17    1      0.53      0.00
   10   17    0     -1.07      0.00
   10   17    1      1.46      0.00
   10   17    2      1.56      0.00
   10   17    3     -2.09      0.00
   10   17    4     -2.06      0.00
   10   17    5      1.43      0.00
   10   17    6      2.19      0.00
   10   17    7     -0.34      0.00
   10   17    8     -2.20      0.00
   10   17    9      0.54      0.00
   10   17   10      0.46      0.00
   10   17   11     -0.01      0.00
   10   17   12      0.52      0.00
   10   17   13      0.19      0.00
   10   17   14     -0.71      0.00
   10   17   15     -0.74      0.00
  -10  -18    7      0.83      0.00
  -10  -18    4     -0.73      0.00
  -10  -18    3      0.72      0.00
  -10  -18    2     -1.22      0.00
   10   18    0      1.72      0.00
   10   18    1      0.37      0.00
   10   18    2     -1.26      0.00
   10   18    3     -1.47      0.00
   10   18    4      0.49      0.00
   10   18    5      2.22      0.00
   10   18    6      0.46      0.00
   10   18    7     -2.39      0.00
   10   18    8     -1.29      0.00
   10   18    9      1.20      0.00
   10   18   10      3.46      0.00
   10   18   11     -1.70      0.00
   10   18   12     -2.30      0.00
   10   18   13      0.04      0.00
   10   18   15      1.05      0.00
  -10  -19    1     -0.53      0.00
   10   19    0      0.51      0.00
   10   19    1      1.47      0.00
   10   19    2     -1.75      0.00
   10   19    4      0.90      0.00
   10   19    5      2.78      0.00
   10   19    6     -0.52      0.00
   10   19    7     -2.70      0.00
   10   19    8      0.91      0.00
   10   19    9      1.28      0.00
   10   19   10     -0.76      0.00
   10   19   11     -0.08      0.00
  -10  -20    1      0.71      0.00
   10   20    0      0.83      0.00
   10   20    4      2.39      0.00
   10   20    5     -0.44      0.00
   10   20    6     -1.51      0.00
   10   20    7     -0.91      0.00
   10   20    8      0.97      0.00
   10   20    9      2.49      0.00
   10   20   10     -1.53      0.00
   11  -11    1     -1.24      0.00
   11  -11    5     -0.52      0.00
   11  -11    7      0.08      0.00
   11  -11    8     -0.29      0.00
   11  -11    9     -0.17      0.00
   11  -11   11     -0.51      0.00
  -11   10    6      0.51      0.00
  -11   10    4      0.95      0.00
  -11   10    0     -0.32      0.00
   11  -10    2     -0.99      0.00
   11  -10    3     -0.15      0.00
   11  -10    4     -0.17      0.00
   11  -10    6     -0.17      0.00
   11  -10    8      0.29      0.00
   11  -10    9     -0.22      0.00
   11  -10   10      0.10      0.00
   11  -10   11      0.21      0.00
   11  -10   13     -0.25      0.00
   11  -10   14      0.17      0.00
  -11    9    7     -0.86      0.00
  -11    9    6      0.17      0.00
  -11    9    3      0.46      0.00
  -11    9    2     -1.14      0.00
  -11    9    1      1.01      0.00
  -11    9    0     -0.81      0.00
   11   -9    1      0.19      0.00
   11   -9    4     -0.93      0.00
   11   -9    5      0.08      0.00
   11   -9    6      0.28      0.00
   11   -9    7      0.42      0.00
   11   -9    8     -0.81      0.00
   11   -9    9      0.95      0.00
   11   -9   10     -0.81      0.00
   11   -9   11     -0.03      0.00
   11   -9   13      1.36      0.00
   11   -9   14     -0.98      0.00
   11   -9   15     -0.31      0.00
  -11    8    7      0.44      0.00
  -11    8    6     -0.41      0.00
  -11    8    5      0.67      0.00
  -11    8    4      0.22      0.00
  -11    8    3     -0.57      0.00
  -11    8    2      0.13      0.00
  -11    8    1     -1.13      0.00
  -11    8    0      1.76      0.00
   11   -8    1     -0.45      0.00
   11   -8    2     -0.10      0.00
   11   -8    3     -1.15      0.00
   11   -8    4      1.53      0.00
   11   -8    5     -0.16      0.00
   11   -8    6     -0.01      0.00
   11   -8    7     -1.09      0.00
   11   -8    8      0.95      0.00
   11   -8    9     -0.61      0.00
   11   -8   10      0.72      0.00
   11   -8   11     -0.40      0.00
   11   -8   12      0.59      0.00
   11   -8   13     -0.90      0.00
   11   -8   14      0.79      0.00
   11   -8   15     -0.82      0.00
  -11    7    7     -0.15      0.00
  -11    7    6      0.85      0.00
  -11    7    5     -0.31      0.00
  -11    7    4      0.22      0.00
  -11    7    3     -0.49      0.00
  -11    7    2     -0.02      0.00
  -11    7    1      0.27      0.00
  -11    7    0     -0.53      0.00
   11   -7    1      0.42      0.00
   11   -7    2      0.41      0.00
   11   -7    3      0.18      0.00
   11   -7    4     -0.72      0.00
   11   -7    5     -0.19      0.00
   11   -7    6      0.09      0.00
   11   -7    7      0.43      0.00
   11   -7    8     -0.03      0.00
   11   -7    9     -0.10      0.00
   11   -7   10     -0.49      0.00
   11   -7   11      0.57      0.00
   11   -7   12      0.74      0.00
   11   -7   13     -0.84      0.00
   11   -7   14     -1.15      0.00
   11   -7   15      1.03      0.00
   11   -7   16      0.48      0.00
  -11    6    7     -0.10      0.00
  -11    6    6      0.19      0.00
  -11    6    5      0.61      0.00
  -11    6    4     -0.78      0.00
  -11    6    3      0.09      0.00
  -11    6    2     -0.42      0.00
  -11    6    1      0.42      0.00
  -11    6    0      0.10      0.00
   11   -6    1      0.38      0.00
   11   -6    2     -0.73      0.00
   11   -6    3      0.82      0.00
   11   -6    4     -0.62      0.00
   11   -6    5      0.38      0.00
   11   -6    6     -1.32      0.00
   11   -6    7      1.20      0.00
   11   -6    8     -0.08      0.00
   11   -6    9      0.32      0.00
   11   -6   10     -0.28      0.00
   11   -6   11      0.47      0.00
   11   -6   12     -1.31      0.00
   11   -6   13      0.43      0.00
   11   -6   14      0.22      0.00
   11   -6   15      0.56      0.00
   11   -6   16     -0.57      0.00
  -11    5    8      0.08      0.00
  -11    5    7      0.58      0.00
  -11    5    6     -0.11      0.00
  -11    5    5     -0.71      0.00
  -11    5    4      0.68      0.00
  -11    5    3     -0.47      0.00
  -11    5    2      0.26      0.00
  -11    5    1     -0.60      0.00
  -11    5    0      0.57      0.00
   11   -5    1      0.45      0.00
   11   -5    2      0.62      0.00
   11   -5    3     -1.43      0.00
   11   -5    4     -0.39      0.00
   11   -5    5     -0.65      0.00
   11   -5    6      2.55      0.00
   11   -5    7     -0.66      0.00
   11   -5    8     -0.16      0.00
   11   -5    9     -1.17      0.00
   11   -5   10      0.99      0.00
   11   -5   11      0.25      0.00
   11   -5   12     -0.43      0.00
   11   -5   13     -1.14      0.00
   11   -5   14      1.49      0.00
   11   -5   15      0.35      0.00
   11   -5   16     -0.27      0.00
   11   -5   18      0.08      0.00
  -11    4    8     -0.02      0.00
  -11    4    7     -0.28      0.00
  -11    4    6      0.53      0.00
  -11    4    5      0.00      0.00
  -11    4    4     -0.77      0.00
  -11    4    3      0.48      0.00
  -11    4    2     -0.43      0.00
  -11    4    1      0.59      0.00
  -11    4    0      0.32      0.00
   11   -4    1      0.06      0.00
   11   -4    2     -0.53      0.00
   11   -4    3     -0.97      0.00
   11   -4    4      0.72      0.00
   11   -4    5      0.52      0.00
   11   -4    6     -0.19      0.00
   11   -4    7      0.43      0.00
   11   -4    8     -0.70      0.00
   11   -4    9      0.41      0.00
   11   -4   10     -0.02      0.00
   11   -4   11     -0.80      0.00
   11   -4   12     -0.12      0.00
   11   -4   13      1.16      0.00
   11   -4   14      0.36      0.00
   11   -4   15     -0.72      0.00
   11   -4   16     -0.96      0.00
   11   -4   17      1.27      0.00
   11   -4   18     -0.07      0.00
  -11    3    8      0.32      0.00
  -11    3    7      0.33      0.00
  -11    3    6     -1.28      0.00
  -11    3    5      0.67      0.00
  -11    3    4      0.21      0.00
  -11    3    3     -0.23      0.00
  -11    3    2     -0.17      0.00
  -11    3    1      0.44      0.00
  -11    3    0      0.39      0.00
   11   -3    1     -0.22      0.00
   11   -3    2     -1.20      0.00
   11   -3    3      0.57      0.00
   11   -3    4     -0.88      0.00
   11   -3    5      2.48      0.00
   11   -3    6     -0.48      0.00
   11   -3    7     -0.76      0.00
   11   -3    8     -1.19      0.00
   11   -3    9      0.91      0.00
   11   -3   10      0.61      0.00
   11   -3   11     -0.34      0.00
   11   -3   12     -0.82      0.00
   11   -3   13      1.21      0.00
   11   -3   14      0.18      0.00
   11   -3   15     -0.90      0.00
   11   -3   16     -0.17      0.00
   11   -3   17     -0.04      0.00
   11   -3   18      1.09      0.00
  -11    2    8     -0.37      0.00
  -11    2    7      0.14      0.00
  -11    2    6      0.75      0.00
  -11    2    5     -1.09      0.00
  -11    2    4      0.36      0.00
  -11    2    3     -0.19      0.00
  -11    2    2      0.82      0.00
  -11    2    1     -0.26      0.00
  -11    2    0     -0.10      0.00
   11   -2    1     -0.52      0.00
   11   -2    2     -0.38      0.00
   11   -2    3      0.29      0.00
   11   -2    4      1.78      0.00
   11   -2    5     -1.49      0.00
   11   -2    6      0.46      0.00
   11   -2    7     -1.18      0.00
   11   -2    8      1.24      0.00
   11   -2    9     -0.26      0.00
   11   -2   10     -0.27      0.00
   11   -2   11     -0.60      0.00
   11   -2   12      1.30      0.00
   11   -2   13      0.15      0.00
   11   -2   14     -0.49      0.00
   11   -2   15     -1.37      0.00
   11   -2   16      1.18      0.00
   11   -2   17      0.85      0.00
   11   -2   18     -1.20      0.00
  -11    1    9      0.32      0.00
  -11    1    8      0.72      0.00
  -11    1    7     -1.19      0.00
  -11    1    6     -0.24      0.00
  -11    1    5      0.77      0.00
  -11    1    4      0.04      0.00
  -11    1    3      0.11      0.00
  -11    1    2     -0.34      0.00
  -11    1    1      0.27      0.00
  -11    1    0     -0.58      0.00
   11   -1    1     -0.33      0.00
   11   -1    2      1.24      0.00
   11   -1    3     -0.81      0.00
   11   -1    4      0.61      0.00
   11   -1    5      0.16      0.00
   11   -1    6     -0.53      0.00
   11   -1    7     -0.66      0.00
   11   -1    8      0.21      0.00
   11   -1    9      1.10      0.00
   11   -1   10     -0.40      0.00
   11   -1   11     -0.69      0.00
   11   -1   12      0.69      0.00
   11   -1   13      0.40      0.00
   11   -1   14     -1.22      0.00
   11   -1   15      0.39      0.00
   11   -1   16      0.02      0.00
   11   -1   17      0.93      0.00
   11   -1   18     -0.78      0.00
  -11    0    9     -0.14      0.00
  -11    0    8     -0.22      0.00
  -11    0    7      0.50      0.00
  -11    0    6     -0.51      0.00
  -11    0    5      0.05      0.00
  -11    0    4     -0.01      0.00
  -11    0    3      0.53      0.00
  -11    0    2     -0.32      0.00
  -11    0    1     -0.39      0.00
   11    0    0      0.29      0.00
   11    0    1      0.07      0.00
   11    0    2     -0.57      0.00
   11    0    3      1.37      0.00
   11    0    4     -0.96      0.00
   11    0    5      0.57      0.00
   11    0    6     -1.42      0.00
   11    0    7      1.24      0.00
   11    0    8     -0.12      0.00
   11    0    9      0.05      0.00
   11    0   10     -0.90      0.00
   11    0   11      1.10      0.00
   11    0   12     -0.02      0.00
   11    0   13     -0.08      0.00
   11    0   14     -1.18      0.00
   11    0   15      0.65      0.00
   11    0   16      1.19      0.00
   11    0   17     -1.12      0.00
   11    0   18     -0.07      0.00
  -11   -1    9      0.77      0.00
  -11   -1    8     -1.18      0.00
  -11   -1    7     -0.66      0.00
  -11   -1    6      0.69      0.00
  -11   -1    5      0.64      0.00
  -11   -1    4      0.04      0.00
  -11   -1    3     -0.85      0.00
  -11   -1    2      0.31      0.00
  -11   -1    1     -0.27      0.00
   11    1    0      0.05      0.00
   11    1    1      0.76      0.00
   11    1    2     -0.44      0.00
   11    1    3     -0.22      0.00
   11    1    4      0.38      0.00
   11    1    5     -0.20      0.00
   11    1    6     -0.21      0.00
   11    1    7     -0.49      0.00
   11    1    8      1.21      0.00
   11    1    9     -0.27      0.00
   11    1   10     -0.49      0.00
   11    1   11      0.07      0.00
   11    1   12      0.76      0.00
   11    1   13     -1.14      0.00
   11    1   14      0.42      0.00
   11    1   15      0.06      0.00
   11    1   16      0.61      0.00
   11    1   17     -0.54      0.00
   11    1   18     -0.57      0.00
  -11   -2    9     -0.48      0.00
  -11   -2    8      0.00      0.00
  -11   -2    7      0.05      0.00
  -11   -2    6      0.27      0.00
  -11   -2    5     -0.36      0.00
  -11   -2    4      0.11      0.00
  -11   -2    3      0.18      0.00
  -11   -2    2     -0.19      0.00
  -11   -2    1      0.46      0.00
   11    2    0     -0.51      0.00
   11    2    1     -0.53      0.00
   11    2    2      0.83      0.00
   11    2    3      0.27      0.00
   11    2    4      0.36      0.00
   11    2    5     -1.76      0.00
   11    2    6      0.53      0.00
   11    2    7      0.63      0.00
   11    2    8      0.27      0.00
   11    2    9     -0.84      0.00
   11    2   10      0.65      0.00
   11    2   11     -0.02      0.00
   11    2   12     -0.25      0.00
   11    2   13     -0.69      0.00
   11    2   14      0.62      0.00
   11    2   15      0.90      0.00
   11    2   16     -1.00      0.00
   11    2   17     -0.22      0.00
   11    2   18      0.20      0.00
  -11   -3    9     -1.17      0.00
  -11   -3    8     -0.57      0.00
  -11   -3    7      0.45      0.00
  -11   -3    6      0.78      0.00
  -11   -3    5     -0.04      0.00
  -11   -3    4     -0.73      0.00
  -11   -3    3      0.53      0.00
  -11   -3    2     -0.37      0.00
  -11   -3    1     -0.28      0.00
   11    3    0      0.51      0.00
   11    3    1      0.26      0.00
   11    3    2      0.12      0.00
   11    3    3     -0.48      0.00
   11    3    4     -0.56      0.00
   11    3    5      0.45      0.00
   11    3    6     -0.09      0.00
   11    3    7      0.65      0.00
   11    3    8     -0.13      0.00
   11    3    9     -0.31      0.00
   11    3   10     -0.13      0.00
   11    3   11      0.11      0.00
   11    3   12     -0.27      0.00
   11    3   13      0.48      0.00
   11    3   14     -0.07      0.00
   11    3   15     -0.05      0.00
   11    3   16     -0.11      0.00
   11    3   17     -0.20      0.00
   11    3   18      0.34      0.00
  -11   -4    9     -0.03      0.00
  -11   -4    8     -0.01      0.00
  -11   -4    7      0.57      0.00
  -11   -4    6     -0.71      0.00
  -11   -4    5      0.12      0.00
  -11   -4    4      0.50      0.00
  -11   -4    3     -0.10      0.00
  -11   -4    2      0.18      0.00
  -11   -4    1     -0.95      0.00
   11    4    0      0.18      0.00
   11    4    1      0.73      0.00
   11    4    2      0.19      0.00
   11    4    3     -0.08      0.00
   11    4    4     -1.26      0.00
   11    4    5      0.15      0.00
   11    4    6      1.08      0.00
   11    4    7      0.12      0.00
   11    4    8     -0.50      0.00
   11    4    9      0.15      0.00
   11    4   10     -0.20      0.00
   11    4   11     -0.23      0.00
   11    4   12     -0.58      0.00
   11    4   13      1.47      0.00
   11    4   14      0.17      0.00
   11    4   15     -1.06      0.00
   11    4   16     -0.58      0.00
   11    4   17      1.05      0.00
   11    4   18      0.21      0.00
  -11   -5    9     -0.76      0.00
  -11   -5    8      0.19      0.00
  -11   -5    7      0.44      0.00
  -11   -5    6      0.42      0.00
  -11   -5    5     -0.58      0.00
  -11   -5    4      0.66      0.00
  -11   -5    3     -0.79      0.00
  -11   -5    2     -0.55      0.00
  -11   -5    1      0.92      0.00
   11    5    0      0.69      0.00
   11    5    1     -0.16      0.00
   11    5    2     -1.28      0.00
   11    5    3     -0.67      0.00
   11    5    4      1.62      0.00
   11    5    5      0.53      0.00
   11    5    6     -0.61      0.00
   11    5    7     -0.38      0.00
   11    5    8     -0.09      0.00
   11    5    9      0.55      0.00
   11    5   10     -1.15      0.00
   11    5   11      0.63      0.00
   11    5   12      1.20      0.00
   11    5   13     -0.67      0.00
   11    5   14     -1.11      0.00
   11    5   15      0.19      0.00
   11    5   16      1.40      0.00
   11    5   17     -0.49      0.00
   11    5   18     -0.65      0.00
  -11   -6    9     -0.35      0.00
  -11   -6    8      0.60      0.00
  -11   -6    7     -0.43      0.00
  -11   -6    6      0.25      0.00
  -11   -6    5      0.59      0.00
  -11   -6    4     -0.57      0.00
  -11   -6    3      0.17      0.00
  -11   -6    2     -0.57      0.00
  -11   -6    1      0.34      0.00
   11    6    0      0.36      0.00
   11    6    1     -0.58      0.00
   11    6    2      0.27      0.00
   11    6    3      0.17      0.00
   11    6    4     -0.15      0.00
   11    6    5      0.16      0.00
   11    6    6     -0.40      0.00
   11    6    7      0.37      0.00
   11    6    8      0.24      0.00
   11    6    9     -0.77      0.00
   11    6   10      0.43      0.00
   11    6   11     -0.89      0.00
   11    6   12      1.79      0.00
   11    6   13     -0.47      0.00
   11    6   14     -0.61      0.00
   11    6   15     -0.81      0.00
   11    6   16      1.28      0.00
   11    6   17      0.28      0.00
   11    6   18     -0.65      0.00
  -11   -7    8      0.01      0.00
  -11   -7    7      1.15      0.00
  -11   -7    6     -0.53      0.00
  -11   -7    5      0.38      0.00
  -11   -7    4     -0.86      0.00
  -11   -7    3     -0.51      0.00
  -11   -7    2      1.05      0.00
  -11   -7    1      0.60      0.00
   11    7    0     -0.87      0.00
   11    7    1     -0.73      0.00
   11    7    2     -0.25      0.00
   11    7    3      2.34      0.00
   11    7    4     -0.28      0.00
   11    7    5     -1.41      0.00
   11    7    6     -0.54      0.00
   11    7    7      0.54      0.00
   11    7    8      1.30      0.00
   11    7    9     -1.54      0.00
   11    7   10      0.30      0.00
   11    7   11      1.70      0.00
   11    7   12     -1.18      0.00
   11    7   13     -1.63      0.00
   11    7   14      0.34      0.00
   11    7   15      3.12      0.00
   11    7   16     -1.36      0.00
   11    7   17     -1.77      0.00
   11    7   18     -0.06      0.00
  -11   -8    8      0.37      0.00
  -11   -8    7     -0.09      0.00
  -11   -8    6      0.60      0.00
  -11   -8    5     -1.20      0.00
  -11   -8    4      0.49      0.00
  -11   -8    3     -0.07      0.00
  -11   -8    2     -0.05      0.00
  -11   -8    1     -0.17      0.00
   11    8    0     -0.50      0.00
   11    8    1      1.18      0.00
   11    8    2      0.95      0.00
   11    8    3     -1.19      0.00
   11    8    4     -0.95      0.00
   11    8    5     -0.61      0.00
   11    8    6      1.89      0.00
   11    8    7      0.48      0.00
   11    8    8     -1.20      0.00
   11    8    9      0.43      0.00
   11    8   10     -0.86      0.00
   11    8   11      0.75      0.00
   11    8   12     -0.24      0.00
   11    8   13      0.68      0.00
   11    8   14     -0.65      0.00
   11    8   15     -0.11      0.00
   11    8   16      0.25      0.00
   11    8   17     -0.10      0.00
   11    8   18      0.14      0.00
  -11   -9    8      1.02      0.00
  -11   -9    7     -0.33      0.00
  -11   -9    6     -0.14      0.00
  -11   -9    5     -0.26      0.00
  -11   -9    4     -0.65      0.00
  -11   -9    3      0.82      0.00
  -11   -9    2      0.20      0.00
  -11   -9    1     -0.57      0.00
   11    9    0      0.29      0.00
   11    9    1     -0.30      0.00
   11    9    2      1.87      0.00
   11    9    3     -1.65      0.00
   11    9    4     -0.84      0.00
   11    9    5     -0.05      0.00
   11    9    6      1.14      0.00
   11    9    7      0.99      0.00
   11    9    8     -1.11      0.00
   11    9    9     -0.43      0.00
   11    9   10      0.90      0.00
   11    9   11     -0.60      0.00
   11    9   12     -1.17      0.00
   11    9   13      0.66      0.00
   11    9   14      2.82      0.00
   11    9   15     -1.40      0.00
   11    9   16     -2.41      0.00
   11    9   17      0.01      0.00
   11    9   18      2.83      0.00
  -11  -10    8     -0.53      0.00
  -11  -10    7      0.44      0.00
  -11  -10    6     -1.36      0.00
  -11  -10    5      0.80      0.00
  -11  -10    4      0.29      0.00
  -11  -10    3     -0.50      0.00
  -11  -10    2     -0.28      0.00
  -11  -10    1     -0.06      0.00
   11   10    0      1.80      0.00
   11   10    1      0.41      0.00
   11   10    2     -2.36      0.00
   11   10    3     -0.80      0.00
   11   10    4     -0.03      0.00
   11   10    5      2.95      0.00
   11   10    6     -0.13      0.00
   11   10    7     -1.07      0.00
   11   10    8     -0.44      0.00
   11   10    9     -0.38      0.00
   11   10   10     -0.21      0.00
   11   10   11      0.34      0.00
   11   10   12      2.17      0.00
   11   10   13     -0.86      0.00
   11   10   14     -1.62      0.00
   11   10   15     -0.55      0.00
   11   10   16      1.71      0.00
   11   10   17      0.53      0.00
  -11  -11    7     -0.41      0.00
  -11  -11    6      0.78      0.00
  -11  -11    5     -0.91      0.00
  -11  -11    4      0.47      0.00
  -11  -11    3     -0.47      0.00
  -11  -11    2      0.54      0.00
  -11  -11    1      0.85      0.00
   11   11    0     -1.09      0.00
   11   11    1      0.90      0.00
   11   11    2     -1.79      0.00
   11   11    3      0.39      0.00
   11   11    4      0.31      0.00
   11   11    5      1.14      0.00
   11   11    6      0.08      0.00
   11   11    7     -0.85      0.00
   11   11    8     -0.32      0.00
   11   11    9     -0.27      0.00
   11   11   10      0.34      0.00
   11   11   11     -0.26      0.00
   11   11   12      0.87      0.00
   11   11   13      1.16      0.00
   11   11   14     -1.22      0.00
   11   11   15     -1.74      0.00
   11   11   16     -0.21      0.00
   11   11   17      2.75      0.00
  -11  -12    7     -0.94      0.00
  -11  -12    6      0.68      0.00
  -11  -12    5      0.61      0.00
  -11  -12    4     -0.93      0.00
  -11  -12    3      0.04      0.00
  -11  -12    2     -0.24      0.00
  -11  -12    1      1.98      0.00
   11   12    0     -0.18      0.00
   11   12    1     -2.58      0.00
   11   12    2     -0.30      0.00
   11   12    3      0.69      0.00
   11   12    4      3.13      0.00
   11   12    5     -1.22      0.00
   11   12    6     -0.80      0.00
   11   12    7     -1.02      0.00
   11   12    8      0.00      0.00
   11   12    9      0.01      0.00
   11   12   10      0.65      0.00
   11   12   11      2.66      0.00
   11   12   12     -1.59      0.00
   11   12   13     -1.91      0.00
   11   12   14     -1.42      0.00
   11   12   15      3.11      0.00
   11   12   16      0.75      0.00
  -11  -13    7      1.38      0.00
  -11  -13    6     -0.86      0.00
  -11  -13    5      0.04      0.00
  -11  -13    4     -1.16      0.00
  -11  -13    3      1.19      0.00
  -11  -13    2      1.34      0.00
  -11  -13    1     -1.58      0.00
   11   13    0      0.01      0.00
   11   13    1     -1.01      0.00
   11   13    2      1.19      0.00
   11   13    3     -0.01      0.00
   11   13    4      0.81      0.00
   11   13    5     -0.17      0.00
   11   13    6     -1.09      0.00
   11   13    7     -0.16      0.00
   11   13    8     -0.09      0.00
   11   13    9      0.74      0.00
   11   13   10      0.34      0.00
   11   13   11      0.12      0.00
   11   13   12      0.27      0.00
   11   13   13     -1.36      0.00
   11   13   14     -0.29      0.00
   11   13   15     -0.51      0.00
  -11  -14    6      0.61      0.00
  -11  -14    5     -1.11      0.00
  -11  -14    4      0.52      0.00
  -11  -14    3     -0.60      0.00
  -11  -14    2      1.59      0.00
  -11  -14    1     -0.05      0.00
   11   14    0     -1.75      0.00
   11   14    1     -0.62      0.00
   11   14    2      0.52      0.00
   11   14    3      3.28      0.00
   11   14    4     -1.36      0.00
   11   14    5     -1.16      0.00
   11   14    6     -1.38      0.00
   11   14    7      0.53      0.00
   11   14    8      1.02      0.00
   11   14    9      0.88      0.00
   11   14   10      1.14      0.00
   11   14   11     -2.04      0.00
   11   14   12     -1.51      0.00
   11   14   13     -0.53      0.00
   11   14   14      2.89      0.00
   11   14   15      0.84      0.00
   11   14   16     -1.14      0.00
  -11  -15    6     -0.20      0.00
  -11  -15    5     -1.17      0.00
  -11  -15    4      0.95      0.00
  -11  -15    3      1.55      0.00
  -11  -15    2     -1.05      0.00
  -11  -15    1     -0.61      0.00
   11   15    0     -0.65      0.00
   11   15    1      1.17      0.00
   11   15    2     -0.11      0.00
   11   15    3      0.45      0.00
   11   15    4      0.41      0.00
   11   15    5     -1.65      0.00
   11   15    6     -0.55      0.00
   11   15    7      1.15      0.00
   11   15    8      1.13      0.00
   11   15    9     -0.16      0.00
   11   15   10     -1.48      0.00
   11   15   11      0.56      0.00
   11   15   12     -0.43      0.00
   11   15   13      0.46      0.00
   11   15   14     -0.59      0.00
   11   15   15      1.74      0.00
  -11  -16    4     -0.53      0.00
  -11  -16    3      0.71      0.00
  -11  -16    2      0.08      0.00
  -11  -16    1     -0.41      0.00
   11   16    1     -0.49      0.00
   11   16    2      3.28      0.00
   11   16    3     -0.06      0.00
   11   16    4     -2.01      0.00
   11   16    5     -1.96      0.00
   11   16    6      1.20      0.00
   11   16    7      2.24      0.00
   11   16    8      0.73      0.00
   11   16    9     -1.46      0.00
   11   16   10     -1.72      0.00
   11   16   11     -0.53      0.00
   11   16   12      1.65      0.00
   11   16   13      1.53      0.00
   11   16   14     -0.15      0.00
   11   16   15     -1.29      0.00
  -11  -17    3     -0.17      0.00
  -11  -17    2     -0.51      0.00
  -11  -17    1     -0.85      0.00
   11   17    0      0.48      0.00
   11   17    1      0.49      0.00
   11   17    2      0.22      0.00
   11   17    3      0.89      0.00
   11   17    4     -2.00      0.00
   11   17    5     -0.83      0.00
   11   17    6      1.80      0.00
   11   17    7      1.59      0.00
   11   17   10      1.31      0.00
   11   17   11      1.60      0.00
   11   17   12     -0.25      0.00
   11   17   13     -1.06      0.00
   11   17   14      0.40      0.00
  -11  -18    2      0.51      0.00
  -11  -18    1     -0.86      0.00
   11   18    0     -1.15      0.00
   11   18    1      2.35      0.00
   11   18    2      1.46      0.00
   11   18    3     -2.32      0.00
   11   18    4     -2.28      0.00
   11   18    5      1.19      0.00
   11   18    6      3.11      0.00
   11   18    7     -0.01      0.00
   11   18    8     -2.77      0.00
   11   18   11      2.49      0.00
   11   18   12      0.09      0.00
   11   18   13     -1.53      0.00
  -11  -19    1     -0.34      0.00
   11   19    1      0.31      0.00
   11   19    3     -1.80      0.00
   11   19    4     -0.60      0.00
   11   19    5      1.37      0.00
   11   19    6      1.42      0.00
   11   19    7     -1.25      0.00
   11   19    8     -2.28      0.00
   11   19    9      1.56      0.00
   11   19   11     -1.39      0.00
   11   19   12     -1.52      0.00
   11   20    3     -1.80      0.00
   11   20    4      0.51      0.00
   11   20    5      3.05      0.00
  -12   10    0      0.05      0.00
   12  -10    5     -0.77      0.00
   12  -10    6      0.21      0.00
   12  -10    8     -0.19      0.00
   12  -10    9      0.51      0.00
  -12    9    1     -1.11      0.00
  -12    9    0      0.75      0.00
   12   -9    3      0.01      0.00
   12   -9    4      0.16      0.00
   12   -9    5     -0.09      0.00
   12   -9    8      0.46      0.00
   12   -9    9     -0.36      0.00
   12   -9   10      0.55      0.00
   12   -9   11     -0.41      0.00
  -12    8    4      0.19      0.00
  -12    8    3      0.34      0.00
  -12    8    2     -0.50      0.00
  -12    8    1      0.52      0.00
  -12    8    0     -1.40      0.00
   12   -8    1      1.15      0.00
   12   -8    2      0.30      0.00
   12   -8    4     -1.64      0.00
   12   -8    5      0.37      0.00
   12   -8    6      0.42      0.00
   12   -8    9      0.27      0.00
   12   -8   10     -1.01      0.00
   12   -8   11      0.62      0.00
  -12    7    3     -0.10      0.00
  -12    7    2     -0.32      0.00
  -12    7    1     -0.27      0.00
  -12    7    0      0.85      0.00
   12   -7    1     -0.35      0.00
   12   -7    2     -0.12      0.00
   12   -7    3     -0.33      0.00
   12   -7    4      0.75      0.00
   12   -7    5     -0.07      0.00
   12   -7    6     -0.30      0.00
   12   -7    7     -0.30      0.00
   12   -7    8      0.27      0.00
   12   -7    9     -0.04      0.00
   12   -7   10      0.26      0.00
   12   -7   11     -0.26      0.00
   12   -7   12      0.29      0.00
  -12    6    4      0.45      0.00
  -12    6    3     -0.25      0.00
  -12    6    2      0.13      0.00
  -12    6    1     -0.47      0.00
  -12    6    0     -0.10      0.00
   12   -6    1      0.40      0.00
   12   -6    2      0.76      0.00
   12   -6    3     -0.80      0.00
   12   -6    4     -0.17      0.00
   12   -6    5     -0.24      0.00
   12   -6    6      1.08      0.00
   12   -6    7     -0.73      0.00
   12   -6    8      0.07      0.00
   12   -6    9     -0.67      0.00
   12   -6   10      0.79      0.00
   12   -6   11      0.57      0.00
   12   -6   12      0.19      0.00
   12   -6   13     -1.63      0.00
   12   -6   14     -0.14      0.00
  -12    5    5      0.66      0.00
  -12    5    4     -1.10      0.00
  -12    5    2     -0.33      0.00
  -12    5    1      0.61      0.00
  -12    5    0     -0.46      0.00
   12   -5    1      0.19      0.00
   12   -5    2     -0.18      0.00
   12   -5    3      0.79      0.00
   12   -5    4     -0.49      0.00
   12   -5    5     -0.06      0.00
   12   -5    6     -1.25      0.00
   12   -5    7      1.27      0.00
   12   -5    8      0.00      0.00
   12   -5    9      0.57      0.00
   12   -5   10     -0.63      0.00
   12   -5   11      0.27      0.00
   12   -5   12     -0.82      0.00
   12   -5   13      0.21      0.00
   12   -5   14     -0.10      0.00
   12   -5   16     -0.21      0.00
  -12    4    5     -0.36      0.00
  -12    4    4      0.81      0.00
  -12    4    3     -0.43      0.00
  -12    4    2      0.31      0.00
  -12    4    1     -1.08      0.00
  -12    4    0      0.71      0.00
   12   -4    1      0.70      0.00
   12   -4    2      0.20      0.00
   12   -4    3     -0.96      0.00
   12   -4    4     -0.84      0.00
   12   -4    5      0.62      0.00
   12   -4    6      1.09      0.00
   12   -4    7     -0.61      0.00
   12   -4    8     -0.27      0.00
   12   -4    9      0.04      0.00
   12   -4   10      0.82      0.00
   12   -4   11     -0.32      0.00
   12   -4   12     -1.26      0.00
   12   -4   13     -0.32      0.00
   12   -4   14      1.89      0.00
   12   -4   15      0.27      0.00
   12   -4   16     -0.71      0.00
  -12    3    6      0.98      0.00
  -12    3    5     -1.03      0.00
  -12    3    4     -0.11      0.00
  -12    3    3      0.32      0.00
  -12    3    2      0.11      0.00
  -12    3    1     -0.05      0.00
  -12    3    0      0.09      0.00
   12   -3    1      0.21      0.00
   12   -3    2      0.00      0.00
   12   -3    3     -0.99      0.00
   12   -3    4      0.83      0.00
   12   -3    5     -0.90      0.00
   12   -3    6      0.94      0.00
   12   -3    7      0.27      0.00
   12   -3    8      0.18      0.00
   12   -3    9     -0.65      0.00
   12   -3   10     -0.18      0.00
   12   -3   11     -0.49      0.00
   12   -3   12      0.31      0.00
   12   -3   13      0.44      0.00
   12   -3   14      0.73      0.00
   12   -3   15     -0.30      0.00
   12   -3   16     -0.93      0.00
  -12    2    5      1.17      0.00
  -12    2    4     -0.13      0.00
  -12    2    3      0.33      0.00
  -12    2    2     -1.19      0.00
  -12    2    1      0.73      0.00
  -12    2    0      0.49      0.00
   12   -2    1      0.08      0.00
   12   -2    2     -1.04      0.00
   12   -2    3     -0.15      0.00
   12   -2    4     -0.24      0.00
   12   -2    5      2.23      0.00
   12   -2    6     -1.16      0.00
   12   -2    7     -0.08      0.00
   12   -2    8     -0.82      0.00
   12   -2    9      1.09      0.00
   12   -2   10     -0.32      0.00
   12   -2   11     -0.62      0.00
   12   -2   12     -0.32      0.00
   12   -2   13      1.78      0.00
   12   -2   14     -0.03      0.00
   12   -2   15     -0.70      0.00
   12   -2   16     -1.16      0.00
  -12    1    6     -0.15      0.00
  -12    1    5     -0.77      0.00
  -12    1    4      0.35      0.00
  -12    1    3     -0.01      0.00
  -12    1    2      0.60      0.00
  -12    1    1     -0.40      0.00
  -12    1    0      0.10      0.00
   12   -1    1     -0.28      0.00
   12   -1    2     -0.76      0.00
   12   -1    3      1.18      0.00
   12   -1    4     -0.07      0.00
   12   -1    5     -0.28      0.00
   12   -1    6      0.39      0.00
   12   -1    7     -0.20      0.00
   12   -1    8     -0.08      0.00
   12   -1    9     -0.73      0.00
   12   -1   10      0.32      0.00
   12   -1   11      0.27      0.00
   12   -1   12      0.43      0.00
   12   -1   13      0.20      0.00
   12   -1   15     -1.39      0.00
   12   -1   16      0.77      0.00
   12   -1   17     -0.26      0.00
  -12    0    6      0.39      0.00
  -12    0    5      0.41      0.00
  -12    0    4      0.32      0.00
  -12    0    3     -0.90      0.00
  -12    0    2      0.08      0.00
  -12    0    1      0.55      0.00
   12    0    0     -0.09      0.00
   12    0    1     -0.54      0.00
   12    0    2      0.52      0.00
   12    0    3     -0.92      0.00
   12    0    4      1.70      0.00
   12    0    5     -0.91      0.00
   12    0    6      0.40      0.00
   12    0    7     -1.30      0.00
   12    0    8      0.87      0.00
   12    0    9      0.11      0.00
   12    0   10     -0.14      0.00
   12    0   11     -0.45      0.00
   12    0   12      1.21      0.00
   12    0   13     -0.20      0.00
   12    0   14     -0.58      0.00
   12    0   15     -0.70      0.00
   12    0   16      0.15      0.00
   12    0   17      1.24      0.00
  -12   -1    6     -0.62      0.00
  -12   -1    5     -0.08      0.00
  -12   -1    4     -0.11      0.00
  -12   -1    3      0.84      0.00
  -12   -1    2     -0.30      0.00
  -12   -1    1      0.08      0.00
   12    1    0     -0.28      0.00
   12    1    1     -0.55      0.00
   12    1    2      0.57      0.00
   12    1    3      0.53      0.00
   12    1    4     -0.43      0.00
   12    1    5      0.40      0.00
   12    1    6     -0.83      0.00
   12    1    7      0.45      0.00
   12    1    8     -0.85      0.00
   12    1    9      0.98      0.00
   12    1   10      0.11      0.00
   12    1   11      0.10      0.00
   12    1   12     -0.49      0.00
   12    1   13      0.43      0.00
   12    1   14     -1.07      0.00
   12    1   15      0.61      0.00
   12    1   16      0.00      0.00
   12    1   17      0.37      0.00
  -12   -2    6      0.39      0.00
  -12   -2    5      0.62      0.00
  -12   -2    4     -0.61      0.00
  -12   -2    3     -0.39      0.00
  -12   -2    2      0.78      0.00
  -12   -2    1     -0.01      0.00
   12    2    0     -0.30      0.00
   12    2    1     -0.03      0.00
   12    2    2     -0.61      0.00
   12    2    3      1.22      0.00
   12    2    4     -0.36      0.00
   12    2    5      0.35      0.00
   12    2    6     -1.33      0.00
   12    2    7      0.30      0.00
   12    2    8      0.86      0.00
   12    2    9     -0.03      0.00
   12    2   10     -0.55      0.00
   12    2   11      0.48      0.00
   12    2   12      0.07      0.00
   12    2   13     -0.56      0.00
   12    2   14     -0.30      0.00
   12    2   15      0.09      0.00
   12    2   16      1.09      0.00
   12    2   17     -0.38      0.00
  -12   -3    6     -0.11      0.00
  -12   -3    5     -0.31      0.00
  -12   -3    4      0.76      0.00
  -12   -3    3      0.17      0.00
  -12   -3    2      0.43      0.00
  -12   -3    1     -0.81      0.00
   12    3    0     -1.09      0.00
   12    3    1      0.46      0.00
   12    3    2      1.26      0.00
   12    3    3      0.25      0.00
   12    3    4     -0.25      0.00
   12    3    5     -1.82      0.00
   12    3    6      0.76      0.00
   12    3    7      0.12      0.00
   12    3    8      0.91      0.00
   12    3    9     -0.05      0.00
   12    3   10     -0.38      0.00
   12    3   11     -0.51      0.00
   12    3   12      0.03      0.00
   12    3   13     -0.09      0.00
   12    3   14      0.63      0.00
   12    3   15      0.02      0.00
   12    3   16     -0.21      0.00
   12    3   17      0.02      0.00
  -12   -4    6      0.86      0.00
  -12   -4    5     -0.37      0.00
  -12   -4    4     -0.30      0.00
  -12   -4    3      0.82      0.00
  -12   -4    2     -0.50      0.00
  -12   -4    1     -0.34      0.00
   12    4    0     -0.33      0.00
   12    4    1      0.41      0.00
   12    4    2      1.18      0.00
   12    4    3     -0.79      0.00
   12    4    4     -0.47      0.00
   12    4    5     -0.41      0.00
   12    4    6      0.30      0.00
   12    4    7      1.11      0.00
   12    4    8     -0.48      0.00
   12    4    9     -0.45      0.00
   12    4   10      0.25      0.00
   12    4   11     -0.06      0.00
   12    4   12     -0.08      0.00
   12    4   13     -0.49      0.00
   12    4   14      0.64      0.00
   12    4   15      0.45      0.00
   12    4   16     -0.27      0.00
  -12   -5    6     -0.53      0.00
  -12   -5    5      0.92      0.00
  -12   -5    4      0.17      0.00
  -12   -5    3      0.46      0.00
  -12   -5    2     -1.18      0.00
  -12   -5    1     -1.34      0.00
   12    5    0      1.13      0.00
   12    5    1      1.70      0.00
   12    5    2     -0.12      0.00
   12    5    3     -0.99      0.00
   12    5    4     -1.89      0.00
   12    5    5      1.36      0.00
   12    5    6      1.04      0.00
   12    5    7     -0.06      0.00
   12    5    8     -0.11      0.00
   12    5    9     -0.71      0.00
   12    5   10      0.27      0.00
   12    5   11     -0.94      0.00
   12    5   12      0.40      0.00
   12    5   13      1.54      0.00
   12    5   14     -0.25      0.00
   12    5   15     -1.12      0.00
   12    5   16     -0.50      0.00
  -12   -6    6      0.20      0.00
  -12   -6    5     -0.26      0.00
  -12   -6    4      0.72      0.00
  -12   -6    3     -1.28      0.00
  -12   -6    2     -0.12      0.00
  -12   -6    1      0.44      0.00
   12    6    0      0.75      0.00
   12    6    1      0.47      0.00
   12    6    2     -1.61      0.00
   12    6    3     -0.54      0.00
   12    6    4      1.30      0.00
   12    6    5      0.39      0.00
   12    6    6      0.12      0.00
   12    6    7     -1.21      0.00
   12    6    8      0.08      0.00
   12    6    9      0.98      0.00
   12    6   10     -1.01      0.00
   12    6   11      0.76      0.00
   12    6   12     -0.74      0.00
   12    6   13      0.95      0.00
   12    6   14     -0.48      0.00
   12    6   15      0.03      0.00
   12    6   16     -0.09      0.00
  -12   -7    6      1.15      0.00
  -12   -7    5     -0.02      0.00
  -12   -7    4     -0.13      0.00
  -12   -7    3     -0.71      0.00
  -12   -7    2     -0.83      0.00
  -12   -7    1      1.19      0.00
   12    7    0      1.23      0.00
   12    7    1     -1.18      0.00
   12    7    2     -0.34      0.00
   12    7    3     -0.90      0.00
   12    7    4      1.69      0.00
   12    7    5      0.19      0.00
   12    7    6     -0.96      0.00
   12    7    7      0.34      0.00
   12    7    8     -0.33      0.00
   12    7    9      0.65      0.00
   12    7   10     -1.18      0.00
   12    7   11     -0.18      0.00
   12    7   12      2.39      0.00
   12    7   13     -0.47      0.00
   12    7   14     -1.45      0.00
   12    7   15     -1.34      0.00
   12    7   16      2.32      0.00
  -12   -8    6     -0.53      0.00
  -12   -8    5      0.57      0.00
  -12   -8    4     -1.58      0.00
  -12   -8    3      0.27      0.00
  -12   -8    2      1.06      0.00
  -12   -8    1      0.14      0.00
   12    8    0     -0.50      0.00
   12    8    1     -1.20      0.00
   12    8    2      0.40      0.00
   12    8    3      2.21      0.00
   12    8    4     -0.81      0.00
   12    8    5     -0.84      0.00
   12    8    6     -1.32      0.00
   12    8    7      1.19      0.00
   12    8    8      1.51      0.00
   12    8    9     -1.69      0.00
   12    8   10      0.77      0.00
   12    8   11     -0.41      0.00
   12    8   12      0.35      0.00
   12    8   13     -0.94      0.00
   12    8   14      0.62      0.00
   12    8   15      0.89      0.00
   12    8   16     -0.79      0.00
  -12   -9    5     -0.89      0.00
  -12   -9    4      0.34      0.00
  -12   -9    3     -0.37      0.00
  -12   -9    2      0.45      0.00
  -12   -9    1      0.30      0.00
   12    9    0     -1.05      0.00
   12    9    1      1.23      0.00
   12    9    2     -0.51      0.00
   12    9    3      0.85      0.00
   12    9    4     -1.35      0.00
   12    9    5     -0.59      0.00
   12    9    6      1.36      0.00
   12    9    7      0.18      0.00
   12    9    8      0.01      0.00
   12    9    9     -0.87      0.00
   12    9   10     -0.56      0.00
   12    9   11      1.76      0.00
   12    9   12     -0.07      0.00
   12    9   13     -0.84      0.00
   12    9   14     -1.49      0.00
   12    9   15      1.86      0.00
  -12  -10    5     -1.15      0.00
  -12  -10    4      0.37      0.00
  -12  -10    3      0.99      0.00
  -12  -10    2     -0.60      0.00
  -12  -10    1     -0.48      0.00
   12   10    0     -0.09      0.00
   12   10    1      0.92      0.00
   12   10    2      1.53      0.00
   12   10    3     -2.47      0.00
   12   10    4     -0.38      0.00
   12   10    5     -0.42      0.00
   12   10    6      2.06      0.00
   12   10    7      0.56      0.00
   12   10    8     -1.43      0.00
   12   10    9      0.20      0.00
   12   10   10     -0.01      0.00
   12   10   11     -0.27      0.00
   12   10   12     -0.89      0.00
   12   10   13      1.51      0.00
   12   10   14      1.17      0.00
   12   10   15     -1.36      0.00
  -12  -11    5      1.33      0.00
  -12  -11    4     -0.22      0.00
  -12  -11    3     -0.26      0.00
  -12  -11    2     -0.46      0.00
  -12  -11    1     -0.01      0.00
   12   11    0      2.23      0.00
   12   11    1     -1.23      0.00
   12   11    2     -0.53      0.00
   12   11    3     -1.49      0.00
   12   11    4      0.76      0.00
   12   11    5      1.90      0.00
   12   11    6     -0.14      0.00
   12   11    7     -0.75      0.00
   12   11    8     -0.75      0.00
   12   11    9      0.06      0.00
   12   11   10      0.39      0.00
   12   11   11      0.49      0.00
   12   11   12      0.10      0.00
   12   11   13     -1.05      0.00
   12   11   14      0.30      0.00
   12   11   15      0.58      0.00
  -12  -12    4      0.67      0.00
  -12  -12    3     -1.09      0.00
  -12  -12    2      0.35      0.00
  -12  -12    1      0.36      0.00
   12   12    0      0.51      0.00
   12   12    1      0.55      0.00
   12   12    2     -2.71      0.00
   12   12    3      0.56      0.00
   12   12    4      0.32      0.00
   12   12    5      2.20      0.00
   12   12    6     -0.89      0.00
   12   12    7     -0.98      0.00
   12   12    8      0.10      0.00
   12   12    9     -0.01      0.00
   12   12   10     -0.15      0.00
   12   12   11     -0.78      0.00
   12   12   12      2.15      0.00
   12   12   13      0.36      0.00
   12   12   14     -1.09      0.00
   12   12   15     -2.16      0.00
  -12  -13    4     -0.62      0.00
  -12  -13    3     -0.84      0.00
  -12  -13    2      0.43      0.00
  -12  -13    1      2.42      0.00
   12   13    0     -1.54      0.00
   12   13    1     -1.31      0.00
   12   13    2     -0.82      0.00
   12   13    3      1.67      0.00
   12   13    4      1.64      0.00
   12   13    5     -0.85      0.00
   12   13    6     -0.83      0.00
   12   13    7     -0.81      0.00
   12   13    8      0.54      0.00
   12   13    9      0.11      0.00
   12   13   10      0.52      0.00
   12   13   11      0.68      0.00
   12   13   12     -1.09      0.00
   12   13   13     -0.26      0.00
   12   13   14     -0.21      0.00
  -12  -14    3      0.97      0.00
  -12  -14    2      0.41      0.00
  -12  -14    1     -0.16      0.00
   12   14    0      0.19      0.00
   12   14    1     -1.66      0.00
   12   14    2      0.66      0.00
   12   14    3     -0.05      0.00
   12   14    4      2.18      0.00
   12   14    5     -0.97      0.00
   12   14    6     -1.19      0.00
   12   14    7     -0.12      0.00
   12   14    8      0.21      0.00
   12   14    9      0.50      0.00
   12   14   10     -0.48      0.00
   12   14   11      1.45      0.00
   12   14   12     -0.29      0.00
   12   14   13     -0.77      0.00
  -12  -15    2      1.84      0.00
  -12  -15    1     -0.67      0.00
   12   15    0     -1.25      0.00
   12   15    1     -0.72      0.00
   12   15    2      1.26      0.00
   12   15    3      1.69      0.00
   12   15    4     -0.97      0.00
   12   15    6     -1.09      0.00
   12   15    7      0.39      0.00
   12   15    8      1.06      0.00
   12   15    9      0.51      0.00
   12   15   10      0.24      0.00
   12   15   11     -1.78      0.00
   12   15   12      0.17      0.00
  -12  -16    2     -0.42      0.00
  -12  -16    1     -0.02      0.00
   12   16    0     -0.58      0.00
   12   16    1      0.26      0.00
   12   16    2     -0.71      0.00
   12   16    3      1.94      0.00
   12   16    4      0.28      0.00
   12   16    5     -1.78      0.00
   12   16    6     -0.96      0.00
   12   16    8      1.39      0.00
   12   16   10     -0.48      0.00
   12   16   11     -0.20      0.00
   12   16   12     -0.35      0.00
   12   17    0     -0.89      0.00
   12   17    1      0.03      0.00
   12   17    2      2.06      0.00
   12   17    3     -0.42      0.00
   12   17    4     -0.74      0.00
   12   17    5     -1.47      0.00
   12   17    6      0.40      0.00
   12   17    7      1.89      0.00
   12   18    2      1.08      0.00
   12   18    3      1.27      0.00
   12   18    4     -1.76      0.00
   12   18    5     -1.42      0.00
   12   18    6      1.00      0.00
   12   18    7      1.94      0.00
   12   19    4     -1.47      0.00
   12   19    7      0.18      0.00
   12   19    8     -1.37      0.00
   13   -9    6     -0.02      0.00
   13   -8    1     -0.80      0.00
   13   -8   11     -0.81      0.00
   13   -7    2      0.53      0.00
   13   -7    3      0.16      0.00
   13   -7    4     -1.37      0.00
   13   -7    6      0.85      0.00
   13   -7    7      0.49      0.00
   13   -7    8     -0.52      0.00
   13   -7    9     -0.40      0.00
   13   -7   10     -0.34      0.00
   13   -7   11      0.91      0.00
   13   -6    1     -0.12      0.00
   13   -6    2      0.02      0.00
   13   -6    3      0.23      0.00
   13   -6    4     -0.18      0.00
   13   -6    5      0.04      0.00
   13   -6    6     -0.40      0.00
   13   -6    7      0.62      0.00
   13   -6   10     -0.47      0.00
   13   -6   11      0.16      0.00
   13   -6   12      0.42      0.00
  -13    5    1     -0.57      0.00
  -13    5    0      0.35      0.00
   13   -5    1      0.29      0.00
   13   -5    3     -0.89      0.00
   13   -5    6      0.92      0.00
   13   -5    7     -1.16      0.00
   13   -5    8     -0.20      0.00
   13   -5    9     -0.17      0.00
   13   -5   10      1.37      0.00
   13   -5   11     -0.20      0.00
   13   -5   12     -0.34      0.00
   13   -5   13     -1.04      0.00
  -13    4    1      0.71      0.00
  -13    4    0     -0.95      0.00
   13   -4    2      0.13      0.00
   13   -4    3      0.44      0.00
   13   -4    4     -0.05      0.00
   13   -4    5     -0.55      0.00
   13   -4    6     -0.36      0.00
   13   -4    7      0.56      0.00
   13   -4    8      0.34      0.00
   13   -4    9      0.03      0.00
   13   -4   10     -0.36      0.00
   13   -4   11      0.23      0.00
   13   -4   12     -0.39      0.00
   13   -4   13     -0.13      0.00
  -13    3    2     -0.07      0.00
  -13    3    1     -0.32      0.00
  -13    3    0      0.44      0.00
   13   -3    1      0.27      0.00
   13   -3    2     -0.22      0.00
   13   -3    3     -0.27      0.00
   13   -3    4     -0.46      0.00
   13   -3    5      1.07      0.00
   13   -3    6     -0.48      0.00
   13   -3    7     -0.33      0.00
   13   -3    8      0.10      0.00
   13   -3    9      0.98      0.00
   13   -3   10     -0.19      0.00
   13   -3   11     -0.77      0.00
   13   -3   12     -0.78      0.00
   13   -3   13      0.56      0.00
  -13    2    2      0.89      0.00
  -13    2    1     -1.04      0.00
  -13    2    0     -0.07      0.00
   13   -2    1      0.20      0.00
   13   -2    2      0.45      0.00
   13   -2    3     -0.50      0.00
   13   -2    4      0.31      0.00
   13   -2    5     -1.12      0.00
   13   -2    6      1.18      0.00
   13   -2    7      0.08      0.00
   13   -2    8      0.38      0.00
   13   -2    9     -0.99      0.00
   13   -2   10      0.02      0.00
   13   -2   11     -0.15      0.00
   13   -2   12      0.23      0.00
   13   -2   13     -0.07      0.00
   13   -2   14      0.96      0.00
  -13    1    2     -0.87      0.00
  -13    1    1      0.74      0.00
  -13    1    0      0.28      0.00
   13   -1    1     -0.21      0.00
   13   -1    2     -0.27      0.00
   13   -1    3     -0.56      0.00
   13   -1    4      0.73      0.00
   13   -1    5      0.51      0.00
   13   -1    6     -0.78      0.00
   13   -1    7      0.29      0.00
   13   -1    8      0.08      0.00
   13   -1    9      0.27      0.00
   13   -1   10     -1.04      0.00
   13   -1   11     -0.11      0.00
   13   -1   12      0.66      0.00
   13   -1   13      0.91      0.00
   13   -1   14     -0.38      0.00
  -13    0    3      0.71      0.00
  -13    0    2     -0.36      0.00
  -13    0    1     -0.46      0.00
   13    0    0      0.13      0.00
   13    0    1      0.40      0.00
   13    0    2     -0.71      0.00
   13    0    3      1.06      0.00
   13    0    4     -1.21      0.00
   13    0    5      1.00      0.00
   13    0    6     -0.31      0.00
   13    0    7      0.60      0.00
   13    0    8     -1.08      0.00
   13    0    9     -0.20      0.00
   13    0   10      0.47      0.00
   13    0   11      0.43      0.00
   13    0   12     -0.24      0.00
   13    0   13      0.49      0.00
   13    0   14     -0.26      0.00
  -13   -1    3     -1.14      0.00
  -13   -1    2      0.59      0.00
  -13   -1    1      0.65      0.00
   13    1    0     -0.03      0.00
   13    1    1     -0.44      0.00
   13    1    2     -0.40      0.00
   13    1    3      0.09      0.00
   13    1    4      1.05      0.00
   13    1    5     -0.80      0.00
   13    1    6      0.59      0.00
   13    1    7     -0.98      0.00
   13    1    8      0.70      0.00
   13    1    9     -0.85      0.00
   13    1   10      0.48      0.00
   13    1   11      0.51      0.00
   13    1   12      0.49      0.00
   13    1   13     -0.92      0.00
   13    1   14      0.03      0.00
  -13   -2    3      0.33      0.00
  -13   -2    2     -0.28      0.00
  -13   -2    1      0.15      0.00
   13    2    0      0.04      0.00
   13    2    1     -0.74      0.00
   13    2    2      0.78      0.00
   13    2    3     -0.54      0.00
   13    2    4      0.93      0.00
   13    2    5     -0.51      0.00
   13    2    6      0.03      0.00
   13    2    7     -0.63      0.00
   13    2    8     -0.28      0.00
   13    2    9      1.24      0.00
   13    2   10      0.22      0.00
   13    2   11     -0.63      0.00
   13    2   12     -0.23      0.00
   13    2   13      0.23      0.00
  -13   -3    3      0.37      0.00
  -13   -3    2      0.80      0.00
  -13   -3    1      0.40      0.00
   13    3    0     -0.87      0.00
   13    3    1     -0.86      0.00
   13    3    2      0.09      0.00
   13    3    3      1.59      0.00
   13    3    4     -0.46      0.00
   13    3    5      0.32      0.00
   13    3    6     -1.73      0.00
   13    3    7      0.80      0.00
   13    3    8      0.12      0.00
   13    3    9      0.40      0.00
   13    3   10      0.24      0.00
   13    3   11     -0.12      0.00
   13    3   12     -0.70      0.00
   13    3   13     -0.14      0.00
   13    3   14      0.03      0.00
  -13   -4    3      0.13      0.00
  -13   -4    2      0.35      0.00
  -13   -4    1     -0.97      0.00
   13    4    0     -0.86      0.00
   13    4    1      0.69      0.00
   13    4    2      0.63      0.00
   13    4    3      1.02      0.00
   13    4    4     -1.02      0.00
   13    4    5     -1.21      0.00
   13    4    6      0.32      0.00
   13    4    7      0.31      0.00
   13    4    8      1.44      0.00
   13    4    9     -0.44      0.00
   13    4   10     -1.02      0.00
   13    4   11     -0.23      0.00
   13    4   12      0.29      0.00
   13    4   13      0.55      0.00
   13    4   14     -0.17      0.00
  -13   -5    3      0.36      0.00
  -13   -5    2      0.14      0.00
  -13   -5    1     -0.87      0.00
   13    5    0     -0.96      0.00
   13    5    1      0.69      0.00
   13    5    2      1.90      0.00
   13    5    3     -0.87      0.00
   13    5    4     -0.42      0.00
   13    5    5     -1.38      0.00
   13    5    6      1.04      0.00
   13    5    7      0.96      0.00
   13    5    8     -0.60      0.00
   13    5    9      0.16      0.00
   13    5   10     -0.39      0.00
   13    5   11      0.16      0.00
   13    5   12     -0.52      0.00
   13    5   13     -0.11      0.00
   13    5   14      1.14      0.00
  -13   -6    2     -1.59      0.00
  -13   -6    1     -0.72      0.00
   13    6    0      1.36      0.00
   13    6    1      1.14      0.00
   13    6    2      0.31      0.00
   13    6    3     -1.58      0.00
   13    6    4     -1.58      0.00
   13    6    5      1.56      0.00
   13    6    6      0.84      0.00
   13    6    7      0.58      0.00
   13    6    8     -1.04      0.00
   13    6    9     -1.06      0.00
   13    6   10      0.91      0.00
   13    6   11     -0.59      0.00
   13    6   12      1.10      0.00
   13    6   13     -0.17      0.00
  -13   -7    2     -0.20      0.00
  -13   -7    1     -0.16      0.00
   13    7    0      0.65      0.00
   13    7    1      1.32      0.00
   13    7    2     -1.73      0.00
   13    7    3     -0.16      0.00
   13    7    4     -0.20      0.00
   13    7    5      1.22      0.00
   13    7    6      0.35      0.00
   13    7    7     -1.61      0.00
   13    7    8      0.59      0.00
   13    7    9      0.21      0.00
   13    7   10      0.33      0.00
   13    7   11     -0.45      0.00
   13    7   12     -1.05      0.00
   13    7   13      1.74      0.00
  -13   -8    2     -0.32      0.00
  -13   -8    1      1.52      0.00
   13    8    0      0.58      0.00
   13    8    1     -0.70      0.00
   13    8    2     -0.96      0.00
   13    8    3     -0.80      0.00
   13    8    4      2.16      0.00
   13    8    5     -0.11      0.00
   13    8    6     -0.26      0.00
   13    8    7     -0.84      0.00
   13    8    8     -0.42      0.00
   13    8    9      1.63      0.00
   13    8   10     -1.32      0.00
   13    8   11      0.65      0.00
   13    8   12      0.41      0.00
   13    8   13      0.03      0.00
  -13   -9    2      0.39      0.00
   13    9    0      0.43      0.00
   13    9    1     -1.50      0.00
   13    9    2      1.06      0.00
   13    9    3      0.23      0.00
   13    9    4      0.40      0.00
   13    9    5     -0.68      0.00
   13    9    6     -1.42      0.00
   13    9    7      1.38      0.00
   13    9    8      0.78      0.00
   13    9    9     -0.38      0.00
   13    9   11     -1.24      0.00
   13    9   12      1.32      0.00
   13   10    0     -0.62      0.00
   13   10    1      0.39      0.00
   13   10    2     -0.41      0.00
   13   10    3      1.51      0.00
   13   10    4     -1.63      0.00
   13   10    5      0.11      0.00
   13   10    6      0.18      0.00
   13   10    7      0.26      0.00
   13   10    8      0.66      0.00
   13   10    9     -1.18      0.00
   13   10   11      0.78      0.00
   13   10   12      0.09      0.00
   13   11    0     -0.48      0.00
   13   11    1      1.70      0.00
   13   11    2     -0.41      0.00
   13   11    3     -0.93      0.00
   13   11    4     -0.53      0.00
   13   11    5     -0.10      0.00
   13   11    6      1.69      0.00
   13   11    7      0.15      0.00
   13   11    8     -0.88      0.00
   13   11    9     -0.20      0.00
   13   11   10     -0.34      0.00
   13   11   11      0.26      0.00
   13   12    0      1.09      0.00
   13   12    1     -0.88      0.00
   13   12    2      0.46      0.00
   13   12    3     -1.75      0.00
   13   12    4      1.01      0.00
   13   12    5      0.74      0.00
   13   12    6      0.32      0.00
   13   12    7     -0.71      0.00
   13   12    8     -0.75      0.00
   13   12    9      0.56      0.00
   13   12   10      0.46      0.00
   13   12   11      0.16      0.00
   13   13    1     -0.67      0.00
   13   13    2     -1.40      0.00
   13   13    3      0.04      0.00
   13   13    4      0.82      0.00
   13   13    5      1.41      0.00
   13   13    7     -0.82      0.00
   13   13    8      0.06      0.00
   13   13   10     -0.21      0.00
   13   14    2     -0.87      0.00
   13   14    3      1.23      0.00
   13   14    4      0.31      0.00
   13   15    6     -0.83      0.00
   14   -3    5     -0.43      0.00
   14   -2    5      0.86      0.00
   14   -2    6     -0.99      0.00
   14   -2    7     -0.21      0.00
   14   -2    8      0.33      0.00
   14   -1    5     -0.31      0.00
   14   -1    6      0.52      0.00
   14   -1    7     -0.21      0.00
   14    0    5     -0.88      0.00
   14    0    6     -0.07      0.00
   14    0    7     -0.10      0.00
   14    0    8      0.67      0.00
   14    1    3      0.29      0.00
   14    1    4     -0.71      0.00
   14    1    5      0.79      0.00
   14    1    6     -0.70      0.00
   14    1    7      0.68      0.00
   14    1    8     -0.80      0.00
   14    2    3      0.94      0.00
   14    2    4     -0.38      0.00
   14    2    5      0.08      0.00
   14    2    6     -0.18      0.00
   14    2    7     -0.07      0.00
   14    2    8      0.25      0.00
   14    2    9     -0.72      0.00
   14    3    3     -0.59      0.00
   14    3    4      1.08      0.00
   14    3    5     -0.89      0.00
   14    3    6      0.56      0.00
   14    3    7     -0.80      0.00
   14    3    8      0.49      0.00
   14    3    9      0.42      0.00
   14    4    3      0.48      0.00
   14    4    4      0.21      0.00
   14    4    5     -0.26      0.00
   14    4    6     -1.04      0.00
   14    4    7      0.65      0.00
   14    4    8     -0.13      0.00
   14    4    9      0.73      0.00
   14    5    3      1.19      0.00
   14    5    4     -1.10      0.00
   14    5    5     -0.20      0.00
   14    5    6     -0.21      0.00
   14    5    7      0.61      0.00
   14    5    8      0.88      0.00
   14    5    9     -0.98      0.00
   14    6    4     -0.52      0.00
   14    6    5     -1.25      0.00
   14    6    6      0.99      0.00
   14    6    7      0.48      0.00
   14    6    8      0.08      0.00
   14    7    5      0.52      0.00
   14    7    6      0.81      0.00
    0    1    0     -7.04      0.00
    0    2    0      0.67      0.00
    0    3    0     -1.90      0.00
    0    4    0     -8.41      0.00
    0    5    0      3.95      0.00
    0    6    0     -3.94      0.00
   -1    7    0     -4.76      0.00
    0    7    0      4.08      0.00
    1    7    0     -2.17      0.00
   -1    8    0      2.58      0.00
    0    8    0     -3.41      0.00
   -2    9    0      0.33      0.00
   -1    9    0     -1.76      0.00
    0    9    0      0.89      0.00
   -2   10    0     -0.32      0.00
   -1   10    0     -1.12      0.00
    0   10    0     -0.12      0.00
    1   10    0     -0.06      0.00
   -2   11    0     -0.36      0.00
   -1   11    0     -0.27      0.00
    0   11    0     -1.11      0.00
    1   11    0      0.86      0.00
   -3   12    0      0.11      0.00
   -2   12    0      0.50      0.00
   -1   12    0     -0.29      0.00
    0   12    0     -0.05      0.00
    1   12    0     -0.65      0.00
   -4   13    0     -0.63      0.00
   -3   13    0      0.27      0.00
   -2   13    0      0.32      0.00
   -1   13    0      0.27      0.00
    0   13    0      0.27      0.00
    1   13    0      0.08      0.00
    2   13    0     -0.39      0.00
   -6   14    0      0.48      0.00
   -5   14    0     -0.09      0.00
   -4   14    0      0.03      0.00
   -3   14    0     -0.21      0.00
   -2   14    0     -0.30      0.00
   -1   14    0      0.93      0.00
    0   14    0     -0.28      0.00
    1   14    0      0.75      0.00
    2   14    0     -0.04      0.00
   -6   15    0      0.47      0.00
   -5   15    0      0.72      0.00
   -4   15    0     -0.05      0.00
   -3   15    0      0.09      0.00
   -2   15    0      0.06      0.00
   -1   15    0     -0.96      0.00
    0   15    0      0.82      0.00
    1   15    0     -0.18      0.00
    2   15    0      0.52      0.00
   -6   16    0      0.55      0.00
   -5   16    0      0.45      0.00
   -4   16    0      0.33      0.00
   -3   16    0      0.46      0.00
   -2   16    0     -0.20      0.00
   -1   16    0     -0.47      0.00
    0   16    0     -0.60      0.00
    1   16    0      0.03      0.00
    2   16    0      0.18      0.00
    3   16    0      0.15      0.00
   -5   17    0      0.30      0.00
   -4   17    0      0.39      0.00
   -3   17    0     -0.17      0.00
   -2   17    0      0.91      0.00
   -1   17    0     -0.53      0.00
    0   17    0     -0.90      0.00
    1   17    0     -0.05      0.00
    2   17    0     -0.38      0.00
    3   17    0     -0.09      0.00
   -4   18    0     -0.42      0.00
   -3   18    0      0.43      0.00
   -2   18    0      0.07      0.00
   -1   18    0      0.40      0.00
    0   18    0     -0.29      0.00
    1   18    0     -0.85      0.00
    2   18    0      0.11      0.00
    3   18    0     -0.48      0.00
   -2   19    0      0.03      0.00
   -1   19    0      0.75      0.00
    0   19    0     -0.57      0.00
    1   19    0      0.33      0.00
    2   19    0     -0.70      0.00
    3   19    0      0.07      0.00
    4   19    0     -0.51      0.00
    0   20    0      0.50      0.00
    1   20    0     -0.53      0.00
    2   20    0      0.34      0.00
    3   20    0     -0.40      0.00
    4   20    0     -0.03      0.00
    5   20    0     -0.25      0.00
   -5  -20    1      0.22      0.00
   -4  -20    1     -0.58      0.00
   -3  -20    1     -0.06      0.00
   -2  -20    1     -0.24      0.00
   -1  -20    1     -0.27      0.00
    0  -20    1     -0.17      0.00
   -4  -19    1     -0.37      0.00
   -3  -19    1     -0.36      0.00
   -2  -19    1      0.09      0.00
   -1  -19    1     -0.60      0.00
    0  -19    1     -0.14      0.00
    1  -19    1     -0.38      0.00
    2  -19    1      0.59      0.00
   -3  -18    1     -0.58      0.00
   -2  -18    1      0.09      0.00
   -1  -18    1      0.08      0.00
    0  -18    1     -0.91      0.00
    1  -18    1     -0.26      0.00
    2  -18    1      0.13      0.00
    3  -18    1      0.21      0.00
    4  -18    1      0.00      0.00
   -3  -17    1      0.51      0.00
   -2  -17    1      0.06      0.00
   -1  -17    1     -0.06      0.00
    0  -17    1      0.28      0.00
    1  -17    1     -1.21      0.00
    2  -17    1      0.04      0.00
    3  -17    1      0.29      0.00
    4  -17    1     -0.09      0.00
    5  -17    1      0.30      0.00
   -2  -16    1      0.06      0.00
   -1  -16    1      0.92      0.00
    0  -16    1     -0.37      0.00
    1  -16    1      0.35      0.00
    2  -16    1     -0.92      0.00
    3  -16    1      0.28      0.00
    4  -16    1     -0.19      0.00
    5  -16    1     -0.01      0.00
    6  -16    1      0.37      0.00
   -2  -15    1      0.21      0.00
   -1  -15    1      0.19      0.00
    0  -15    1      0.75      0.00
    1  -15    1      0.09      0.00
    2  -15    1     -0.17      0.00
    3  -15    1     -0.10      0.00
    4  -15    1     -0.32      0.00
    5  -15    1     -0.57      0.00
    6  -15    1      0.08      0.00
   -2  -14    1     -0.02      0.00
   -1  -14    1      0.26      0.00
    0  -14    1      0.33      0.00
    1  -14    1     -0.01      0.00
    2  -14    1      0.52      0.00
    3  -14    1     -0.40      0.00
    4  -14    1     -0.10      0.00
    5  -14    1     -0.85      0.00
   -1  -13    1     -0.27      0.00
    0  -13    1      0.05      0.00
    1  -13    1     -0.12      0.00
    2  -13    1     -0.16      0.00
    3  -13    1      0.01      0.00
    4  -13    1      0.13      0.00
   -1  -12    1      0.83      0.00
    0  -12    1     -0.46      0.00
    1  -12    1     -0.56      0.00
    2  -12    1     -0.64      0.00
    3  -12    1      0.26      0.00
   -1  -11    1     -0.96      0.00
    0  -11    1      0.83      0.00
    1  -11    1     -1.07      0.00
    2  -11    1     -0.48      0.00
    3  -11    1     -0.80      0.00
    0  -10    1     -1.39      0.00
    1  -10    1      1.04      0.00
    2  -10    1     -1.89      0.00
    0   -9    1      0.86      0.00
    1   -9    1     -1.15      0.00
    2   -9    1      0.49      0.00
    0   -8    1     -0.58      0.00
    1   -8    1     -0.36      0.00
    0   -7    1      2.01      0.00
    1   -7    1      0.46      0.00
    1   -6    1     -1.70      0.00
    0   -5    1     -4.71      0.00
   -7   -3    1     -0.55      0.00
    0    0    1     -6.17      0.00
    1    1    1    -11.62      0.00
   -2    4    1     -7.56      0.00
   -1    8    1     -1.89      0.00
    0    8    1      1.85      0.00
   -1    9    1      1.14      0.00
    0    9    1     -2.75      0.00
   -1   10    1     -0.87      0.00
    0   10    1      0.42      0.00
   -2   11    1      0.31      0.00
   -1   11    1      0.50      0.00
    0   11    1     -0.50      0.00
    1   11    1     -0.20      0.00
   -3   12    1     -0.85      0.00
   -2   12    1      0.92      0.00
   -1   12    1      0.84      0.00
    0   12    1     -0.01      0.00
    1   12    1      0.02      0.00
   -3   13    1      0.04      0.00
   -2   13    1      0.25      0.00
   -1   13    1      0.23      0.00
    0   13    1      0.83      0.00
    1   13    1     -0.11      0.00
    2   13    1      0.18      0.00
   -7   14    1     -0.13      0.00
   -4   14    1      0.60      0.00
   -3   14    1      0.48      0.00
   -2   14    1     -0.48      0.00
   -1   14    1     -0.07      0.00
    0   14    1      0.36      0.00
    1   14    1     -0.05      0.00
    2   14    1      0.36      0.00
   -6   15    1      0.27      0.00
   -5   15    1      0.32      0.00
   -4   15    1      0.98      0.00
   -3   15    1     -0.01      0.00
   -2   15    1      0.45      0.00
   -1   15    1     -0.29      0.00
    0   15    1     -1.13      0.00
    1   15    1      0.75      0.00
    2   15    1     -0.59      0.00
   -5   16    1      0.72      0.00
   -4   16    1     -0.52      0.00
   -3   16    1      0.98      0.00
   -2   16    1      0.27      0.00
   -1   16    1     -0.23      0.00
    0   16    1     -0.05      0.00
    1   16    1     -1.21      0.00
    2   16    1      0.43      0.00
    3   16    1     -0.52      0.00
   -4   17    1      0.29      0.00
   -3   17    1     -0.27      0.00
   -2   17    1      0.29      0.00
   -1   17    1      1.09      0.00
    0   17    1     -0.86      0.00
    1   17    1      0.11      0.00
    2   17    1     -0.70      0.00
    3   17    1     -0.06      0.00
   -3   18    1     -0.80      0.00
   -2   18    1      0.67      0.00
   -1   18    1     -0.07      0.00
    0   18    1      0.91      0.00
    1   18    1     -0.57      0.00
    2   18    1      0.12      0.00
    3   18    1     -0.34      0.00
    4   18    1     -0.26      0.00
   -2   19    1     -0.80      0.00
   -1   19    1      0.54      0.00
    0   19    1      0.45      0.00
    1   19    1     -0.27      0.00
    2   19    1      0.45      0.00
    3   19    1     -0.18      0.00
    4   19    1     -0.10      0.00
    0   20    1     -0.02      0.00
    1   20    1      0.63      0.00
    2   20    1     -0.67      0.00
    3   20    1      0.84      0.00
    4   20    1     -0.34      0.00
    5   20    1      0.04      0.00
   -5  -20    2     -0.21      0.00
   -4  -20    2      0.66      0.00
   -3  -20    2     -0.49      0.00
   -2  -20    2      0.09      0.00
   -1  -20    2      0.06      0.00
    0  -20    2     -0.35      0.00
   -4  -19    2      0.45      0.00
   -3  -19    2      0.23      0.00
   -2  -19    2     -0.07      0.00
   -1  -19    2      0.15      0.00
    0  -19    2     -0.17      0.00
    1  -19    2     -0.38      0.00
    2  -19    2     -0.04      0.00
   -3  -18    2      0.96      0.00
   -2  -18    2     -0.34      0.00
   -1  -18    2      0.74      0.00
    0  -18    2     -0.22      0.00
    1  -18    2     -0.23      0.00
    2  -18    2     -0.49      0.00
    3  -18    2      0.27      0.00
    4  -18    2     -0.06      0.00
   -3  -17    2     -0.15      0.00
   -2  -17    2      0.96      0.00
   -1  -17    2     -0.10      0.00
    0  -17    2      0.76      0.00
    1  -17    2     -0.16      0.00
    2  -17    2     -0.52      0.00
    3  -17    2      0.01      0.00
    4  -17    2     -0.17      0.00
    5  -17    2     -0.22      0.00
   -2  -16    2     -0.20      0.00
   -1  -16    2      0.60      0.00
    0  -16    2      0.69      0.00
    1  -16    2     -0.06      0.00
    2  -16    2      0.29      0.00
    3  -16    2     -0.73      0.00
    4  -16    2      0.27      0.00
    5  -16    2     -0.97      0.00
    6  -16    2     -0.18      0.00
   -2  -15    2      0.44      0.00
   -1  -15    2     -0.01      0.00
    0  -15    2      0.29      0.00
    1  -15    2      0.65      0.00
    2  -15    2     -0.30      0.00
    3  -15    2      0.03      0.00
    4  -15    2     -0.15      0.00
    5  -15    2     -0.48      0.00
    6  -15    2     -0.99      0.00
   -1  -14    2      0.23      0.00
    0  -14    2      0.21      0.00
    1  -14    2     -0.14      0.00
    2  -14    2     -0.16      0.00
    3  -14    2      0.18      0.00
    4  -14    2     -0.36      0.00
    5  -14    2      0.27      0.00
   -1  -13    2     -0.15      0.00
    0  -13    2     -0.08      0.00
    1  -13    2      0.04      0.00
    2  -13    2     -0.62      0.00
    3  -13    2     -0.34      0.00
    4  -13    2      0.26      0.00
   -1  -12    2     -0.43      0.00
    0  -12    2      0.13      0.00
    1  -12    2     -0.02      0.00
    2  -12    2     -0.54      0.00
    3  -12    2     -0.66      0.00
    0  -11    2     -0.72      0.00
    1  -11    2      0.41      0.00
    2  -11    2     -0.13      0.00
    3  -11    2     -0.42      0.00
    0  -10    2      0.74      0.00
    1  -10    2     -0.77      0.00
    2  -10    2      1.02      0.00
    0   -9    2     -0.04      0.00
    1   -9    2      1.16      0.00
    2   -9    2     -1.10      0.00
    1   -8    2     -0.68      0.00
    1   -7    2      3.58      0.00
    0   -6    2      5.46      0.00
    1    8    2     -2.27      0.00
   -8   10    2     -0.47      0.00
    0   10    2     -0.16      0.00
   -2   11    2      0.49      0.00
   -1   11    2      1.07      0.00
    0   11    2      0.77      0.00
   -2   12    2     -0.82      0.00
   -1   12    2      1.01      0.00
    0   12    2      0.86      0.00
    1   12    2      0.19      0.00
   -3   13    2     -0.36      0.00
   -2   13    2      0.29      0.00
   -1   13    2     -0.15      0.00
    0   13    2      0.03      0.00
    1   13    2      0.87      0.00
   -4   14    2     -0.26      0.00
   -3   14    2      1.17      0.00
   -2   14    2     -0.03      0.00
   -1   14    2     -0.53      0.00
    0   14    2      0.02      0.00
    1   14    2     -0.32      0.00
    2   14    2      0.38      0.00
   -5   15    2     -0.23      0.00
   -4   15    2      0.01      0.00
   -3   15    2      0.27      0.00
   -2   15    2      0.29      0.00
   -1   15    2      0.34      0.00
    0   15    2     -0.44      0.00
    1   15    2     -0.62      0.00
    2   15    2      0.04      0.00
   -5   16    2     -0.73      0.00
   -4   16    2      0.44      0.00
   -3   16    2     -1.22      0.00
   -2   16    2      1.22      0.00
   -1   16    2      0.01      0.00
    0   16    2      0.13      0.00
    1   16    2      0.11      0.00
    2   16    2     -0.94      0.00
   -4   17    2     -0.53      0.00
   -3   17    2      0.40      0.00
   -2   17    2     -1.04      0.00
   -1   17    2      0.92      0.00
    0   17    2      0.64      0.00
    1   17    2     -0.51      0.00
    2   17    2      0.72      0.00
    3   17    2     -0.92      0.00
   -3   18    2     -0.07      0.00
   -2   18    2     -0.58      0.00
   -1   18    2      0.28      0.00
    0   18    2     -0.05      0.00
    1   18    2      0.94      0.00
    2   18    2     -0.55      0.00
    3   18    2      0.84      0.00
   -2   19    2      0.05      0.00
   -1   19    2     -0.77      0.00
    0   19    2      0.56      0.00
    1   19    2     -0.07      0.00
    2   19    2      0.18      0.00
    3   19    2      0.27      0.00
    4   19    2      0.31      0.00
    5   19    2     -0.45      0.00
    0   20    2     -0.15      0.00
    1   20    2     -0.06      0.00
    2   20    2      0.36      0.00
    3   20    2     -0.33      0.00
    4   20    2      0.51      0.00
    5   20    2     -0.11      0.00
   -4  -20    3     -0.20      0.00
   -3  -20    3      0.86      0.00
   -2  -20    3     -0.12      0.00
   -1  -20    3      0.17      0.00
    0  -20    3      0.24      0.00
   -4  -19    3      0.90      0.00
   -3  -19    3     -0.23      0.00
   -2  -19    3      0.83      0.00
   -1  -19    3     -0.02      0.00
    0  -19    3      0.29      0.00
    1  -19    3     -0.07      0.00
    2  -19    3     -0.15      0.00
   -3  -18    3      0.35      0.00
   -2  -18    3      0.26      0.00
   -1  -18    3      0.24      0.00
    0  -18    3      0.67      0.00
    1  -18    3     -0.14      0.00
    2  -18    3     -0.05      0.00
    3  -18    3     -0.32      0.00
    4  -18    3      0.02      0.00
   -2  -17    3     -0.30      0.00
   -1  -17    3      0.76      0.00
    0  -17    3     -0.01      0.00
    1  -17    3      0.86      0.00
    2  -17    3     -0.38      0.00
    3  -17    3     -0.15      0.00
    4  -17    3     -0.01      0.00
    5  -17    3     -0.55      0.00
   -2  -16    3      0.28      0.00
   -1  -16    3     -0.41      0.00
    0  -16    3      0.76      0.00
    1  -16    3      0.20      0.00
    2  -16    3      0.10      0.00
    3  -16    3      0.02      0.00
    4  -16    3     -0.33      0.00
    5  -16    3      0.27      0.00
    6  -16    3     -1.03      0.00
   -1  -15    3      0.34      0.00
    0  -15    3     -0.31      0.00
    1  -15    3      0.48      0.00
    2  -15    3     -0.06      0.00
    3  -15    3     -0.12      0.00
    4  -15    3      0.13      0.00
    5  -15    3      0.21      0.00
    6  -15    3      0.03      0.00
   -1  -14    3     -1.10      0.00
    0  -14    3      0.51      0.00
    1  -14    3     -0.22      0.00
    2  -14    3      0.22      0.00
    3  -14    3     -0.73      0.00
    4  -14    3      0.68      0.00
    5  -14    3      0.04      0.00
   -1  -13    3      0.20      0.00
    0  -13    3     -0.89      0.00
    1  -13    3      0.53      0.00
    2  -13    3     -0.11      0.00
    3  -13    3      0.00      0.00
    4  -13    3     -0.70      0.00
    8  -13    3      0.40      0.00
    0  -12    3     -0.11      0.00
    1  -12    3     -0.15      0.00
    2  -12    3      0.69      0.00
    3  -12    3     -0.24      0.00
    4  -12    3     -0.01      0.00
    0  -11    3     -0.22      0.00
    1  -11    3      0.21      0.00
    2  -11    3      0.19      0.00
    3  -11    3      0.84      0.00
    6  -11    3      0.08      0.00
    1  -10    3      0.19      0.00
    2  -10    3      0.62      0.00
    1   -9    3      1.08      0.00
    2   -8    3      0.87      0.00
    2    1    3     -9.75      0.00
    0   10    3     -0.18      0.00
   -2   12    3     -0.32      0.00
   -1   12    3     -0.43      0.00
    0   12    3      0.23      0.00
    1   12    3      1.12      0.00
   -2   13    3     -0.22      0.00
   -1   13    3     -0.36      0.00
    0   13    3     -0.16      0.00
    1   13    3     -0.24      0.00
   -5   14    3     -0.82      0.00
   -3   14    3     -0.92      0.00
   -2   14    3      1.05      0.00
   -1   14    3     -0.36      0.00
    0   14    3     -0.56      0.00
    1   14    3      0.17      0.00
    3   14    3      0.47      0.00
   -4   15    3     -0.77      0.00
   -3   15    3     -0.02      0.00
   -2   15    3     -0.59      0.00
   -1   15    3      0.71      0.00
    0   15    3     -0.03      0.00
    1   15    3     -0.24      0.00
    2   15    3     -0.11      0.00
   -5   16    3     -0.14      0.00
   -4   16    3     -0.49      0.00
   -3   16    3     -0.21      0.00
   -2   16    3     -0.88      0.00
   -1   16    3      0.52      0.00
    0   16    3      0.15      0.00
    1   16    3      0.15      0.00
    2   16    3      0.30      0.00
   -4   17    3      0.04      0.00
   -3   17    3     -0.43      0.00
   -2   17    3      0.00      0.00
   -1   17    3     -0.96      0.00
    0   17    3      0.59      0.00
    1   17    3      0.30      0.00
    2   17    3     -0.14      0.00
    3   17    3      0.86      0.00
   -3   18    3      0.18      0.00
   -2   18    3     -0.25      0.00
   -1   18    3     -0.49      0.00
    0   18    3      0.07      0.00
    1   18    3     -0.38      0.00
    2   18    3      0.76      0.00
    3   18    3     -0.22      0.00
   -2   19    3      0.16      0.00
   -1   19    3     -0.16      0.00
    0   19    3     -0.48      0.00
    1   19    3      0.40      0.00
    2   19    3     -0.55      0.00
    3   19    3      0.43      0.00
    4   19    3      0.22      0.00
    0   20    3     -0.05      0.00
    1   20    3      0.09      0.00
    2   20    3     -0.19      0.00
    3   20    3     -0.02      0.00
    4   20    3      0.13      0.00
    5   20    3     -0.10      0.00
   -3  -20    4     -0.13      0.00
   -2  -20    4      0.53      0.00
   -1  -20    4      0.02      0.00
   -4  -19    4     -0.62      0.00
   -3  -19    4      0.93      0.00
   -2  -19    4     -0.72      0.00
   -1  -19    4      0.83      0.00
    0  -19    4     -0.11      0.00
    1  -19    4      0.25      0.00
    2  -19    4      0.01      0.00
   -4  -18    4     -0.72      0.00
   -3  -18    4     -0.40      0.00
   -2  -18    4      0.50      0.00
   -1  -18    4     -0.42      0.00
    0  -18    4      0.55      0.00
    1  -18    4      0.27      0.00
    2  -18    4      0.08      0.00
    3  -18    4     -0.12      0.00
   -2  -17    4     -0.24      0.00
   -1  -17    4      0.01      0.00
    0  -17    4      0.11      0.00
    1  -17    4      0.31      0.00
    2  -17    4      0.27      0.00
    3  -17    4      0.06      0.00
    4  -17    4     -0.22      0.00
    5  -17    4      0.37      0.00
   -2  -16    4     -0.21      0.00
   -1  -16    4     -0.45      0.00
    0  -16    4      0.08      0.00
    1  -16    4      0.09      0.00
    2  -16    4      0.51      0.00
    3  -16    4     -0.46      0.00
    4  -16    4      0.70      0.00
    5  -16    4     -0.22      0.00
    6  -16    4      0.71      0.00
   -1  -15    4     -0.48      0.00
    0  -15    4     -0.28      0.00
    1  -15    4      0.20      0.00
    2  -15    4      0.05      0.00
    3  -15    4      0.27      0.00
    4  -15    4     -0.38      0.00
    5  -15    4      0.98      0.00
    6  -15    4      0.20      0.00
   -1  -14    4     -0.14      0.00
    0  -14    4     -1.03      0.00
    1  -14    4      0.46      0.00
    2  -14    4      0.03      0.00
    3  -14    4      0.43      0.00
    4  -14    4     -0.57      0.00
    5  -14    4      0.61      0.00
    6  -14    4      0.69      0.00
    0  -13    4     -0.17      0.00
    1  -13    4     -0.61      0.00
    2  -13    4      0.87      0.00
    3  -13    4      0.00      0.00
    4  -13    4      0.48      0.00
    5  -13    4     -0.86      0.00
    0  -12    4     -0.48      0.00
    1  -12    4     -0.14      0.00
    2  -12    4      0.33      0.00
    3  -12    4      0.71      0.00
    4  -12    4     -0.03      0.00
    1  -11    4     -0.28      0.00
    2  -11    4      0.40      0.00
    2    1    4     -6.90      0.00
    9    4    4     -0.14      0.00
   -1   13    4      0.26      0.00
    0   13    4     -1.25      0.00
   -4   14    4     -0.88      0.00
   -3   14    4     -0.52      0.00
   -2   14    4     -0.47      0.00
   -1   14    4      0.08      0.00
    0   14    4      0.22      0.00
    1   14    4     -1.08      0.00
   -3   15    4     -0.71      0.00
   -2   15    4     -0.28      0.00
   -1   15    4     -0.44      0.00
    0   15    4      0.17      0.00
    1   15    4      0.32      0.00
    2   15    4     -0.53      0.00
   -5   16    4     -0.04      0.00
   -4   16    4      0.27      0.00
   -3   16    4     -0.32      0.00
   -2   16    4     -0.37      0.00
   -1   16    4     -0.49      0.00
    0   16    4      0.02      0.00
    1   16    4     -0.05      0.00
    2   16    4      0.41      0.00
   -4   17    4     -0.48      0.00
   -3   17    4      0.49      0.00
   -2   17    4     -0.31      0.00
   -1   17    4     -0.18      0.00
    0   17    4     -0.43      0.00
    1   17    4     -0.08      0.00
    2   17    4      0.23      0.00
    3   17    4      0.07      0.00
   -3   18    4      0.07      0.00
   -2   18    4      0.15      0.00
   -1   18    4      0.02      0.00
    0   18    4     -0.36      0.00
    1   18    4      0.28      0.00
    2   18    4     -0.86      0.00
    3   18    4      0.74      0.00
   -1   19    4     -0.05      0.00
    0   19    4      0.21      0.00
    1   19    4     -0.21      0.00
    2   19    4      0.26      0.00
    3   19    4     -0.67      0.00
    4   19    4      0.32      0.00
    0   20    4      0.04      0.00
    1   20    4      0.13      0.00
    2   20    4      0.28      0.00
    3   20    4     -0.45      0.00
    4   20    4      0.19      0.00
    5   20    4     -0.04      0.00
    6   20    4      0.15      0.00
   -5  -19    5     -0.49      0.00
   -4  -19    5     -0.17      0.00
   -3  -19    5     -0.65      0.00
   -2  -19    5      0.24      0.00
   -1  -19    5     -0.40      0.00
    0  -19    5      0.30      0.00
    1  -19    5      0.00      0.00
    2  -19    5      0.05      0.00
   -2  -18    5     -0.50      0.00
   -1  -18    5      0.18      0.00
    0  -18    5     -0.28      0.00
    1  -18    5      0.17      0.00
    2  -18    5      0.43      0.00
    3  -18    5     -0.17      0.00
   -2  -17    5     -0.24      0.00
   -1  -17    5     -0.59      0.00
    0  -17    5      0.10      0.00
    1  -17    5      0.03      0.00
    2  -17    5      0.10      0.00
    3  -17    5      0.31      0.00
    4  -17    5      0.08      0.00
    5  -17    5      0.28      0.00
   -1  -16    5      0.02      0.00
    0  -16    5     -0.93      0.00
    1  -16    5      0.48      0.00
    2  -16    5     -0.23      0.00
    3  -16    5      0.69      0.00
    4  -16    5     -0.65      0.00
    5  -16    5      1.00      0.00
    6  -16    5      0.00      0.00
   -1  -15    5     -0.60      0.00
    0  -15    5     -0.21      0.00
    1  -15    5     -0.65      0.00
    2  -15    5      0.81      0.00
    3  -15    5     -0.46      0.00
    4  -15    5      0.75      0.00
    5  -15    5     -0.81      0.00
    6  -15    5      1.10      0.00
   -1  -14    5      0.10      0.00
    0  -14    5     -0.54      0.00
    1  -14    5     -0.57      0.00
    2  -14    5      0.27      0.00
    3  -14    5      0.45      0.00
    4  -14    5     -0.09      0.00
    5  -14    5     -0.20      0.00
    1  -13    5     -0.50      0.00
    2  -13    5     -0.12      0.00
    3  -13    5      0.53      0.00
    4  -13    5      0.07      0.00
    5  -13    5     -0.11      0.00
    1  -12    5     -0.21      0.00
    2  -12    5     -0.76      0.00
    3  -12    5      0.74      0.00
    4  -12    5     -0.14      0.00
    5  -12    5      0.09      0.00
    2  -11    5     -0.06      0.00
    2    1    5      8.90      0.00
    9    4    5     -0.96      0.00
   -6   14    5      0.74      0.00
   -1   14    5      0.18      0.00
   -2   15    5     -0.33      0.00
   -1   15    5     -0.44      0.00
    0   15    5      0.36      0.00
    1   15    5     -0.66      0.00
    3   15    5     -0.89      0.00
   -4   16    5     -0.14      0.00
   -3   16    5      0.70      0.00
   -2   16    5     -0.20      0.00
   -1   16    5      0.15      0.00
    0   16    5     -0.39      0.00
    1   16    5      0.34      0.00
    2   16    5     -0.67      0.00
   -3   17    5     -0.66      0.00
   -2   17    5      1.10      0.00
   -1   17    5     -0.32      0.00
    0   17    5      0.39      0.00
    1   17    5     -0.21      0.00
    2   17    5     -0.26      0.00
   -2   18    5      0.11      0.00
   -1   18    5      0.39      0.00
    0   18    5      0.22      0.00
    1   18    5      0.09      0.00
    2   18    5      0.23      0.00
    3   18    5     -1.03      0.00
   -1   19    5      0.53      0.00
    0   19    5     -0.16      0.00
    1   19    5      0.51      0.00
    2   19    5      0.00      0.00
    3   19    5     -0.15      0.00
    4   19    5     -0.30      0.00
    1   20    5      0.07      0.00
    2   20    5      0.13      0.00
    3   20    5      0.35      0.00
    4   20    5     -0.87      0.00
    5   20    5      1.04      0.00
   -3  -19    6      0.03      0.00
   -2  -19    6     -0.16      0.00
   -1  -19    6     -0.46      0.00
    0  -19    6      0.22      0.00
    1  -19    6     -0.11      0.00
   -2  -18    6     -0.24      0.00
   -1  -18    6     -0.04      0.00
    0  -18    6     -0.35      0.00
    1  -18    6      0.17      0.00
    2  -18    6     -0.25      0.00
    3  -18    6      0.57      0.00
   -1  -17    6     -0.36      0.00
    0  -17    6     -0.33      0.00
    1  -17    6     -0.21      0.00
    2  -17    6      0.36      0.00
    3  -17    6     -0.46      0.00
    4  -17    6      0.64      0.00
   -1  -16    6     -0.25      0.00
    0  -16    6     -0.12      0.00
    1  -16    6     -0.68      0.00
    2  -16    6      0.22      0.00
    3  -16    6      0.04      0.00
    4  -16    6      0.03      0.00
    5  -16    6     -0.28      0.00
    0  -15    6     -0.88      0.00
    1  -15    6     -0.13      0.00
    2  -15    6     -0.47      0.00
    3  -15    6      0.56      0.00
    4  -15    6     -0.51      0.00
    5  -15    6      0.17      0.00
    6  -15    6     -0.58      0.00
    1  -14    6     -0.64      0.00
    2  -14    6     -0.57      0.00
    3  -14    6      0.28      0.00
    4  -14    6      0.06      0.00
    5  -14    6     -0.46      0.00
    7  -14    6     -0.20      0.00
    2  -13    6     -0.24      0.00
    3  -13    6     -0.64      0.00
    4  -13    6      0.44      0.00
    2    1    6      1.84      0.00
    9    4    6      0.30      0.00
   -3   16    6      0.22      0.00
   -2   16    6      0.69      0.00
   -1   16    6      0.18      0.00
    0   16    6      0.50      0.00
    1   16    6     -0.15      0.00
   -3   17    6      0.80      0.00
   -2   17    6     -0.42      0.00
   -1   17    6      1.02      0.00
    0   17    6     -0.18      0.00
    1   17    6      0.70      0.00
    2   17    6     -0.17      0.00
   -2   18    6      0.31      0.00
   -1   18    6      0.04      0.00
    0   18    6      0.09      0.00
    1   18    6      0.35      0.00
    2   18    6      0.17      0.00
    3   18    6      0.10      0.00
   -1   19    6     -0.28      0.00
    0   19    6      0.26      0.00
    1   19    6     -0.53      0.00
    2   19    6      0.68      0.00
    3   19    6     -0.08      0.00
    2   20    6      0.09      0.00
    3   20    6      0.07      0.00
    4   20    6      0.30      0.00
    5   20    6     -1.00      0.00
   -3  -19    7     -0.72      0.00
   -2  -19    7      0.23      0.00
   -1  -19    7      0.04      0.00
    0  -19    7     -0.46      0.00
   -5  -18    7      0.32      0.00
   -2  -18    7     -0.06      0.00
   -1  -18    7     -0.37      0.00
    0  -18    7      0.23      0.00
    1  -18    7     -0.45      0.00
    2  -18    7      0.04      0.00
    3  -18    7     -0.22      0.00
   -1  -17    7      0.46      0.00
    0  -17    7     -0.75      0.00
    1  -17    7      0.02      0.00
    2  -17    7     -0.35      0.00
    3  -17    7      0.18      0.00
    4  -17    7     -0.52      0.00
    0  -16    7     -0.20      0.00
    1  -16    7     -0.35      0.00
    2  -16    7     -0.38      0.00
    3  -16    7      0.00      0.00
    4  -16    7     -0.04      0.00
    5  -16    7     -0.33      0.00
    1  -15    7     -1.09      0.00
    2  -15    7      0.08      0.00
    3  -15    7     -0.50      0.00
    4  -15    7      0.28      0.00
    5  -15    7     -0.49      0.00
    6  -15    7     -0.20      0.00
    1  -14    7      0.60      0.00
    2  -14    7     -0.78      0.00
    3  -14    7     -0.38      0.00
    4  -14    7      0.13      0.00
    8  -13    7      0.30      0.00
   -3  -10    7     -0.85      0.00
   -5   -2    7      1.44      0.00
    2    1    7     -3.80      0.00
   -2   14    7      1.33      0.00
   -4   16    7      0.19      0.00
    1   16    7      0.29      0.00
   -3   17    7     -0.15      0.00
   -2   17    7      0.39      0.00
   -1   17    7     -0.33      0.00
    0   17    7      0.25      0.00
    1   17    7     -0.12      0.00
   -1   18    7     -0.03      0.00
    0   18    7     -0.18      0.00
    1   18    7     -0.53      0.00
    2   18    7      0.58      0.00
    0   19    7     -0.62      0.00
    1   19    7      0.21      0.00
    2   19    7     -0.83      0.00
    3   19    7      0.98      0.00
    3   20    7      0.12      0.00
    4   20    7      0.14      0.00
   -2  -18    8      0.24      0.00
   -1  -18    8      0.09      0.00
    0  -18    8     -0.47      0.00
    1  -18    8      0.17      0.00
    2  -18    8     -0.26      0.00
    0  -17    8      0.48      0.00
    1  -17    8     -0.92      0.00
    2  -17    8      0.27      0.00
    3  -17    8     -0.32      0.00
    4  -17    8      0.01      0.00
    1  -16    8     -0.05      0.00
    2  -16    8     -0.40      0.00
    3  -16    8     -0.13      0.00
    4  -16    8      0.03      0.00
    5  -16    8     -0.09      0.00
    2  -15    8     -1.11      0.00
    3  -15    8      0.58      0.00
    4  -15    8     -0.55      0.00
    5  -15    8      0.38      0.00
    6  -15    8     -0.29      0.00
    3  -14    8     -0.96      0.00
    4  -14    8      0.56      0.00
   -1   17    8     -0.21      0.00
   -1   18    8     -0.47      0.00
    0   18    8     -0.07      0.00
    1   18    8     -0.31      0.00
    1   19    8     -0.38      0.00
    2   19    8      0.16      0.00
    4   19    8      0.86      0.00
   -1  -18    9     -0.09      0.00
    0  -18    9      0.34      0.00
    1  -18    9     -0.41      0.00
    0  -17    9      0.02      0.00
    1  -17    9      0.58      0.00
    2  -17    9     -0.80      0.00
    3  -17    9      0.59      0.00
    1  -16    9      0.13      0.00
    2  -16    9      0.35      0.00
    3  -16    9     -0.43      0.00
    4  -16    9      0.39      0.00
    5  -16    9     -0.10      0.00
    0  -15    9      0.51      0.00
    3  -15    9     -0.57      0.00
    4  -15    9      0.70      0.00
    5  -15    9     -0.04      0.00
    6  -15    9      0.00      0.00
    4    2    9     -0.11      0.00
    0   18    9     -0.01      0.00
    2   19    9     -0.08      0.00
    1  -17   10      0.10      0.00
    2  -17   10      0.57      0.00
    0  -16   10      0.40      0.00
    2  -16   10     -0.18      0.00
    3  -16   10      0.72      0.00
    4  -16   10     -0.40      0.00
    4  -15   10      0.04      0.00
    4    2   10      1.10      0.00
   -2  -17   11     -0.01      0.00
    3  -16   11     -0.61      0.00
    4  -15   11     -0.75      0.00
    5  -15   11      0.16      0.00
    4    2   11      0.17      0.00
    5  -13   12     -0.21      0.00
    3  -15   13      0.09      0.00
   -1    0   15     -0.19      0.00
    0    0    0      0.00      0.00
# SQUEEZE RESULTS (Version = 270319)
# Note: Data are Listed for all Voids in the P1 Unit Cell
# i.e. Centre of Gravity, Solvent Accessible Volume,
# Recovered number of Electrons in the Void and
# Details about the Squeezed Material
loop_
  _platon_squeeze_void_nr
  _platon_squeeze_void_average_x
  _platon_squeeze_void_average_y
  _platon_squeeze_void_average_z
  _platon_squeeze_void_volume
  _platon_squeeze_void_count_electrons
  _platon_squeeze_void_content
   1  0.170  0.865  0.788        36         6 ' '
   2  0.437  0.420  0.753        14         7 ' '
   3  0.480  0.692  0.452        26         4 ' '
   4  0.519  0.308  0.548        26         4 ' '
   5  0.562  0.580  0.247        14         7 ' '
   6  0.830  0.135  0.212        37         6 ' '
# Missing Reflections Below sin(th)/lambda = 0.25
loop_
  _platon_missing_refln_index_h
  _platon_missing_refln_index_k
  _platon_missing_refln_index_l
  _platon_missing_refln_theta
    0    1    0     1.286
    0    2    0     2.573
    0    3    0     3.862
    0    4    0     5.152
    0    5    0     6.445
    0    6    0     7.741
   -1    7    0     9.689
    0    7    0     9.041
    1    7    0     8.869
    0   -7    1     9.131
    1   -7    1     9.702
    1   -6    1     8.436
    0   -5    1     6.569
    0    0    1     1.254
    1    1    1     2.288
   -2    4    1     7.575
    1   -7    2     9.878
    0   -6    2     8.146
    2    1    3     4.826
    2    1    4     5.623
    2    1    5     6.567
    2    1    6     7.605
    2    1    7     8.705
_platon_squeeze_void_probe_radius                  1.20
_platon_squeeze_details
)
TITL sm_a.res in P-1
CELL   10.0630   15.9270   16.5810     86.84     74.75     78.21
SPGR P-1
# Solvent Accessible Volume =       153
# Electrons Found in S.A.V. =        36
# Note: Atoms in Void are Labelled as Cxxx and Qxxx for all Others
C101 0.548 0.573 0.265 !       3.83 eA-3
Q102 0.575 0.605 0.295 !       1.23 eA-3
C103 0.445 0.658 0.443 !       1.18 eA-3
Q104 0.810 0.106 0.204 !       1.16 eA-3
Q105 0.592 0.012-0.004 !       1.15 eA-3
Q106 0.463 0.681 0.420 !       1.11 eA-3
C107 0.836 0.156 0.198 !       1.03 eA-3
Q108 0.556 0.662 0.376 !       0.97 eA-3
C109 0.502 0.751 0.484 !       0.97 eA-3
Q110 0.505 0.545 0.204 !       0.95 eA-3
Q111 0.464 0.626 0.298 !       0.93 eA-3
Q112 0.562 0.610 0.153 !       0.91 eA-3
Q113 0.098 0.017 0.481 !       0.90 eA-3
Q114 0.107 0.518 0.481 !       0.90 eA-3
Q115 0.968 0.079 0.157 !       0.89 eA-3
C116 0.936 0.152 0.174 !       0.89 eA-3
C117 0.064 0.848 0.826 !       0.89 eA-3
C118 0.503 0.683 0.487 !       0.87 eA-3
Q119 0.896 0.489 0.004 !       0.86 eA-3
Q120 0.685 0.575 0.217 !       0.86 eA-3
Q121 0.439 0.544 0.173 !       0.86 eA-3
Q122 0.751 0.174 0.236 !       0.85 eA-3
Q123 0.527 0.703 0.409 !       0.85 eA-3
Q124 0.820 0.909 0.201 !       0.84 eA-3
Q125 0.124 0.423 0.062 !       0.83 eA-3
Q126 0.746 0.204 0.124 !       0.83 eA-3
Q127 0.587 0.285 0.486 !       0.83 eA-3
Q128 0.613 0.393 0.268 !       0.81 eA-3
Q129 0.284 0.703 0.393 !       0.81 eA-3
Q130 0.500 0.587 0.348 !       0.80 eA-3
Q131 0.497 0.125 0.128 !       0.80 eA-3
Q132 0.565 0.751 0.421 !       0.79 eA-3
Q133 0.998 0.998 0.031 !       0.79 eA-3
Q134 0.902 0.375 0.108 !       0.79 eA-3
Q135 0.810 0.455 0.062 !       0.78 eA-3
Q136 0.591 0.580 0.175 !       0.78 eA-3
Q137 0.778 0.063 0.216 !       0.77 eA-3
Q138 0.623 0.620 0.115 !       0.77 eA-3
Q139 0.306 0.797 0.376 !       0.77 eA-3
Q140 0.557 0.501 0.489 !       0.77 eA-3
Q141 0.877 0.217 0.235 !       0.76 eA-3
Q142 0.465 0.691 0.374 !       0.76 eA-3
Q143 0.574 0.496 0.231 !       0.76 eA-3
Q144 0.685 0.140 0.170 !       0.76 eA-3
Q145 0.749 0.153 0.187 !       0.76 eA-3
Q146 0.945 0.919 0.189 !       0.76 eA-3
Q147 0.414 0.562 0.468 !       0.75 eA-3
Q148 0.340 0.890 0.217 !       0.75 eA-3
Q149 0.637 0.189 0.249 !       0.75 eA-3
Q150 0.927 0.090 0.220 !       0.75 eA-3
Q151 0.059 0.061 0.184 !       0.75 eA-3
Q152 0.526 0.123 0.237 !       0.75 eA-3
Q153 0.313 0.344 0.189 !       0.74 eA-3
Q154 0.812 0.014 0.192 !       0.74 eA-3
Q155 0.592 0.643 0.469 !       0.74 eA-3
Q156 0.529 0.750 0.295 !       0.73 eA-3
Q157 0.942 0.044 0.185 !       0.73 eA-3
Q158 0.811 0.163 0.144 !       0.73 eA-3
Q159 0.376 0.501 0.343 !       0.73 eA-3
Q160 0.822 0.188 0.254 !       0.73 eA-3
Q161 0.336 0.892 0.313 !       0.73 eA-3
Q162 1.000 0.018 0.155 !       0.72 eA-3
Q163 0.415 0.613 0.377 !       0.72 eA-3
Q164 0.346 0.563 0.343 !       0.72 eA-3
Q165 0.217 0.673 0.308 !       0.72 eA-3
Q166 0.622 0.847 0.427 !       0.72 eA-3
Q167 0.588 0.172 0.216 !       0.71 eA-3
Q168 0.097 0.096 0.218 !       0.71 eA-3
Q169 0.561 0.799 0.262 !       0.71 eA-3
Q170 0.537 0.332 0.468 !       0.71 eA-3
Q171 0.335 0.645 0.013 !       0.70 eA-3
Q172 0.470 0.704 0.016 !       0.70 eA-3
Q173 0.116 0.285 0.188 !       0.70 eA-3
Q174 0.093 0.907 0.233 !       0.70 eA-3
Q175 1.014 0.014 0.080 !       0.70 eA-3
Q176 0.067 0.704 0.141 !       0.70 eA-3
Q177 0.684 0.029 0.129 !       0.70 eA-3
Q178 0.160 0.013 0.158 !       0.70 eA-3
Q179 0.376 0.689 0.405 !       0.70 eA-3
Q180 0.126 0.466 0.470 !       0.69 eA-3
Q181 0.122 0.986 0.438 !       0.69 eA-3
Q182 0.934 0.284 0.089 !       0.69 eA-3
Q183 0.379 0.769 0.421 !       0.69 eA-3
Q184 0.970 0.843 0.251 !       0.69 eA-3
Q185 0.858 0.315 0.061 !       0.69 eA-3
Q186 0.778 0.253 0.309 !       0.68 eA-3
Q187 0.125 0.139 0.220 !       0.68 eA-3
Q188 0.222 0.455 0.312 !       0.68 eA-3
Q189 0.569 0.403 0.468 !       0.68 eA-3
Q190 0.125 0.924 0.295 !       0.68 eA-3
Q191 0.877 0.486 0.079 !       0.68 eA-3
C192 0.916 0.117 0.198 !       0.68 eA-3
Q193 0.866 0.078 0.158 !       0.68 eA-3
Q194 0.813 0.146 0.264 !       0.67 eA-3
Q195 0.446 0.551 0.282 !       0.67 eA-3
Q196 0.537 0.629 0.439 !       0.67 eA-3
Q197 0.474 0.358 0.435 !       0.67 eA-3
Q198 0.533 0.557 0.160 !       0.67 eA-3
Q199 0.028 0.150 0.140 !       0.67 eA-3
)
;
_shelx_fab_checksum              94166
loop_
_space_group_symop_operation_xyz
'x, y, z'
'-x, -y, -z'
loop_
_atom_site_label
_atom_site_type_symbol
_atom_site_fract_x
_atom_site_fract_y
_atom_site_fract_z
_atom_site_U_iso_or_equiv
_atom_site_adp_type
_atom_site_occupancy
_atom_site_site_symmetry_order
_atom_site_calc_flag
_atom_site_refinement_flags_posn
_atom_site_refinement_flags_adp
_atom_site_refinement_flags_occupancy
Ni1 Ni 0.000000 0.500000 0.000000 0.0456(3) Uani 1 2 d S U P
Ni2 Ni 0.000000 0.000000 0.500000 0.0542(3) Uani 1 2 d S U P
Ni3 Ni 0.500000 0.000000 0.000000 0.0526(3) Uani 1 2 d S U P
Ni4 Ni 0.000000 0.500000 0.500000 0.0563(3) Uani 1 2 d S U P
O1 O -0.2736(5) 0.4369(3) 0.1566(3) 0.0709(13) Uani 1 1 d . U .
O2 O -0.0425(4) 0.4032(3) 0.0964(2) 0.0538(11) Uani 1 1 d . U .
O3 O -0.1393(5) 0.2268(3) 0.5212(2) 0.0722(14) Uani 1 1 d . U .
O4 O -0.0176(5) 0.1187(3) 0.4343(2) 0.0616(12) Uani 1 1 d . U .
O5 O 0.5766(5) 0.0143(3) 0.1927(3) 0.0835(15) Uani 1 1 d . U .
O6 O 0.4111(4) 0.0554(3) 0.1226(3) 0.0615(11) Uani 1 1 d . U .
O7 O 0.1876(5) 0.2937(3) 0.5150(3) 0.0770(14) Uani 1 1 d . U .
O8 O 0.0948(5) 0.3821(3) 0.4261(2) 0.0596(11) Uani 1 1 d . U .
N1 N 0.1988(5) 0.4295(3) -0.0411(3) 0.0476(12) Uani 1 1 d . U .
H1 H 0.252109 0.464773 -0.084741 0.057 Uiso 1 1 calc R U .
N2 N 0.0609(5) 0.5679(3) 0.0802(3) 0.0486(12) Uani 1 1 d . U .
H2 H 0.106749 0.613778 0.047760 0.058 Uiso 1 1 calc R U .
N3 N 0.2903(5) 0.4776(3) 0.0631(3) 0.0489(12) Uani 1 1 d . U .
N4 N 0.5093(6) 0.2460(4) 0.1016(4) 0.0711(16) Uani 1 1 d . U .
N5 N 0.2084(7) 0.0068(4) 0.4858(4) 0.0765(16) Uani 1 1 d . U .
H5 H 0.218986 0.066609 0.468102 0.092 Uiso 1 1 calc R U .
N6 N -0.0676(7) 0.0601(4) 0.6143(3) 0.0758(16) Uani 1 1 d . U .
H6 H -0.075282 0.123298 0.604832 0.091 Uiso 1 1 calc R U .
N7 N 0.1676(11) 0.0415(5) 0.6309(6) 0.111(2) Uani 1 1 d . U .
N8 N 0.3336(12) 0.2832(7) 0.7003(6) 0.150(4) Uani 1 1 d . U .
N9 N 0.5640(5) 0.1131(3) -0.0402(3) 0.0572(13) Uani 1 1 d . U .
H9 H 0.553413 0.148777 0.009708 0.069 Uiso 1 1 calc R U .
N10 N 0.6827(5) -0.0547(3) 0.0305(3) 0.0563(13) Uani 1 1 d . U .
H10 H 0.677502 -0.031626 0.086397 0.068 Uiso 1 1 calc R U .
N11 N 0.8083(6) 0.0535(4) -0.0411(4) 0.0724(16) Uani 1 1 d . U .
N12 N 1.0346(8) 0.1874(5) -0.1356(5) 0.104(2) Uani 1 1 d . U .
N13 N -0.0789(6) 0.5462(3) 0.4027(3) 0.0607(14) Uani 1 1 d . U .
H13 H -0.121513 0.608255 0.413630 0.073 Uiso 1 1 calc R U .
N14 N 0.1790(6) 0.5509(4) 0.4602(3) 0.0657(14) Uani 1 1 d . U .
H14 H 0.153851 0.613221 0.475060 0.079 Uiso 1 1 calc R U .
N15 N 0.1444(6) 0.5817(4) 0.3200(3) 0.0665(15) Uani 1 1 d . U .
N16 N 0.3289(8) 0.6796(4) 0.1261(4) 0.098(2) Uani 1 1 d . U .
C1 C -0.1521(7) 0.3980(4) 0.1539(4) 0.0575(16) Uani 1 1 d . U .
C2 C -0.1321(6) 0.3443(4) 0.2297(3) 0.0494(14) Uani 1 1 d . U .
C3 C -0.2482(6) 0.3317(4) 0.2936(4) 0.0548(16) Uani 1 1 d . U .
H3 H -0.340680 0.355119 0.289162 0.066 Uiso 1 1 calc R U .
C4 C -0.2271(7) 0.2844(4) 0.3643(4) 0.0574(16) Uani 1 1 d . U .
H4 H -0.306620 0.275497 0.407132 0.069 Uiso 1 1 calc R U .
C5 C -0.0934(6) 0.2500(4) 0.3740(3) 0.0516(15) Uani 1 1 d . U .
C6 C 0.0228(6) 0.2650(4) 0.3109(3) 0.0525(15) Uani 1 1 d . U .
C7 C 0.0017(6) 0.3115(4) 0.2400(3) 0.0468(14) Uani 1 1 d . U .
H7 H 0.081162 0.321158 0.197469 0.056 Uiso 1 1 calc R U .
C8 C -0.0824(7) 0.1969(4) 0.4508(4) 0.0563(16) Uani 1 1 d . U .
C9 C 0.4629(7) 0.0584(4) 0.1833(4) 0.0648(17) Uani 1 1 d . U .
C10 C 0.3829(7) 0.1227(4) 0.2518(4) 0.0560(15) Uani 1 1 d . U .
C11 C 0.2477(6) 0.1666(4) 0.2525(4) 0.0508(14) Uani 1 1 d . U .
H11 H 0.207016 0.155774 0.209533 0.061 Uiso 1 1 calc R U .
C12 C 0.1702(6) 0.2262(4) 0.3150(3) 0.0501(14) Uani 1 1 d . U .
C13 C 0.2326(7) 0.2446(4) 0.3773(4) 0.0563(15) Uani 1 1 d . U .
C14 C 0.3659(7) 0.1996(4) 0.3749(4) 0.0605(16) Uani 1 1 d . U .
H14A H 0.408128 0.209674 0.417448 0.073 Uiso 1 1 calc R U .
C15 C 0.4414(7) 0.1399(4) 0.3131(4) 0.0614(16) Uani 1 1 d . U .
H15 H 0.533755 0.111084 0.313433 0.074 Uiso 1 1 calc R U .
C16 C 0.1650(7) 0.3111(4) 0.4456(4) 0.0621(17) Uani 1 1 d . U .
C17 C 0.1612(6) 0.5148(4) 0.1234(3) 0.0505(14) Uani 1 1 d . U .
H17A H 0.182381 0.550759 0.163347 0.061 Uiso 1 1 calc R U .
H17B H 0.117991 0.468425 0.155288 0.061 Uiso 1 1 calc R U .
C18 C 0.2821(6) 0.4033(4) 0.0182(3) 0.0524(15) Uani 1 1 d . U .
H18A H 0.377928 0.374327 -0.011707 0.063 Uiso 1 1 calc R U .
H18B H 0.239356 0.362025 0.058453 0.063 Uiso 1 1 calc R U .
C19 C 0.1781(7) 0.3561(4) -0.0853(4) 0.0550(16) Uani 1 1 d . U .
H19A H 0.141361 0.313454 -0.044271 0.066 Uiso 1 1 calc R U .
H19B H 0.268628 0.327616 -0.122310 0.066 Uiso 1 1 calc R U .
C20 C -0.0737(6) 0.6091(4) 0.1367(3) 0.0525(15) Uani 1 1 d . U .
H20A H -0.059036 0.656446 0.167584 0.063 Uiso 1 1 calc R U .
H20B H -0.110992 0.566743 0.177933 0.063 Uiso 1 1 calc R U .
C21 C 0.4134(7) 0.4664(4) 0.0977(4) 0.0567(15) Uani 1 1 d . U .
H21A H 0.415595 0.522232 0.120324 0.068 Uiso 1 1 calc R U .
H21B H 0.499197 0.451015 0.051423 0.068 Uiso 1 1 calc R U .
C22 C 0.4196(7) 0.3973(4) 0.1681(4) 0.0566(16) Uani 1 1 d . U .
H22A H 0.484827 0.408152 0.200016 0.068 Uiso 1 1 calc R U .
H22B H 0.325191 0.402210 0.207210 0.068 Uiso 1 1 calc R U .
C23 C 0.4664(7) 0.3105(5) 0.1339(4) 0.0590(17) Uani 1 1 d . U .
C24 C -0.2080(9) 0.0432(5) 0.6514(5) 0.086(2) Uani 1 1 d . U .
H24A H -0.258202 0.084649 0.697041 0.103 Uiso 1 1 calc R U .
H24B H -0.200975 -0.015298 0.675524 0.103 Uiso 1 1 calc R U .
C25 C 0.2874(9) -0.0512(5) 0.4135(6) 0.093(3) Uani 1 1 d . U .
H25A H 0.380441 -0.036100 0.388989 0.112 Uiso 1 1 calc R U .
H25B H 0.302856 -0.111356 0.433247 0.112 Uiso 1 1 calc R U .
C26 C 0.0296(12) 0.0316(7) 0.6680(6) 0.105(3) Uani 1 1 d . U .
H26A H -0.005985 0.064684 0.720744 0.126 Uiso 1 1 calc R U .
H26B H 0.030141 -0.029647 0.682308 0.126 Uiso 1 1 calc R U .
C27 C 0.2544(10) -0.0112(6) 0.5646(7) 0.103(2) Uani 1 1 d . U .
H27A H 0.253980 -0.071957 0.580501 0.123 Uiso 1 1 calc R U .
H27B H 0.351926 -0.002232 0.554655 0.123 Uiso 1 1 calc R U .
C28 C 0.1966(14) 0.1241(8) 0.6316(8) 0.140(3) Uani 1 1 d . U .
H28A H 0.106861 0.165055 0.652430 0.168 Uiso 1 1 calc R U .
H28B H 0.238402 0.140649 0.573448 0.168 Uiso 1 1 calc R U .
C29 C 0.2901(11) 0.1320(7) 0.6820(8) 0.124(3) Uani 1 1 d . U .
H29A H 0.380875 0.093102 0.658436 0.149 Uiso 1 1 calc R U .
H29B H 0.250894 0.110439 0.738662 0.149 Uiso 1 1 calc R U .
C30 C 0.3193(12) 0.2153(8) 0.6915(7) 0.125(4) Uani 1 1 d . U .
C31 C 0.6802(7) -0.1475(4) 0.0415(4) 0.0638(18) Uani 1 1 d . U .
H31A H 0.748779 -0.175028 0.072979 0.077 Uiso 1 1 calc R U .
H31B H 0.706353 -0.175699 -0.013751 0.077 Uiso 1 1 calc R U .
C32 C 0.4651(7) 0.1575(4) -0.0885(5) 0.0670(18) Uani 1 1 d . U .
H32A H 0.489798 0.131791 -0.144865 0.080 Uiso 1 1 calc R U .
H32B H 0.470129 0.218991 -0.094977 0.080 Uiso 1 1 calc R U .
C33 C 0.8088(7) -0.0356(4) -0.0271(5) 0.071(2) Uani 1 1 d . U .
H33A H 0.890552 -0.061466 -0.005239 0.085 Uiso 1 1 calc R U .
H33B H 0.821482 -0.063230 -0.081397 0.085 Uiso 1 1 calc R U .
C34 C 0.7125(7) 0.0982(4) -0.0890(5) 0.0675(18) Uani 1 1 d . U .
H34A H 0.723230 0.063954 -0.139161 0.081 Uiso 1 1 calc R U .
H34B H 0.738371 0.154053 -0.108107 0.081 Uiso 1 1 calc R U .
C35 C 0.8096(8) 0.0999(5) 0.0310(5) 0.0773(19) Uani 1 1 d . U .
H35A H 0.879368 0.065899 0.058456 0.093 Uiso 1 1 calc R U .
H35B H 0.716116 0.106385 0.071340 0.093 Uiso 1 1 calc R U .
C36 C 0.8454(8) 0.1896(5) 0.0092(5) 0.086(2) Uani 1 1 d . U .
H36A H 0.759145 0.230907 0.005456 0.103 Uiso 1 1 calc R U .
H36B H 0.879330 0.208809 0.054583 0.103 Uiso 1 1 calc R U .
C37 C 0.9541(9) 0.1897(5) -0.0709(6) 0.086(2) Uani 1 1 d . U .
C38 C 0.2768(8) 0.5075(5) 0.5082(4) 0.0707(19) Uani 1 1 d . U .
H38A H 0.350155 0.541194 0.505924 0.085 Uiso 1 1 calc R U .
H38B H 0.323197 0.450038 0.484340 0.085 Uiso 1 1 calc R U .
C39 C -0.1937(7) 0.5010(5) 0.4017(4) 0.0657(18) Uani 1 1 d . U .
H39A H -0.154079 0.443581 0.376175 0.079 Uiso 1 1 calc R U .
H39B H -0.255529 0.534085 0.368629 0.079 Uiso 1 1 calc R U .
C40 C 0.2419(8) 0.5430(5) 0.3675(4) 0.0673(18) Uani 1 1 d . U .
H40A H 0.324795 0.570655 0.352136 0.081 Uiso 1 1 calc R U .
H40B H 0.274505 0.481558 0.352676 0.081 Uiso 1 1 calc R U .
C41 C 0.0270(7) 0.5399(4) 0.3226(4) 0.0628(17) Uani 1 1 d . U .
H41A H 0.064654 0.478517 0.308790 0.075 Uiso 1 1 calc R U .
H41B H -0.019250 0.565589 0.278726 0.075 Uiso 1 1 calc R U .
C42 C 0.1047(8) 0.6757(4) 0.3225(4) 0.072(2) Uani 1 1 d . U .
H42A H 0.064732 0.694670 0.381327 0.087 Uiso 1 1 calc R U .
H42B H 0.031146 0.694646 0.292148 0.087 Uiso 1 1 calc R U .
C43 C 0.2300(10) 0.7177(5) 0.2834(5) 0.087(2) Uani 1 1 d . U .
H43A H 0.200042 0.780815 0.288863 0.104 Uiso 1 1 calc R U .
H43B H 0.303480 0.699007 0.313812 0.104 Uiso 1 1 calc R U .
C44 C 0.2880(9) 0.6956(5) 0.1960(5) 0.086(3) Uani 1 1 d . U .
loop_
_atom_site_aniso_label
_atom_site_aniso_U_11
_atom_site_aniso_U_22
_atom_site_aniso_U_33
_atom_site_aniso_U_23
_atom_site_aniso_U_13
_atom_site_aniso_U_12
Ni1 0.0622(7) 0.0333(6) 0.0333(5) 0.0032(4) -0.0084(5) 0.0029(5)
Ni2 0.0653(7) 0.0473(7) 0.0390(6) 0.0140(4) -0.0048(5) -0.0013(5)
Ni3 0.0486(7) 0.0338(7) 0.0623(7) 0.0010(5) -0.0002(5) 0.0030(5)
Ni4 0.0720(8) 0.0555(8) 0.0335(6) 0.0025(5) -0.0069(5) -0.0040(6)
O1 0.066(3) 0.075(3) 0.063(3) 0.030(2) -0.013(2) -0.010(2)
O2 0.067(3) 0.049(3) 0.035(2) 0.0061(16) -0.0052(18) 0.0002(19)
O3 0.106(4) 0.052(3) 0.041(2) 0.0076(19) 0.000(2) -0.004(2)
O4 0.075(3) 0.051(3) 0.043(2) 0.0139(18) 0.000(2) -0.001(2)
O5 0.070(3) 0.080(4) 0.082(3) -0.013(3) -0.016(3) 0.026(3)
O6 0.055(3) 0.054(3) 0.065(3) -0.008(2) -0.004(2) 0.002(2)
O7 0.108(4) 0.064(3) 0.046(2) 0.004(2) -0.019(2) 0.012(3)
O8 0.076(3) 0.050(3) 0.043(2) 0.0030(17) -0.009(2) 0.001(2)
N1 0.061(3) 0.040(3) 0.032(2) 0.0012(18) -0.006(2) 0.002(2)
N2 0.065(3) 0.035(3) 0.039(2) 0.0030(18) -0.012(2) 0.003(2)
N3 0.060(3) 0.040(3) 0.038(2) 0.0054(19) -0.009(2) 0.003(2)
N4 0.085(4) 0.051(4) 0.075(4) 0.011(3) -0.024(3) -0.008(3)
N5 0.090(4) 0.042(4) 0.091(4) 0.022(3) -0.021(3) -0.007(3)
N6 0.118(4) 0.053(4) 0.046(3) 0.012(2) -0.015(3) -0.004(3)
N7 0.158(6) 0.074(5) 0.125(6) 0.008(4) -0.083(5) -0.020(5)
N8 0.198(8) 0.128(6) 0.125(6) -0.021(5) -0.015(6) -0.063(6)
N9 0.055(3) 0.036(3) 0.071(3) 0.004(2) -0.007(2) 0.001(2)
N10 0.047(3) 0.039(3) 0.072(3) 0.002(2) -0.005(2) 0.000(2)
N11 0.053(3) 0.060(4) 0.098(4) 0.012(3) -0.012(3) -0.009(3)
N12 0.091(5) 0.096(6) 0.122(6) 0.035(5) -0.018(4) -0.035(4)
N13 0.077(4) 0.055(4) 0.040(3) 0.002(2) -0.006(2) -0.002(3)
N14 0.080(4) 0.064(4) 0.043(3) -0.003(2) -0.006(2) -0.004(3)
N15 0.093(4) 0.060(4) 0.038(3) 0.006(2) -0.003(3) -0.014(3)
N16 0.122(5) 0.064(4) 0.083(4) 0.008(3) 0.019(4) -0.019(4)
C1 0.061(4) 0.049(4) 0.057(4) 0.013(3) -0.012(3) -0.006(3)
C2 0.059(4) 0.039(4) 0.046(3) 0.005(2) -0.008(3) -0.006(3)
C3 0.052(3) 0.049(4) 0.056(3) 0.013(3) -0.009(3) -0.002(3)
C4 0.064(4) 0.053(4) 0.049(3) 0.010(3) -0.004(3) -0.015(3)
C5 0.055(3) 0.051(4) 0.040(3) 0.009(2) -0.004(2) -0.003(3)
C6 0.060(3) 0.047(4) 0.041(3) 0.003(2) -0.005(2) -0.001(3)
C7 0.056(3) 0.036(3) 0.040(3) 0.009(2) -0.001(2) -0.004(3)
C8 0.068(4) 0.041(4) 0.048(3) 0.007(2) -0.002(3) -0.004(3)
C9 0.062(4) 0.055(4) 0.066(4) 0.001(3) -0.009(3) 0.003(3)
C10 0.058(4) 0.041(4) 0.056(3) 0.004(2) -0.001(3) -0.001(3)
C11 0.057(3) 0.047(4) 0.044(3) 0.010(2) -0.009(3) -0.007(3)
C12 0.058(3) 0.039(3) 0.041(3) 0.015(2) 0.003(2) -0.005(3)
C13 0.061(4) 0.054(4) 0.042(3) 0.005(2) -0.002(3) 0.000(3)
C14 0.064(4) 0.058(4) 0.052(4) 0.007(3) -0.009(3) -0.006(3)
C15 0.058(4) 0.050(4) 0.067(4) 0.005(3) -0.011(3) 0.001(3)
C16 0.080(5) 0.053(4) 0.043(3) 0.008(3) -0.009(3) -0.001(3)
C17 0.062(4) 0.042(4) 0.040(3) 0.004(2) -0.012(3) 0.002(3)
C18 0.067(4) 0.042(4) 0.039(3) 0.003(2) -0.012(3) 0.009(3)
C19 0.066(4) 0.042(4) 0.044(3) -0.001(2) -0.008(3) 0.011(3)
C20 0.064(4) 0.043(4) 0.042(3) -0.007(2) -0.010(3) 0.007(3)
C21 0.059(4) 0.051(4) 0.057(4) 0.003(3) -0.012(3) -0.007(3)
C22 0.055(4) 0.060(4) 0.052(3) 0.001(3) -0.017(3) 0.000(3)
C23 0.062(4) 0.055(4) 0.058(4) 0.009(3) -0.016(3) -0.011(3)
C24 0.110(5) 0.043(5) 0.068(5) 0.007(3) 0.024(4) 0.003(4)
C25 0.078(5) 0.050(5) 0.117(6) 0.018(4) 0.018(5) 0.003(4)
C26 0.134(4) 0.100(5) 0.084(4) 0.001(3) -0.042(3) -0.011(4)
C27 0.100(6) 0.078(6) 0.143(6) 0.034(5) -0.064(5) -0.013(5)
C28 0.158(5) 0.124(5) 0.147(5) 0.004(4) -0.053(4) -0.033(4)
C29 0.107(7) 0.093(7) 0.174(10) -0.028(7) -0.039(6) -0.012(5)
C30 0.139(9) 0.097(8) 0.119(8) -0.035(6) 0.011(6) -0.030(7)
C31 0.059(4) 0.036(4) 0.083(5) 0.001(3) -0.007(3) 0.004(3)
C32 0.068(4) 0.039(4) 0.083(5) 0.009(3) -0.010(3) 0.000(3)
C33 0.054(4) 0.047(4) 0.098(5) 0.011(3) -0.004(3) 0.000(3)
C34 0.061(4) 0.050(4) 0.084(5) 0.019(3) -0.007(3) -0.012(3)
C35 0.055(4) 0.080(5) 0.091(5) 0.012(4) -0.012(4) -0.011(4)
C36 0.071(5) 0.067(5) 0.113(6) 0.016(4) -0.016(4) -0.012(4)
C37 0.077(6) 0.069(6) 0.116(6) 0.025(5) -0.028(4) -0.023(4)
C38 0.072(4) 0.078(5) 0.056(4) 0.002(3) -0.014(3) -0.005(4)
C39 0.071(4) 0.073(5) 0.046(4) 0.003(3) -0.011(3) -0.004(3)
C40 0.081(4) 0.069(5) 0.040(3) 0.002(3) 0.002(3) -0.011(3)
C41 0.086(4) 0.051(4) 0.040(3) -0.002(3) -0.005(3) -0.004(3)
C42 0.101(5) 0.057(4) 0.050(4) -0.001(3) -0.005(3) -0.015(4)
C43 0.130(7) 0.056(5) 0.067(4) 0.006(3) -0.008(4) -0.027(4)
C44 0.112(6) 0.046(5) 0.074(4) 0.005(3) 0.015(4) -0.010(4)
loop_
_atom_type_symbol
_atom_type_description
_atom_type_scat_dispersion_real
_atom_type_scat_dispersion_imag
_atom_type_scat_source
C C 0.0030 0.0016 'International Tables Vol C Tables 4.2.6.8 and 6.1.1.4'
H H 0.0000 0.0000 'International Tables Vol C Tables 4.2.6.8 and 6.1.1.4'
N N 0.0059 0.0032 'International Tables Vol C Tables 4.2.6.8 and 6.1.1.4'
O O 0.0105 0.0059 'International Tables Vol C Tables 4.2.6.8 and 6.1.1.4'
Ni Ni 0.3420 1.0875 'International Tables Vol C Tables 4.2.6.8 and 6.1.1.4'
loop_
_geom_angle_atom_site_label_1
_geom_angle_atom_site_label_2
_geom_angle_atom_site_label_3
_geom_angle
_geom_angle_site_symmetry_1
_geom_angle_site_symmetry_3
N1 Ni1 N1 180.0 . 2_565
N1 Ni1 N2 91.74(19) . .
N1 Ni1 N2 88.26(19) 2_565 .
N1 Ni1 N2 88.26(19) . 2_565
N1 Ni1 N2 91.74(19) 2_565 2_565
N2 Ni1 N2 180.0 . 2_565
N1 Ni1 O2 91.65(16) . 2_565
N1 Ni1 O2 88.35(16) 2_565 2_565
N2 Ni1 O2 89.99(17) . 2_565
N2 Ni1 O2 90.01(17) 2_565 2_565
N1 Ni1 O2 88.35(16) . .
N1 Ni1 O2 91.65(16) 2_565 .
N2 Ni1 O2 90.01(17) . .
N2 Ni1 O2 89.99(17) 2_565 .
O2 Ni1 O2 180.0 2_565 .
N6 Ni2 N6 180.0 2_556 .
N6 Ni2 N5 86.1(3) 2_556 .
N6 Ni2 N5 93.9(3) . .
N6 Ni2 N5 93.9(3) 2_556 2_556
N6 Ni2 N5 86.1(3) . 2_556
N5 Ni2 N5 180.0(3) . 2_556
N6 Ni2 O4 87.61(19) 2_556 .
N6 Ni2 O4 92.39(19) . .
N5 Ni2 O4 86.4(2) . .
N5 Ni2 O4 93.6(2) 2_556 .
N6 Ni2 O4 92.39(19) 2_556 2_556
N6 Ni2 O4 87.61(19) . 2_556
N5 Ni2 O4 93.6(2) . 2_556
N5 Ni2 O4 86.4(2) 2_556 2_556
O4 Ni2 O4 180.0 . 2_556
N10 Ni3 N10 180.0 . 2_655
N10 Ni3 N9 94.3(2) . .
N10 Ni3 N9 85.7(2) 2_655 .
N10 Ni3 N9 85.7(2) . 2_655
N10 Ni3 N9 94.3(2) 2_655 2_655
N9 Ni3 N9 180.0 . 2_655
N10 Ni3 O6 88.66(19) . 2_655
N10 Ni3 O6 91.34(19) 2_655 2_655
N9 Ni3 O6 91.49(19) . 2_655
N9 Ni3 O6 88.51(19) 2_655 2_655
N10 Ni3 O6 91.34(19) . .
N10 Ni3 O6 88.66(19) 2_655 .
N9 Ni3 O6 88.51(19) . .
N9 Ni3 O6 91.49(19) 2_655 .
O6 Ni3 O6 180.0 2_655 .
N13 Ni4 N13 180.0 . 2_566
N13 Ni4 N14 94.9(2) . .
N13 Ni4 N14 85.1(2) 2_566 .
N13 Ni4 N14 85.1(2) . 2_566
N13 Ni4 N14 94.9(2) 2_566 2_566
N14 Ni4 N14 180.00(16) . 2_566
N13 Ni4 O8 86.72(18) . .
N13 Ni4 O8 93.28(18) 2_566 .
N14 Ni4 O8 93.32(19) . .
N14 Ni4 O8 86.68(19) 2_566 .
N13 Ni4 O8 93.28(18) . 2_566
N13 Ni4 O8 86.72(18) 2_566 2_566
N14 Ni4 O8 86.68(19) . 2_566
N14 Ni4 O8 93.32(19) 2_566 2_566
O8 Ni4 O8 180.0 . 2_566
C1 O2 Ni1 131.2(4) . .
C8 O4 Ni2 136.9(4) . .
C9 O6 Ni3 131.9(4) . .
C16 O8 Ni4 129.9(4) . .
C18 N1 C19 113.3(4) . .
C18 N1 Ni1 119.0(3) . .
C19 N1 Ni1 103.4(4) . .
C18 N1 H1 106.8 . .
C19 N1 H1 106.8 . .
Ni1 N1 H1 106.8 . .
C20 N2 C17 114.4(4) . .
C20 N2 Ni1 103.2(4) . .
C17 N2 Ni1 113.7(4) . .
C20 N2 H2 108.4 . .
C17 N2 H2 108.4 . .
Ni1 N2 H2 108.4 . .
C17 N3 C18 114.9(5) . .
C17 N3 C21 112.1(5) . .
C18 N3 C21 114.8(5) . .
C27 N5 C25 116.3(7) . .
C27 N5 Ni2 113.3(5) . .
C25 N5 Ni2 104.3(5) . .
C27 N5 H5 107.5 . .
C25 N5 H5 107.5 . .
Ni2 N5 H5 107.5 . .
C24 N6 C26 112.7(6) . .
C24 N6 Ni2 105.9(5) . .
C26 N6 Ni2 112.6(5) . .
C24 N6 H6 108.5 . .
C26 N6 H6 108.5 . .
Ni2 N6 H6 108.5 . .
C26 N7 C27 121.4(8) . .
C26 N7 C28 117.2(10) . .
C27 N7 C28 115.1(10) . .
C34 N9 C32 113.3(5) . .
C34 N9 Ni3 111.7(4) . .
C32 N9 Ni3 105.7(4) . .
C34 N9 H9 108.7 . .
C32 N9 H9 108.7 . .
Ni3 N9 H9 108.7 . .
C33 N10 C31 114.5(5) . .
C33 N10 Ni3 114.6(4) . .
C31 N10 Ni3 105.6(4) . .
C33 N10 H10 107.2 . .
C31 N10 H10 107.2 . .
Ni3 N10 H10 107.2 . .
C33 N11 C35 114.6(6) . .
C33 N11 C34 115.9(6) . .
C35 N11 C34 114.4(6) . .
C41 N13 C39 112.2(5) . .
C41 N13 Ni4 113.6(4) . .
C39 N13 Ni4 107.8(4) . .
C41 N13 H13 107.7 . .
C39 N13 H13 107.7 . .
Ni4 N13 H13 107.7 . .
C38 N14 C40 112.4(5) . .
C38 N14 Ni4 106.5(4) . .
C40 N14 Ni4 113.0(4) . .
C38 N14 H14 108.3 . .
C40 N14 H14 108.3 . .
Ni4 N14 H14 108.3 . .
C40 N15 C41 117.3(6) . .
C40 N15 C42 116.5(6) . .
C41 N15 C42 113.2(6) . .
O1 C1 O2 126.3(6) . .
O1 C1 C2 116.5(5) . .
O2 C1 C2 117.0(6) . .
C7 C2 C3 118.5(5) . .
C7 C2 C1 121.0(5) . .
C3 C2 C1 120.4(6) . .
C2 C3 C4 119.4(6) . .
C2 C3 H3 120.3 . .
C4 C3 H3 120.3 . .
C5 C4 C3 122.2(5) . .
C5 C4 H4 118.9 . .
C3 C4 H4 118.9 . .
C4 C5 C6 118.2(5) . .
C4 C5 C8 117.9(5) . .
C6 C5 C8 123.9(6) . .
C7 C6 C5 119.6(6) . .
C7 C6 C12 119.1(5) . .
C5 C6 C12 121.2(5) . .
C2 C7 C6 122.1(5) . .
C2 C7 H7 118.9 . .
C6 C7 H7 118.9 . .
O3 C8 O4 125.5(6) . .
O3 C8 C5 120.8(6) . .
O4 C8 C5 113.5(5) . .
O5 C9 O6 126.5(6) . .
O5 C9 C10 116.1(7) . .
O6 C9 C10 117.4(6) . .
C15 C10 C11 118.6(6) . .
C15 C10 C9 121.2(6) . .
C11 C10 C9 120.2(6) . .
C10 C11 C12 121.9(6) . .
C10 C11 H11 119.1 . .
C12 C11 H11 119.1 . .
C11 C12 C13 119.1(6) . .
C11 C12 C6 116.2(6) . .
C13 C12 C6 124.7(5) . .
C14 C13 C12 117.3(6) . .
C14 C13 C16 117.6(6) . .
C12 C13 C16 125.0(6) . .
C13 C14 C15 123.0(7) . .
C13 C14 H14A 118.5 . .
C15 C14 H14A 118.5 . .
C10 C15 C14 120.0(6) . .
C10 C15 H15 120.0 . .
C14 C15 H15 120.0 . .
O7 C16 O8 125.2(6) . .
O7 C16 C13 117.0(6) . .
O8 C16 C13 117.7(5) . .
N3 C17 N2 110.4(4) . .
N3 C17 H17A 109.6 . .
N2 C17 H17A 109.6 . .
N3 C17 H17B 109.6 . .
N2 C17 H17B 109.6 . .
H17A C17 H17B 108.1 . .
N1 C18 N3 110.4(4) . .
N1 C18 H18A 109.6 . .
N3 C18 H18A 109.6 . .
N1 C18 H18B 109.6 . .
N3 C18 H18B 109.6 . .
H18A C18 H18B 108.1 . .
N1 C19 C20 108.1(5) . 2_565
N1 C19 H19A 110.1 . .
C20 C19 H19A 110.1 2_565 .
N1 C19 H19B 110.1 . .
C20 C19 H19B 110.1 2_565 .
H19A C19 H19B 108.4 . .
N2 C20 C19 109.1(4) . 2_565
N2 C20 H20A 109.9 . .
C19 C20 H20A 109.9 2_565 .
N2 C20 H20B 109.9 . .
C19 C20 H20B 109.9 2_565 .
H20A C20 H20B 108.3 . .
N3 C21 C22 115.8(5) . .
N3 C21 H21A 108.3 . .
C22 C21 H21A 108.3 . .
N3 C21 H21B 108.3 . .
C22 C21 H21B 108.3 . .
H21A C21 H21B 107.4 . .
C23 C22 C21 111.8(5) . .
C23 C22 H22A 109.3 . .
C21 C22 H22A 109.3 . .
C23 C22 H22B 109.3 . .
C21 C22 H22B 109.3 . .
H22A C22 H22B 107.9 . .
N4 C23 C22 174.2(7) . .
N6 C24 C25 109.7(6) . 2_556
N6 C24 H24A 109.7 . .
C25 C24 H24A 109.7 2_556 .
N6 C24 H24B 109.7 . .
C25 C24 H24B 109.7 2_556 .
H24A C24 H24B 108.2 . .
C24 C25 N5 110.6(6) 2_556 .
C24 C25 H25A 109.5 2_556 .
N5 C25 H25A 109.5 . .
C24 C25 H25B 109.5 2_556 .
N5 C25 H25B 109.5 . .
H25A C25 H25B 108.1 . .
N7 C26 N6 113.6(8) . .
N7 C26 H26A 108.8 . .
N6 C26 H26A 108.8 . .
N7 C26 H26B 108.8 . .
N6 C26 H26B 108.8 . .
H26A C26 H26B 107.7 . .
N7 C27 N5 112.4(7) . .
N7 C27 H27A 109.1 . .
N5 C27 H27A 109.1 . .
N7 C27 H27B 109.1 . .
N5 C27 H27B 109.1 . .
H27A C27 H27B 107.9 . .
N7 C28 C29 114.5(10) . .
N7 C28 H28A 108.6 . .
C29 C28 H28A 108.6 . .
N7 C28 H28B 108.6 . .
C29 C28 H28B 108.6 . .
H28A C28 H28B 107.6 . .
C28 C29 C30 118.9(11) . .
C28 C29 H29A 107.6 . .
C30 C29 H29A 107.6 . .
C28 C29 H29B 107.6 . .
C30 C29 H29B 107.6 . .
H29A C29 H29B 107.0 . .
N8 C30 C29 175.7(13) . .
N10 C31 C32 108.7(5) . 2_655
N10 C31 H31A 109.9 . .
C32 C31 H31A 109.9 2_655 .
N10 C31 H31B 109.9 . .
C32 C31 H31B 109.9 2_655 .
H31A C31 H31B 108.3 . .
N9 C32 C31 107.8(5) . 2_655
N9 C32 H32A 110.1 . .
C31 C32 H32A 110.1 2_655 .
N9 C32 H32B 110.1 . .
C31 C32 H32B 110.1 2_655 .
H32A C32 H32B 108.5 . .
N11 C33 N10 114.6(5) . .
N11 C33 H33A 108.6 . .
N10 C33 H33A 108.6 . .
N11 C33 H33B 108.6 . .
N10 C33 H33B 108.6 . .
H33A C33 H33B 107.6 . .
N11 C34 N9 112.7(5) . .
N11 C34 H34A 109.0 . .
N9 C34 H34A 109.0 . .
N11 C34 H34B 109.0 . .
N9 C34 H34B 109.0 . .
H34A C34 H34B 107.8 . .
N11 C35 C36 113.2(7) . .
N11 C35 H35A 108.9 . .
C36 C35 H35A 108.9 . .
N11 C35 H35B 108.9 . .
C36 C35 H35B 108.9 . .
H35A C35 H35B 107.7 . .
C37 C36 C35 112.1(7) . .
C37 C36 H36A 109.2 . .
C35 C36 H36A 109.2 . .
C37 C36 H36B 109.2 . .
C35 C36 H36B 109.2 . .
H36A C36 H36B 107.9 . .
N12 C37 C36 176.2(10) . .
N14 C38 C39 108.2(6) . 2_566
N14 C38 H38A 110.1 . .
C39 C38 H38A 110.1 2_566 .
N14 C38 H38B 110.1 . .
C39 C38 H38B 110.1 2_566 .
H38A C38 H38B 108.4 . .
N13 C39 C38 107.7(6) . 2_566
N13 C39 H39A 110.2 . .
C38 C39 H39A 110.2 2_566 .
N13 C39 H39B 110.2 . .
C38 C39 H39B 110.2 2_566 .
H39A C39 H39B 108.5 . .
N15 C40 N14 112.8(5) . .
N15 C40 H40A 109.0 . .
N14 C40 H40A 109.0 . .
N15 C40 H40B 109.0 . .
N14 C40 H40B 109.0 . .
H40A C40 H40B 107.8 . .
N15 C41 N13 114.8(5) . .
N15 C41 H41A 108.6 . .
N13 C41 H41A 108.6 . .
N15 C41 H41B 108.6 . .
N13 C41 H41B 108.6 . .
H41A C41 H41B 107.5 . .
N15 C42 C43 111.8(6) . .
N15 C42 H42A 109.3 . .
C43 C42 H42A 109.3 . .
N15 C42 H42B 109.3 . .
C43 C42 H42B 109.3 . .
H42A C42 H42B 107.9 . .
C44 C43 C42 111.5(7) . .
C44 C43 H43A 109.3 . .
C42 C43 H43A 109.3 . .
C44 C43 H43B 109.3 . .
C42 C43 H43B 109.3 . .
H43A C43 H43B 108.0 . .
N16 C44 C43 177.2(10) . .
loop_
_geom_bond_atom_site_label_1
_geom_bond_atom_site_label_2
_geom_bond_distance
_geom_bond_site_symmetry_2
Ni1 N1 2.043(4) .
Ni1 N1 2.043(4) 2_565
Ni1 N2 2.043(5) .
Ni1 N2 2.043(5) 2_565
Ni1 O2 2.180(4) 2_565
Ni1 O2 2.180(4) .
Ni2 N6 2.055(5) 2_556
Ni2 N6 2.055(5) .
Ni2 N5 2.072(6) .
Ni2 N5 2.072(6) 2_556
Ni2 O4 2.129(4) .
Ni2 O4 2.129(4) 2_556
Ni3 N10 2.045(5) .
Ni3 N10 2.045(5) 2_655
Ni3 N9 2.055(5) .
Ni3 N9 2.055(5) 2_655
Ni3 O6 2.152(4) 2_655
Ni3 O6 2.152(4) .
Ni4 N13 2.019(5) .
Ni4 N13 2.019(5) 2_566
Ni4 N14 2.062(6) .
Ni4 N14 2.062(6) 2_566
Ni4 O8 2.201(4) .
Ni4 O8 2.201(4) 2_566
O1 C1 1.244(7) .
O2 C1 1.268(7) .
O3 C8 1.231(7) .
O4 C8 1.288(7) .
O5 C9 1.257(8) .
O6 C9 1.257(8) .
O7 C16 1.237(7) .
O8 C16 1.278(7) .
N1 C18 1.446(7) .
N1 C19 1.491(8) .
N1 H1 1.0000 .
N2 C20 1.477(7) .
N2 C17 1.486(7) .
N2 H2 1.0000 .
N3 C17 1.451(7) .
N3 C18 1.459(8) .
N3 C21 1.473(8) .
N4 C23 1.134(8) .
N5 C27 1.492(11) .
N5 C25 1.499(10) .
N5 H5 1.0000 .
N6 C24 1.459(10) .
N6 C26 1.480(11) .
N6 H6 1.0000 .
N7 C26 1.400(12) .
N7 C27 1.403(12) .
N7 C28 1.406(13) .
N8 C30 1.141(12) .
N9 C34 1.478(7) .
N9 C32 1.483(9) .
N9 H9 1.0000 .
N10 C33 1.450(8) .
N10 C31 1.484(8) .
N10 H10 1.0000 .
N11 C33 1.425(9) .
N11 C35 1.443(10) .
N11 C34 1.458(9) .
N12 C37 1.159(10) .
N13 C41 1.462(7) .
N13 C39 1.484(9) .
N13 H13 1.0000 .
N14 C38 1.467(9) .
N14 C40 1.502(7) .
N14 H14 1.0000 .
N15 C40 1.438(9) .
N15 C41 1.461(9) .
N15 C42 1.468(9) .
N16 C44 1.148(9) .
C1 C2 1.515(8) .
C2 C7 1.392(8) .
C2 C3 1.396(8) .
C3 C4 1.397(8) .
C3 H3 0.9500 .
C4 C5 1.392(9) .
C4 H4 0.9500 .
C5 C6 1.401(8) .
C5 C8 1.506(8) .
C6 C7 1.395(8) .
C6 C12 1.504(9) .
C7 H7 0.9500 .
C9 C10 1.515(9) .
C10 C15 1.366(9) .
C10 C11 1.393(9) .
C11 C12 1.401(8) .
C11 H11 0.9500 .
C12 C13 1.414(9) .
C13 C14 1.377(9) .
C13 C16 1.516(9) .
C14 C15 1.391(9) .
C14 H14A 0.9500 .
C15 H15 0.9500 .
C17 H17A 0.9900 .
C17 H17B 0.9900 .
C18 H18A 0.9900 .
C18 H18B 0.9900 .
C19 C20 1.522(8) 2_565
C19 H19A 0.9900 .
C19 H19B 0.9900 .
C20 H20A 0.9900 .
C20 H20B 0.9900 .
C21 C22 1.564(8) .
C21 H21A 0.9900 .
C21 H21B 0.9900 .
C22 C23 1.461(10) .
C22 H22A 0.9900 .
C22 H22B 0.9900 .
C24 C25 1.486(12) 2_556
C24 H24A 0.9900 .
C24 H24B 0.9900 .
C25 H25A 0.9900 .
C25 H25B 0.9900 .
C26 H26A 0.9900 .
C26 H26B 0.9900 .
C27 H27A 0.9900 .
C27 H27B 0.9900 .
C28 C29 1.441(15) .
C28 H28A 0.9900 .
C28 H28B 0.9900 .
C29 C30 1.442(14) .
C29 H29A 0.9900 .
C29 H29B 0.9900 .
C31 C32 1.501(9) 2_655
C31 H31A 0.9900 .
C31 H31B 0.9900 .
C32 H32A 0.9900 .
C32 H32B 0.9900 .
C33 H33A 0.9900 .
C33 H33B 0.9900 .
C34 H34A 0.9900 .
C34 H34B 0.9900 .
C35 C36 1.545(10) .
C35 H35A 0.9900 .
C35 H35B 0.9900 .
C36 C37 1.482(11) .
C36 H36A 0.9900 .
C36 H36B 0.9900 .
C38 C39 1.521(8) 2_566
C38 H38A 0.9900 .
C38 H38B 0.9900 .
C39 H39A 0.9900 .
C39 H39B 0.9900 .
C40 H40A 0.9900 .
C40 H40B 0.9900 .
C41 H41A 0.9900 .
C41 H41B 0.9900 .
C42 C43 1.525(10) .
C42 H42A 0.9900 .
C42 H42B 0.9900 .
C43 C44 1.446(10) .
C43 H43A 0.9900 .
C43 H43B 0.9900 .
loop_
_geom_hbond_atom_site_label_D
_geom_hbond_atom_site_label_H
_geom_hbond_atom_site_label_A
_geom_hbond_distance_DH
_geom_hbond_distance_HA
_geom_hbond_distance_DA
_geom_hbond_angle_DHA
_geom_hbond_site_symmetry_A
_geom_hbond_publ_flag
N1 H1 O1 1.00 1.93 2.864(6) 154.8 2_565 yes
N6 H6 O3 1.00 2.20 3.050(7) 141.8 . yes
N9 H9 N4 1.00 2.13 3.115(9) 167.7 . yes
N10 H10 O5 1.00 1.89 2.813(7) 152.2 . yes
N13 H13 O7 1.00 1.91 2.833(7) 152.1 2_566 yes
N14 H14 O3 1.00 2.53 3.502(7) 165.3 2_566 yes
loop_
_geom_torsion_atom_site_label_1
_geom_torsion_atom_site_label_2
_geom_torsion_atom_site_label_3
_geom_torsion_atom_site_label_4
_geom_torsion
_geom_torsion_site_symmetry_4
Ni1 O2 C1 O1 19.1(11) .
Ni1 O2 C1 C2 -156.1(4) .
O1 C1 C2 C7 -167.7(6) .
O2 C1 C2 C7 7.9(9) .
O1 C1 C2 C3 7.7(10) .
O2 C1 C2 C3 -176.6(6) .
C7 C2 C3 C4 -2.2(9) .
C1 C2 C3 C4 -177.8(6) .
C2 C3 C4 C5 0.9(10) .
C3 C4 C5 C6 1.1(10) .
C3 C4 C5 C8 -177.4(6) .
C4 C5 C6 C7 -1.7(9) .
C8 C5 C6 C7 176.8(6) .
C4 C5 C6 C12 -176.9(6) .
C8 C5 C6 C12 1.5(10) .
C3 C2 C7 C6 1.7(9) .
C1 C2 C7 C6 177.2(6) .
C5 C6 C7 C2 0.3(10) .
C12 C6 C7 C2 175.7(6) .
Ni2 O4 C8 O3 13.7(12) .
Ni2 O4 C8 C5 -161.8(4) .
C4 C5 C8 O3 -57.2(10) .
C6 C5 C8 O3 124.3(7) .
C4 C5 C8 O4 118.5(7) .
C6 C5 C8 O4 -59.9(9) .
Ni3 O6 C9 O5 -14.8(11) .
Ni3 O6 C9 C10 163.8(4) .
O5 C9 C10 C15 9.2(10) .
O6 C9 C10 C15 -169.6(6) .
O5 C9 C10 C11 -171.8(6) .
O6 C9 C10 C11 9.5(9) .
C15 C10 C11 C12 -1.2(9) .
C9 C10 C11 C12 179.7(5) .
C10 C11 C12 C13 2.2(9) .
C10 C11 C12 C6 -176.6(5) .
C7 C6 C12 C11 -60.2(8) .
C5 C6 C12 C11 115.1(6) .
C7 C6 C12 C13 121.1(7) .
C5 C6 C12 C13 -63.7(9) .
C11 C12 C13 C14 -2.6(8) .
C6 C12 C13 C14 176.1(6) .
C11 C12 C13 C16 176.3(6) .
C6 C12 C13 C16 -5.0(9) .
C12 C13 C14 C15 2.1(10) .
C16 C13 C14 C15 -176.9(6) .
C11 C10 C15 C14 0.6(9) .
C9 C10 C15 C14 179.7(6) .
C13 C14 C15 C10 -1.1(10) .
Ni4 O8 C16 O7 4.0(11) .
Ni4 O8 C16 C13 -172.7(4) .
C14 C13 C16 O7 -37.5(9) .
C12 C13 C16 O7 143.6(7) .
C14 C13 C16 O8 139.4(7) .
C12 C13 C16 O8 -39.5(9) .
C18 N3 C17 N2 -77.9(6) .
C21 N3 C17 N2 148.7(5) .
C20 N2 C17 N3 -179.6(5) .
Ni1 N2 C17 N3 62.2(6) .
C19 N1 C18 N3 -176.2(4) .
Ni1 N1 C18 N3 -54.3(6) .
C17 N3 C18 N1 71.8(6) .
C21 N3 C18 N1 -156.0(5) .
C18 N1 C19 C20 172.6(5) 2_565
Ni1 N1 C19 C20 42.4(5) 2_565
C17 N2 C20 C19 -167.1(5) 2_565
Ni1 N2 C20 C19 -43.1(5) 2_565
C17 N3 C21 C22 68.2(7) .
C18 N3 C21 C22 -65.3(6) .
N3 C21 C22 C23 78.3(7) .
C26 N6 C24 C25 -164.9(7) 2_556
Ni2 N6 C24 C25 -41.3(6) 2_556
C27 N5 C25 C24 163.9(7) 2_556
Ni2 N5 C25 C24 38.3(7) 2_556
C27 N7 C26 N6 -71.4(11) .
C28 N7 C26 N6 79.4(11) .
C24 N6 C26 N7 175.6(7) .
Ni2 N6 C26 N7 55.8(9) .
C26 N7 C27 N5 70.0(11) .
C28 N7 C27 N5 -81.5(11) .
C25 N5 C27 N7 -175.1(7) .
Ni2 N5 C27 N7 -54.2(9) .
C26 N7 C28 C29 113.5(12) .
C27 N7 C28 C29 -93.8(12) .
N7 C28 C29 C30 -176.0(10) .
C33 N10 C31 C32 -169.0(6) 2_655
Ni3 N10 C31 C32 -42.0(6) 2_655
C34 N9 C32 C31 164.9(5) 2_655
Ni3 N9 C32 C31 42.3(6) 2_655
C35 N11 C33 N10 66.3(8) .
C34 N11 C33 N10 -70.4(8) .
C31 N10 C33 N11 176.9(6) .
Ni3 N10 C33 N11 54.6(8) .
C33 N11 C34 N9 74.0(8) .
C35 N11 C34 N9 -62.8(8) .
C32 N9 C34 N11 -179.2(6) .
Ni3 N9 C34 N11 -59.9(7) .
C33 N11 C35 C36 165.9(6) .
C34 N11 C35 C36 -56.8(8) .
N11 C35 C36 C37 -37.9(9) .
C40 N14 C38 C39 -165.6(6) 2_566
Ni4 N14 C38 C39 -41.3(7) 2_566
C41 N13 C39 C38 166.3(5) 2_566
Ni4 N13 C39 C38 40.6(6) 2_566
C41 N15 C40 N14 -69.4(8) .
C42 N15 C40 N14 69.4(7) .
C38 N14 C40 N15 177.1(6) .
Ni4 N14 C40 N15 56.4(7) .
C40 N15 C41 N13 70.0(7) .
C42 N15 C41 N13 -70.1(7) .
C39 N13 C41 N15 -178.8(6) .
Ni4 N13 C41 N15 -56.3(7) .
C40 N15 C42 C43 64.1(7) .
C41 N15 C42 C43 -155.4(6) .
N15 C42 C43 C44 61.9(9) .
