#------------------------------------------------------------------------------
#$Date: 2019-05-21 03:39:58 +0300 (Tue, 21 May 2019) $
#$Revision: 215335 $
#$URL: file:///home/coder/svn-repositories/cod/cif/7/12/35/7123504.cif $
#------------------------------------------------------------------------------
#
# This file is available in the Crystallography Open Database (COD),
# http://www.crystallography.net/
#
# All data on this site have been placed in the public domain by the
# contributors.
#
data_7123504
loop_
_publ_author_name
'Li, Bei-Bei'
'Wang, Wenjing'
'Hong, Zixiao'
'M. El-Sayed, El-Sayed'
'Yuan, Daqiang'
_publ_section_title
;
 Ratiometric fluorescent detecting trace water in organic solvent based on
 bimetallic lanthanide metal-organic frameworks
;
_journal_name_full               'Chemical Communications'
_journal_paper_doi               10.1039/C9CC02324K
_journal_year                    2019
_chemical_formula_moiety
'C88 H152 N7 O86 P6 Tb5, (C4 H9 N O), 43(H2 O)'
_chemical_formula_sum            'C88 H152 N7 O86 P6 Tb5'
_chemical_formula_weight         3664.58
_space_group_crystal_system      monoclinic
_space_group_IT_number           15
_space_group_name_Hall           '-C 2yc'
_space_group_name_H-M_alt        'C 1 2/c 1'
_symmetry_space_group_name_Hall  '-C 2yc'
_symmetry_space_group_name_H-M   'C 1 2/c 1'
_atom_sites_solution_hydrogens   geom
_audit_creation_method           SHELXL-2018/3
_audit_update_record
;
2019-05-17 deposited with the CCDC.    2019-05-20 downloaded from the CCDC.
;
_cell_angle_alpha                90
_cell_angle_beta                 107.899(4)
_cell_angle_gamma                90
_cell_formula_units_Z            4
_cell_length_a                   34.1382(10)
_cell_length_b                   18.2040(11)
_cell_length_c                   29.7178(13)
_cell_measurement_reflns_used    7483
_cell_measurement_temperature    150.0(1)
_cell_measurement_theta_max      70.3640
_cell_measurement_theta_min      3.3580
_cell_volume                     17574.3(15)
_computing_cell_refinement       'CrysAlisPro 1.171.39.46e (Rigaku OD, 2018)'
_computing_data_collection       'CrysAlisPro 1.171.39.46e (Rigaku OD, 2018)'
_computing_data_reduction        'CrysAlisPro 1.171.39.46e (Rigaku OD, 2018)'
_computing_structure_refinement  'SHELXL-2018/3 (Sheldrick, 2018)'
_computing_structure_solution    'SHELXT 2018/2 (Sheldrick, 2018)'
_diffrn_ambient_temperature      150.0(1)
_diffrn_detector_area_resol_mean 10.5594
_diffrn_measured_fraction_theta_full 0.994
_diffrn_measured_fraction_theta_max 0.961
_diffrn_measurement_device_type  'SuperNova, Dual, Cu at home/near, Atlas'
_diffrn_measurement_method       '\w scans'
_diffrn_radiation_type           CuK\a
_diffrn_radiation_wavelength     1.54184
_diffrn_reflns_av_R_equivalents  0.0693
_diffrn_reflns_av_unetI/netI     0.1025
_diffrn_reflns_Laue_measured_fraction_full 0.994
_diffrn_reflns_Laue_measured_fraction_max 0.961
_diffrn_reflns_limit_h_max       39
_diffrn_reflns_limit_h_min       -42
_diffrn_reflns_limit_k_max       22
_diffrn_reflns_limit_k_min       -21
_diffrn_reflns_limit_l_max       36
_diffrn_reflns_limit_l_min       -33
_diffrn_reflns_number            34242
_diffrn_reflns_point_group_measured_fraction_full 0.994
_diffrn_reflns_point_group_measured_fraction_max 0.961
_diffrn_reflns_theta_full        67.684
_diffrn_reflns_theta_max         73.690
_diffrn_reflns_theta_min         3.456
_diffrn_source                   'micro-focus sealed X-ray tube'
_exptl_absorpt_coefficient_mu    10.974
_exptl_absorpt_correction_T_max  1.00000
_exptl_absorpt_correction_T_min  0.11312
_exptl_absorpt_correction_type   multi-scan
_exptl_absorpt_process_details
;
CrysAlisPro 1.171.39.46e (Rigaku Oxford Diffraction, 2018)
Empirical absorption correction using spherical harmonics,
 implemented in SCALE3 ABSPACK scaling algorithm.
;
_exptl_crystal_colour            colourless
_exptl_crystal_density_diffrn    1.385
_exptl_crystal_description       block
_exptl_crystal_F_000             7328
_exptl_crystal_size_max          0.300
_exptl_crystal_size_mid          0.280
_exptl_crystal_size_min          0.250
_refine_diff_density_max         1.173
_refine_diff_density_min         -0.846
_refine_diff_density_rms         0.103
_refine_ls_extinction_method     none
_refine_ls_goodness_of_fit_ref   0.966
_refine_ls_hydrogen_treatment    constr
_refine_ls_matrix_type           full
_refine_ls_number_parameters     713
_refine_ls_number_reflns         17064
_refine_ls_number_restraints     789
_refine_ls_restrained_S_all      0.962
_refine_ls_R_factor_all          0.1504
_refine_ls_R_factor_gt           0.0797
_refine_ls_shift/su_max          0.001
_refine_ls_shift/su_mean         0.000
_refine_ls_structure_factor_coef Fsqd
_refine_ls_weighting_details
'w=1/[\s^2^(Fo^2^)+(0.1319P)^2^] where P=(Fo^2^+2Fc^2^)/3'
_refine_ls_weighting_scheme      calc
_refine_ls_wR_factor_gt          0.2130
_refine_ls_wR_factor_ref         0.2558
_reflns_Friedel_coverage         0.000
_reflns_number_gt                7394
_reflns_number_total             17064
_reflns_threshold_expression     'I > 2\s(I)'
_cod_data_source_file            c9cc02324k2.cif
_cod_data_source_block           Tb
_cod_database_code               7123504
_shelx_shelxl_version_number     2018/3
_shelx_space_group_comment
;
The symmetry employed for this shelxl refinement is uniquely defined
by the following loop, which should always be used as a source of
symmetry information in preference to the above space-group names.
They are only intended as comments.
;
_shelx_estimated_absorpt_t_min   0.137
_shelx_estimated_absorpt_t_max   0.170
_shelx_res_file
;
TITL G:\Tb-2600\struct\tmp\Tb-2600_a.res in C2/c
    Tb.res
    created by SHELXL-2018/3 at 19:54:28 on 17-May-2019
CELL 1.54184 34.1382 18.2040 29.7178 90.000 107.899 90.000
ZERR 4.0000 0.0010 0.0011 0.0013 0.000 0.004 0.000
LATT 7
SYMM -X, Y, 0.5-Z
SFAC C H N O P TB
UNIT 352 608 28 344 24 20
LIST 4 ! automatically inserted. Change 6 to 4 for CHECKCIF!!
ACTA
BOND
FREE Tb1 C14A
DFIX 1.45 0.02 C11 C14A
DFIX 1.45 0.02 C11 C14B
DFIX 1.25 0.02 O10A C14A
DFIX 1.25 0.02 O9A C14A
DFIX 1.25 0.02 O10B C14B
DFIX 1.25 0.02 O9B C14B
FMAP 2 1 53
PLAN 10 0 0
L.S. 10 0  270
SIZE 0.30 0.28 0.25
TEMP -123
SADI 0.02 C1 C2 C2 C3 C3 C4 C4 C5 C5 C6 C6 C1
SADI 0.04 C1 C3 C2 C4 C3 C5 C4 C6 C5 C1 C6 C2
FLAT C1 > C6
SIMU C1 > C6
RIGU C1 > C6
SADI 0.02 C8 C9A C9A C10A C10A C11 C11 C12A C12A C13A C13A C8
SADI 0.02 C8 C9B C9B C10B C10B C11 C11 C12B C12B C13B C13B C8
SADI 0.04 C8 C10A C9A C11 C10A C12A C11 C13A C12A C8 C13A C9A
SADI 0.04 C8 C10B C9B C11 C10B C12B C11 C13B C12B C8 C13B C9B
FLAT C8 C9A C10A C11 C12A C13A
FLAT C8 C9B C10B C11 C12B C13B
SIMU C8 C9A C10A C11 C12A C13A
SIMU C8 C9B C10B C11 C12B C13B
RIGU C8 C9A C10A C11 C12A C13A
RIGU C8 C9B C10B C11 C12B C13B
SADI 0.02 C15 C16 C16 C17 C17 C18 C18 C19 C19 C20 C20 C15
SADI 0.04 C15 C17 C16 C18 C17 C19 C18 C20 C19 C15 C20 C16
FLAT C15 > C20
SIMU C15 > C20
RIGU C15 > C20
SADI 0.02 C22 C23 C23 C24 C24 C25 C25 C26 C26 C27 C27 C22
SADI 0.04 C22 C24 C23 C25 C24 C26 C25 C27 C26 C22 C27 C23
FLAT C22 > C27
SIMU C22 > C27
RIGU C22 > C27
SADI 0.02 C29 C30 C30 C31 C31 C32 C32 C33 C33 C34 C34 C29
SADI 0.04 C29 C31 C30 C32 C31 C33 C32 C34 C33 C29 C34 C30
FLAT C29 > C34
SIMU C29 > C34
RIGU C29 > C34
SADI 0.02 C36 C37 C37 C38 C38 C39 C39 C40 C40 C41 C41 C36
SADI 0.04 C36 C38 C37 C39 C38 C40 C39 C41 C40 C36 C41 C37
FLAT C36 > C41
SIMU C36 > C41
RIGU C36 > C41
ISOR 0.01 C14A C14B
ISOR 0.01 O12 O13 O9B O22 O19A O19B
EADP O11 C21
EADP O23 O20
OMIT    -4   2   1
OMIT    -4   2   5
OMIT     5   1   3
OMIT    -5   5   1
OMIT    -4   2   4
OMIT    -6   4   4
OMIT     0   4   1
OMIT    -2   4   3
OMIT    -5   3   5
OMIT     1   1   4
OMIT     1   3   2
OMIT     3   3   0
OMIT     6   0   2
OMIT    31   1  11
OMIT     2   2   1
OMIT    -3   3   3
OMIT    -5   3   2
OMIT    29   1  13
OMIT    -5   1   6
OMIT    30   0  12
OMIT    26   2  15
OMIT     6   2   0
OMIT    26   0  14
OMIT     3   1   3
OMIT     1   1   1
ABIN
SIZE 0.30 0.28 0.25
TEMP -173
WGHT    0.131900
FVAR       0.09787
TB1   6    0.123066    0.683143    0.424852    11.00000    0.05878    0.09343 =
         0.07072    0.00513    0.02307    0.01931
TB2   6    0.042326    0.613272    0.317837    11.00000    0.04906    0.10745 =
         0.10330   -0.00350    0.02202    0.01109
TB3   6    0.250000    0.750000    0.500000    10.50000    0.06381    0.15631 =
         0.05735   -0.01299    0.01030    0.03840
P1    5    0.302596    0.511085    0.278878    11.00000    0.05717    0.14039 =
         0.11466   -0.03307    0.02637    0.02388
P2    5    0.382048    0.494011    0.335355    11.00000    0.05449    0.11074 =
         0.09098   -0.01356    0.02346    0.02002
P3    5    0.320759    0.401117    0.343634    11.00000    0.08328    0.10340 =
         0.18774   -0.02297    0.07666    0.00821
O1    4    0.278963    0.583409    0.288085    11.00000    0.05686    0.16579 =
         0.12616   -0.03053    0.02816    0.03996
O2    4    0.408664    0.555374    0.370844    11.00000    0.05935    0.11237 =
         0.10649   -0.01669    0.02936    0.02334
O3    4    0.301303    0.390268    0.386410    11.00000    0.12176    0.09828 =
         0.25008    0.02498    0.12736    0.04823
O4    4    0.283802    0.508383    0.222990    11.00000    0.07322    0.21207 =
         0.10278   -0.04182    0.00698    0.05149
O5    4    0.416795    0.465289    0.314868    11.00000    0.05776    0.12864 =
         0.08935   -0.01187    0.02789    0.03133
O6    4    0.321450    0.315087    0.332813    11.00000    0.10861    0.10486 =
         0.33325   -0.04053    0.14616    0.00772
O7    4    0.095380    0.553976    0.294464    11.00000    0.05385    0.13466 =
         0.12224   -0.03434    0.01467    0.00746
O8    4    0.118886    0.640735    0.346511    11.00000    0.06297    0.10189 =
         0.10189   -0.00636    0.03483    0.02548
O11   4    0.292034    0.746516    0.450634    11.00000    0.08811    0.16432 =
         0.13930   -0.05044    0.06094    0.00781
O12   4    0.341726    0.749082    0.508733    11.00000    0.22482    0.16651 =
         0.11768   -0.03347    0.03422    0.06360
O13   4    0.293742    0.273702    0.073307    11.00000    0.18160    0.20250 =
         0.16114   -0.06271    0.03983   -0.02232
O14   4    0.357787    0.286270    0.108150    11.00000    0.11416    0.14222 =
         0.08183   -0.02157    0.01038    0.04025
O15   4    0.451245    0.185267    0.241012    11.00000    0.06950    0.11142 =
         0.13626   -0.02705    0.03960   -0.00436
O16   4    0.479098    0.154529    0.316692    11.00000    0.04404    0.12546 =
         0.14262   -0.00147    0.01971    0.01591
O17   4    0.557524    0.227408    0.355685    11.00000    0.06520    0.12100 =
         0.17663   -0.06015    0.03387    0.01094
O18   4    0.569610    0.271196    0.429485    11.00000    0.09872    0.18172 =
         0.11988   -0.00939    0.02707    0.07232
O20   4    0.069920    0.592856    0.401105    11.00000    0.07984    0.18014 =
         0.12123    0.00476    0.02564   -0.01516
AFIX  43
H21   2    0.061770    0.557590    0.420041    11.00000   -1.20000
AFIX   0
O22   4    0.016472    0.493837    0.316113    10.50000    0.11089    0.06762 =
         0.23200    0.02788    0.08269    0.00988
O23   4    0.000000    0.543446    0.250000    10.50000    0.07984    0.18014 =
         0.12123    0.00476    0.02564   -0.01516
AFIX  43
H22   2    0.000000    0.491259    0.250000    10.50000   -1.20000
AFIX   0
N1    3    0.289509    0.440441    0.301377    11.00000    0.06048    0.10316 =
         0.16073   -0.02664    0.04951    0.00774
N2    3    0.348974    0.532663    0.292900    11.00000    0.05060    0.11990 =
         0.09905   -0.01567    0.02232    0.02427
N3    3    0.366395    0.433259    0.363595    11.00000    0.07476    0.08107 =
         0.12031   -0.00188    0.04262    0.01367
C1    1    0.238769    0.582749    0.292546    11.00000    0.05528    0.13505 =
         0.09360   -0.03020    0.01673    0.02240
C2    1    0.209694    0.531830    0.271755    11.00000    0.06892    0.18678 =
         0.15801   -0.08992    0.04468   -0.00321
AFIX  43
H2    2    0.215228    0.494063    0.252493    11.00000   -1.20000
AFIX   0
C3    1    0.171541    0.536661    0.279525    11.00000    0.05601    0.18173 =
         0.13470   -0.08265    0.01850    0.00796
AFIX  43
H3    2    0.150348    0.502805    0.264620    11.00000   -1.20000
AFIX   0
C4    1    0.164441    0.590537    0.308842    11.00000    0.04031    0.12458 =
         0.05657   -0.01201    0.00064    0.03359
C5    1    0.194321    0.640653    0.328392    11.00000    0.06396    0.09870 =
         0.12094   -0.02594    0.03378    0.02797
AFIX  43
H5    2    0.188923    0.678247    0.347859    11.00000   -1.20000
AFIX   0
C6    1    0.232201    0.638754    0.320915    11.00000    0.07221    0.12656 =
         0.09676   -0.01938    0.02696    0.02109
AFIX  43
H6    2    0.252842    0.674221    0.334591    11.00000   -1.20000
AFIX   0
C7    1    0.123636    0.593430    0.317778    11.00000    0.05740    0.10543 =
         0.08865   -0.01600    0.01734    0.02260
C8    1    0.277926    0.441535    0.399886    11.00000    0.07623    0.09690 =
         0.13177    0.00616    0.04891    0.00669
C11   1    0.230252    0.539712    0.431220    11.00000    0.10151    0.08746 =
         0.09483    0.01227    0.05374    0.02179
C15   1    0.389747    0.603293    0.394319    11.00000    0.05050    0.11719 =
         0.07554   -0.00614    0.01312    0.01685
C16   1    0.360154    0.651664    0.370308    11.00000    0.09537    0.13561 =
         0.07629   -0.00106    0.02212    0.04535
AFIX  43
H16   2    0.353243    0.656039    0.336922    11.00000   -1.20000
AFIX   0
C17   1    0.340048    0.694898    0.395596    11.00000    0.06711    0.15196 =
         0.07718   -0.00325    0.01312    0.03770
AFIX  43
H17   2    0.318557    0.727344    0.379349    11.00000   -1.20000
AFIX   0
C18   1    0.351688    0.689864    0.443825    11.00000    0.05161    0.09546 =
         0.06675   -0.00847    0.01774   -0.00139
C19   1    0.383054    0.644958    0.466954    11.00000    0.09889    0.14422 =
         0.06204   -0.00485    0.01266    0.03378
AFIX  43
H19   2    0.392212    0.644725    0.500547    11.00000   -1.20000
AFIX   0
C20   1    0.401991    0.599532    0.442748    11.00000    0.07438    0.11779 =
         0.07640   -0.00228   -0.00127    0.02618
AFIX  43
H20   2    0.423017    0.566430    0.459250    11.00000   -1.20000
AFIX   0
C21   1    0.327044    0.731197    0.467660    11.00000    0.08811    0.16432 =
         0.13930   -0.05044    0.06094    0.00781
C22   1    0.449269    0.418058    0.334071    11.00000    0.04065    0.09637 =
         0.08573   -0.01387    0.01570    0.01082
C23   1    0.465825    0.408435    0.382249    11.00000    0.06942    0.11761 =
         0.08408   -0.01806    0.02747    0.02850
AFIX  43
H23   2    0.454532    0.433014    0.403615    11.00000   -1.20000
AFIX   0
C24   1    0.499249    0.362134    0.398621    11.00000    0.07053    0.14734 =
         0.07986   -0.02755    0.00789    0.03455
AFIX  43
H24   2    0.511488    0.355977    0.431729    11.00000   -1.20000
AFIX   0
C25   1    0.515192    0.324735    0.367973    11.00000    0.04687    0.12263 =
         0.08702   -0.02639    0.01261    0.01602
C26   1    0.498724    0.337041    0.320085    11.00000    0.04238    0.10158 =
         0.08263   -0.02196    0.02607    0.00016
AFIX  43
H26   2    0.510198    0.313119    0.298645    11.00000   -1.20000
AFIX   0
C27   1    0.466130    0.383240    0.303304    11.00000    0.04139    0.09862 =
         0.08429   -0.01489    0.02131   -0.00103
AFIX  43
H27   2    0.454993    0.391462    0.270245    11.00000   -1.20000
AFIX   0
C28   1    0.549351    0.270524    0.386289    11.00000    0.05357    0.14016 =
         0.11646   -0.03694    0.01224    0.01978
C29   1    0.354718    0.282739    0.319607    11.00000    0.06669    0.08279 =
         0.20781   -0.03587    0.06292   -0.00817
C30   1    0.386177    0.252704    0.355072    11.00000    0.10396    0.12441 =
         0.18283   -0.00643    0.08109    0.00301
AFIX  43
H30   2    0.386424    0.254284    0.387111    11.00000   -1.20000
AFIX   0
C31   1    0.417550    0.219992    0.342153    11.00000    0.08590    0.09593 =
         0.16196    0.01011    0.05994    0.00751
AFIX  43
H31   2    0.440169    0.199165    0.365880    11.00000   -1.20000
AFIX   0
C32   1    0.416789    0.216879    0.295679    11.00000    0.04385    0.07498 =
         0.15192   -0.00743    0.04257   -0.00213
C33   1    0.384765    0.248306    0.261112    11.00000    0.05986    0.11150 =
         0.16327   -0.01875    0.03174    0.00905
AFIX  43
H33   2    0.384542    0.247071    0.229076    11.00000   -1.20000
AFIX   0
C34   1    0.352601    0.281998    0.272945    11.00000    0.06127    0.10834 =
         0.19214   -0.03148    0.02692    0.02116
AFIX  43
H34   2    0.330082    0.303606    0.249477    11.00000   -1.20000
AFIX   0
C35   1    0.452338    0.180968    0.285946    11.00000    0.03844    0.10762 =
         0.14066   -0.01994    0.02780   -0.01732
C36   1    0.295044    0.454969    0.195589    11.00000    0.06535    0.14433 =
         0.07098   -0.02891    0.00064    0.03357
C37   1    0.333848    0.447134    0.194122    11.00000    0.05238    0.19495 =
         0.12420   -0.08709    0.00081    0.00620
AFIX  43
H37   2    0.355144    0.477299    0.213410    11.00000   -1.20000
AFIX   0
C38   1    0.342729    0.396213    0.165145    11.00000    0.05764    0.16492 =
         0.09713   -0.05928   -0.00059    0.00655
AFIX  43
H38   2    0.370506    0.389482    0.165845    11.00000   -1.20000
AFIX   0
C39   1    0.312688    0.354712    0.135179    11.00000    0.07229    0.12328 =
         0.05736   -0.01081   -0.00228   -0.00733
C40   1    0.272955    0.363254    0.137746    11.00000    0.07761    0.20740 =
         0.12393   -0.06811    0.00996   -0.02423
AFIX  43
H40   2    0.251375    0.333918    0.118190    11.00000   -1.20000
AFIX   0
C41   1    0.264304    0.412997    0.167830    11.00000    0.06428    0.19657 =
         0.10896   -0.04635   -0.00108    0.00486
AFIX  43
H41   2    0.237011    0.418063    0.169247    11.00000   -1.20000
AFIX   0
C42   1    0.324118    0.304387    0.103096    11.00000    0.12243    0.10548 =
         0.05907   -0.02055    0.00264   -0.02092
PART 1
O19A  4    0.265920    0.608564    0.528639    10.50000    0.10298    0.19857 =
         0.07067   -0.04693    0.00872   -0.01768
O9A   4    0.156601    0.563846    0.431850    10.50000    0.06913    0.08288 =
         0.07479   -0.00416    0.02480    0.00950
O10A  4    0.199878    0.654899    0.442593    10.50000    0.03953    0.13882 =
         0.06753    0.00217   -0.00267    0.01886
C9A   1    0.287212    0.514621    0.405799    10.50000    0.10646    0.10570 =
         0.08379   -0.00606    0.05713   -0.00637
AFIX  43
H9A   2    0.311858    0.531677    0.400829    10.50000   -1.20000
AFIX   0
C10A  1    0.262380    0.564371    0.418624    10.50000    0.10447    0.09581 =
         0.04986   -0.00405    0.03569   -0.00588
AFIX  43
H10A  2    0.267874    0.615525    0.418577    10.50000   -1.20000
AFIX   0
C12A  1    0.217300    0.468778    0.421174    10.50000    0.05786    0.10706 =
         0.09497   -0.01471    0.02249    0.00703
AFIX  43
H12A  2    0.191025    0.453945    0.422591    10.50000   -1.20000
AFIX   0
C13A  1    0.242601    0.419318    0.409045    10.50000    0.09560    0.09823 =
         0.14834   -0.00324    0.07268    0.00154
AFIX  43
H13A  2    0.235610    0.368648    0.406916    10.50000   -1.20000
AFIX   0
C14A  1    0.193538    0.584369    0.436152    10.50000    0.11429    0.10309 =
         0.10113   -0.00091    0.03432   -0.00242
PART 2
O19B  4    0.109347    0.636100    0.491189    10.50000    0.11270    0.15157 =
         0.09239    0.07382    0.06746    0.07485
O9B   4    0.174667    0.596134    0.442042    10.50000    0.06360    0.08086 =
         0.09330    0.00632    0.02490    0.02153
O10B  4    0.234005    0.643248    0.484441    10.50000    0.13444    0.08902 =
         0.06642   -0.03292    0.00253    0.01235
C9B   1    0.296664    0.493570    0.430655    10.50000    0.05889    0.13011 =
         0.10893    0.00449    0.02488    0.00434
AFIX  43
H9B   2    0.325843    0.497037    0.441169    10.50000   -1.20000
AFIX   0
C10B  1    0.273489    0.541601    0.446794    10.50000    0.10379    0.10929 =
         0.10598    0.00529    0.04257    0.01011
AFIX  43
H10B  2    0.287015    0.577624    0.469356    10.50000   -1.20000
AFIX   0
C12B  1    0.212670    0.485208    0.401190    10.50000    0.07849    0.12299 =
         0.09108    0.00121    0.03071    0.02617
AFIX  43
H12B  2    0.183707    0.478499    0.392565    10.50000   -1.20000
AFIX   0
C13B  1    0.235607    0.439174    0.382776    10.50000    0.07571    0.11856 =
         0.11694   -0.02665    0.02999    0.00667
AFIX  43
H13B  2    0.222351    0.405741    0.358284    10.50000   -1.20000
AFIX   0
C14B  1    0.213917    0.597618    0.454890    10.50000    0.09725    0.10091 =
         0.09339    0.00103    0.03864    0.01380
PART 0
HKLF 4




REM  G:\Tb-2600\struct\tmp\Tb-2600_a.res in C2/c
REM wR2 = 0.2558, GooF = S = 0.966, Restrained GooF = 0.962 for all data
REM R1 = 0.0797 for 7394 Fo > 4sig(Fo) and 0.1504 for all 17064 data
REM 713 parameters refined using 789 restraints

END

WGHT      0.1319      0.0000

REM Highest difference peak  1.173,  deepest hole -0.846,  1-sigma level  0.103
Q1    1   0.0812  0.6051  0.4607  11.00000  0.05    1.17
Q2    1   0.0636  0.6211  0.3630  11.00000  0.05    0.92
Q3    1   0.3647  0.8031  0.5216  11.00000  0.05    0.85
Q4    1   0.2990  0.3209  0.0549  11.00000  0.05    0.83
Q5    1   0.0985  0.6823  0.3821  11.00000  0.05    0.78
Q6    1   0.2795  0.5526  0.5384  11.00000  0.05    0.75
Q7    1   0.1166  0.6611  0.4973  11.00000  0.05    0.74
Q8    1   0.1186  0.6347  0.5324  11.00000  0.05    0.72
Q9    1  -0.0003  0.4822  0.2238  11.00000  0.05    0.68
Q10   1   0.1375  0.6359  0.4210  11.00000  0.05    0.67
;
_shelx_res_checksum              6338
_shelx_fab_file
;
    4    0    0    -59.34      0.00
    6    0    0    -13.60      0.00
    8    0    0    -33.28      0.00
   10    0    0      1.78      0.00
   12    0    0     30.26      0.00
   14    0    0     -6.96      0.00
   16    0    0    -30.44      0.00
   18    0    0     28.45      0.00
   20    0    0      5.73      0.00
   22    0    0      0.30      0.00
   24    0    0      2.45      0.00
   26    0    0     -6.65      0.00
   28    0    0     -1.21      0.00
   30    0    0      0.89      0.00
   32    0    0     -6.53      0.00
   34    0    0     -5.76      0.00
   36    0    0      1.96      0.00
   38    0    0     -6.41      0.00
    3    1    0    144.59      0.00
    5    1    0     -5.01      0.00
    7    1    0    -11.20      0.00
    9    1    0     19.91      0.00
   11    1    0     -2.43      0.00
   13    1    0    -19.42      0.00
   15    1    0     17.89      0.00
   17    1    0     24.42      0.00
   19    1    0      2.23      0.00
   21    1    0     12.04      0.00
   23    1    0     -0.73      0.00
   25    1    0     -1.66      0.00
   27    1    0     -2.27      0.00
   29    1    0      0.50      0.00
   31    1    0      6.55      0.00
   33    1    0     -0.72      0.00
   35    1    0     -1.90      0.00
   37    1    0     -7.01      0.00
   39    1    0     -8.22      0.00
    0    2    0    -39.28      0.00
    2    2    0    145.28      0.00
    4    2    0   -111.70      0.00
    6    2    0    -46.87      0.00
    8    2    0      7.58      0.00
   10    2    0     14.69      0.00
   12    2    0     10.94      0.00
   14    2    0     -2.49      0.00
   16    2    0     -9.61      0.00
   18    2    0     -2.34      0.00
   20    2    0     -3.43      0.00
   22    2    0     -6.20      0.00
   24    2    0      0.58      0.00
   26    2    0     -2.04      0.00
   28    2    0     -1.03      0.00
   30    2    0     -1.52      0.00
   32    2    0      0.81      0.00
   34    2    0     -6.01      0.00
   36    2    0     14.20      0.00
   38    2    0      4.83      0.00
   40    2    0      9.42      0.00
    1    3    0     64.33      0.00
    3    3    0   -109.03      0.00
    5    3    0     79.16      0.00
    7    3    0     -2.76      0.00
    9    3    0    -31.17      0.00
   11    3    0    -14.04      0.00
   13    3    0     -3.49      0.00
   15    3    0      0.22      0.00
   17    3    0     12.19      0.00
   19    3    0      3.63      0.00
   21    3    0     -1.77      0.00
   23    3    0     -4.22      0.00
   25    3    0     -3.97      0.00
   27    3    0     -6.45      0.00
   29    3    0     -4.44      0.00
   31    3    0    -11.37      0.00
   33    3    0      0.67      0.00
   35    3    0      8.09      0.00
   37    3    0     -0.99      0.00
   39    3    0      8.63      0.00
    0    4    0      2.85      0.00
    2    4    0    -48.40      0.00
    4    4    0    111.91      0.00
    6    4    0    -95.05      0.00
    8    4    0    -53.90      0.00
   10    4    0    -12.63      0.00
   12    4    0     -5.47      0.00
   14    4    0     17.24      0.00
   16    4    0      6.04      0.00
   18    4    0      1.34      0.00
   20    4    0    -10.88      0.00
   22    4    0      0.99      0.00
   24    4    0     -0.29      0.00
   26    4    0      3.98      0.00
   28    4    0    -17.20      0.00
   30    4    0      7.49      0.00
   32    4    0      6.92      0.00
   34    4    0      6.27      0.00
   36    4    0      8.57      0.00
   38    4    0     -3.66      0.00
    1    5    0     12.87      0.00
    3    5    0    -14.24      0.00
    5    5    0    -33.95      0.00
    7    5    0     44.11      0.00
    9    5    0      5.99      0.00
   11    5    0      2.52      0.00
   13    5    0      6.14      0.00
   15    5    0      1.78      0.00
   17    5    0      1.13      0.00
   19    5    0     -3.84      0.00
   21    5    0     -0.95      0.00
   23    5    0     -7.21      0.00
   25    5    0     -0.57      0.00
   27    5    0     -3.91      0.00
   29    5    0      1.76      0.00
   31    5    0      5.10      0.00
   33    5    0    -12.87      0.00
   35    5    0     -6.61      0.00
   37    5    0     -9.83      0.00
   39    5    0     -4.09      0.00
    0    6    0     15.69      0.00
    2    6    0     27.65      0.00
    4    6    0     43.19      0.00
    6    6    0    -47.41      0.00
    8    6    0    -27.04      0.00
   10    6    0      0.89      0.00
   12    6    0      9.51      0.00
   14    6    0      2.82      0.00
   16    6    0     14.78      0.00
   18    6    0     -3.25      0.00
   20    6    0     -5.19      0.00
   22    6    0      5.23      0.00
   24    6    0     -0.81      0.00
   26    6    0      0.92      0.00
   28    6    0     10.01      0.00
   30    6    0     -2.59      0.00
   32    6    0     -0.60      0.00
   34    6    0     -0.81      0.00
   36    6    0      4.69      0.00
   38    6    0     -4.93      0.00
    1    7    0     -5.84      0.00
    3    7    0      2.37      0.00
    5    7    0     19.78      0.00
    7    7    0     21.12      0.00
    9    7    0      1.54      0.00
   11    7    0     -5.40      0.00
   13    7    0      3.95      0.00
   15    7    0      6.37      0.00
   17    7    0      3.98      0.00
   19    7    0      5.54      0.00
   21    7    0     -1.77      0.00
   23    7    0    -12.57      0.00
   25    7    0     -4.80      0.00
   27    7    0     -9.74      0.00
   29    7    0     -3.21      0.00
   31    7    0      4.75      0.00
   33    7    0      0.49      0.00
   35    7    0     -1.38      0.00
   37    7    0      7.58      0.00
    0    8    0     15.66      0.00
    2    8    0     -8.49      0.00
    4    8    0      7.44      0.00
    6    8    0    -14.90      0.00
    8    8    0      3.01      0.00
   10    8    0     10.41      0.00
   12    8    0      3.24      0.00
   14    8    0     10.85      0.00
   16    8    0      7.78      0.00
   18    8    0     -1.91      0.00
   20    8    0     -2.94      0.00
   22    8    0     -1.19      0.00
   24    8    0      7.84      0.00
   26    8    0     -1.31      0.00
   28    8    0      2.54      0.00
   30    8    0      5.43      0.00
   32    8    0     -7.47      0.00
   34    8    0     -1.53      0.00
   36    8    0     -1.09      0.00
    1    9    0     -1.02      0.00
    3    9    0      7.27      0.00
    5    9    0    -12.93      0.00
    7    9    0     -6.93      0.00
    9    9    0      8.53      0.00
   11    9    0      4.40      0.00
   13    9    0     -0.47      0.00
   15    9    0     -2.09      0.00
   17    9    0     -3.19      0.00
   19    9    0     -1.59      0.00
   21    9    0      3.64      0.00
   23    9    0     -4.62      0.00
   25    9    0     -4.97      0.00
   27    9    0     -2.78      0.00
   29    9    0     -0.51      0.00
   31    9    0      4.54      0.00
   33    9    0      6.02      0.00
   35    9    0      3.20      0.00
    0   10    0     -7.32      0.00
    2   10    0     -6.92      0.00
    4   10    0     12.99      0.00
    6   10    0      2.14      0.00
    8   10    0     -6.34      0.00
   10   10    0     -8.87      0.00
   12   10    0      8.11      0.00
   14   10    0     11.68      0.00
   16   10    0      2.84      0.00
   18   10    0      4.93      0.00
   20   10    0     -0.68      0.00
   22   10    0      4.69      0.00
   24   10    0     -8.08      0.00
   26   10    0      9.41      0.00
   28   10    0     -9.70      0.00
   30   10    0     -9.50      0.00
   32   10    0     -0.11      0.00
   34   10    0     -1.25      0.00
    1   11    0     -3.59      0.00
    3   11    0     -6.07      0.00
    5   11    0     -2.53      0.00
    7   11    0    -12.13      0.00
    9   11    0      6.52      0.00
   11   11    0    -10.04      0.00
   13   11    0      2.38      0.00
   15   11    0      5.79      0.00
   17   11    0      0.57      0.00
   19   11    0     -1.24      0.00
   21   11    0     -1.52      0.00
   23   11    0     -2.07      0.00
   25   11    0     -6.16      0.00
   27   11    0     -3.99      0.00
   29   11    0      5.15      0.00
   31   11    0     -4.31      0.00
   33   11    0     -1.46      0.00
    0   12    0      0.84      0.00
    2   12    0      0.74      0.00
    4   12    0      5.29      0.00
    6   12    0     -5.99      0.00
    8   12    0     -1.95      0.00
   10   12    0     -9.69      0.00
   12   12    0      8.58      0.00
   14   12    0     -2.31      0.00
   16   12    0     -4.16      0.00
   18   12    0     -2.14      0.00
   20   12    0     -2.04      0.00
   22   12    0      0.24      0.00
   24   12    0     13.14      0.00
   26   12    0      0.56      0.00
   28   12    0      1.02      0.00
   30   12    0      7.56      0.00
   32   12    0     -2.03      0.00
    1   13    0      1.60      0.00
    3   13    0      2.05      0.00
    5   13    0     -2.89      0.00
    7   13    0     -8.86      0.00
    9   13    0      0.05      0.00
   11   13    0     -6.28      0.00
   13   13    0      2.25      0.00
   15   13    0     -7.51      0.00
   17   13    0      4.94      0.00
   19   13    0     -4.32      0.00
   21   13    0     14.20      0.00
   23   13    0      1.93      0.00
   25   13    0     -6.39      0.00
   27   13    0      3.13      0.00
   29   13    0      5.22      0.00
   31   13    0      2.04      0.00
    0   14    0      9.57      0.00
    2   14    0     -1.49      0.00
    4   14    0     -1.13      0.00
    6   14    0     -1.33      0.00
    8   14    0     -5.52      0.00
   10   14    0      5.15      0.00
   12   14    0     -0.52      0.00
   14   14    0      4.14      0.00
   16   14    0      0.11      0.00
   18   14    0      8.65      0.00
   20   14    0      4.18      0.00
   22   14    0     -1.33      0.00
   24   14    0      9.78      0.00
   26   14    0     -8.12      0.00
   28   14    0    -11.98      0.00
   30   14    0     16.28      0.00
    1   15    0     12.64      0.00
    3   15    0      5.41      0.00
    5   15    0      7.15      0.00
    7   15    0      9.56      0.00
    9   15    0     -7.46      0.00
   11   15    0      0.95      0.00
   13   15    0     -8.80      0.00
   15   15    0     -4.15      0.00
   17   15    0     -2.03      0.00
   19   15    0      0.83      0.00
   21   15    0     -1.80      0.00
   23   15    0      1.02      0.00
   25   15    0     -0.94      0.00
   27   15    0     -0.77      0.00
   29   15    0     14.44      0.00
    0   16    0      3.89      0.00
    2   16    0      6.43      0.00
    4   16    0     11.97      0.00
    6   16    0      8.73      0.00
    8   16    0      0.96      0.00
   10   16    0     -3.12      0.00
   12   16    0      1.22      0.00
   14   16    0      6.60      0.00
   16   16    0     -0.18      0.00
   18   16    0     -6.14      0.00
   20   16    0     -0.41      0.00
   22   16    0      2.73      0.00
   24   16    0     -3.64      0.00
   26   16    0      2.17      0.00
   28   16    0     -6.74      0.00
    1   17    0      0.12      0.00
    3   17    0     -9.79      0.00
    5   17    0      8.99      0.00
    7   17    0     16.27      0.00
    9   17    0     -3.73      0.00
   11   17    0     -7.56      0.00
   13   17    0     -6.39      0.00
   15   17    0     -1.90      0.00
   17   17    0      5.56      0.00
   19   17    0      0.03      0.00
   21   17    0     -4.09      0.00
   23   17    0      6.85      0.00
   25   17    0      5.01      0.00
    0   18    0     -1.73      0.00
    2   18    0      6.89      0.00
    4   18    0      2.86      0.00
    6   18    0     -4.02      0.00
    8   18    0     -2.94      0.00
   10   18    0      6.75      0.00
   12   18    0     -5.25      0.00
   14   18    0     -3.39      0.00
   16   18    0     -0.35      0.00
   18   18    0     -5.45      0.00
   20   18    0     -4.83      0.00
   22   18    0     -5.43      0.00
   24   18    0     -0.76      0.00
    1   19    0     -4.57      0.00
    3   19    0      7.56      0.00
    5   19    0     -4.78      0.00
    7   19    0      2.38      0.00
    9   19    0      2.28      0.00
   11   19    0     -4.98      0.00
   13   19    0     -0.67      0.00
   15   19    0      0.26      0.00
   17   19    0     -1.75      0.00
   19   19    0      3.46      0.00
   21   19    0     -4.10      0.00
    0   20    0      5.28      0.00
    2   20    0      0.77      0.00
    4   20    0     -5.24      0.00
    6   20    0     -2.67      0.00
    8   20    0     -6.91      0.00
   10   20    0    -15.62      0.00
   12   20    0     -5.37      0.00
   14   20    0     -3.55      0.00
   16   20    0      3.74      0.00
   18   20    0     -6.65      0.00
    1   21    0      0.28      0.00
    3   21    0     -4.81      0.00
    5   21    0      3.79      0.00
    7   21    0      3.43      0.00
    9   21    0      3.00      0.00
   11   21    0     -2.69      0.00
   13   21    0     -1.86      0.00
  -39    1    1      5.07      0.00
  -37    1    1      0.07      0.00
  -35    1    1      0.38      0.00
  -33    1    1      1.78      0.00
  -31    1    1     -5.04      0.00
  -29    1    1     -3.82      0.00
  -27    1    1     -2.14      0.00
  -25    1    1      2.89      0.00
  -23    1    1     -0.92      0.00
  -21    1    1      2.52      0.00
  -19    1    1     -8.50      0.00
  -17    1    1     -4.78      0.00
  -15    1    1     19.21      0.00
  -13    1    1    -13.00      0.00
  -11    1    1    -20.64      0.00
   -9    1    1      0.23      0.00
   -7    1    1     14.66      0.00
   -5    1    1   -135.51      0.00
   -3    1    1     18.24      0.00
    1    1    1    -66.61      0.00
    3    1    1    154.89      0.00
    5    1    1    -48.52      0.00
    7    1    1    -25.03      0.00
    9    1    1      9.75      0.00
   11    1    1     12.17      0.00
   13    1    1     -5.21      0.00
   15    1    1      7.28      0.00
   17    1    1     -4.41      0.00
   19    1    1    -10.27      0.00
   21    1    1      3.37      0.00
   23    1    1      4.98      0.00
   25    1    1      2.92      0.00
   27    1    1      5.49      0.00
   29    1    1      0.45      0.00
   31    1    1     -1.86      0.00
   33    1    1      0.25      0.00
   35    1    1      2.88      0.00
   37    1    1    -11.98      0.00
   39    1    1      3.42      0.00
  -40    2    1     -8.66      0.00
  -38    2    1      0.84      0.00
  -36    2    1      3.14      0.00
  -34    2    1      3.89      0.00
  -32    2    1      1.69      0.00
  -30    2    1     -1.74      0.00
  -28    2    1     -4.02      0.00
  -26    2    1     -3.11      0.00
  -24    2    1     -3.81      0.00
  -22    2    1    -13.68      0.00
  -20    2    1    -10.68      0.00
  -18    2    1     10.62      0.00
  -16    2    1     -9.38      0.00
  -14    2    1     -8.21      0.00
  -12    2    1      9.70      0.00
  -10    2    1    -22.38      0.00
   -8    2    1    -29.14      0.00
   -6    2    1     58.08      0.00
   -4    2    1     25.82      0.00
   -2    2    1   -109.41      0.00
    0    2    1    -78.81      0.00
    2    2    1     -9.07      0.00
    4    2    1    -31.88      0.00
    6    2    1     60.06      0.00
    8    2    1    -13.70      0.00
   10    2    1    -15.93      0.00
   12    2    1     -0.41      0.00
   14    2    1     -3.55      0.00
   16    2    1     -8.24      0.00
   18    2    1     -6.83      0.00
   20    2    1     -5.03      0.00
   22    2    1      2.49      0.00
   24    2    1      4.77      0.00
   26    2    1     -0.69      0.00
   28    2    1     -3.59      0.00
   30    2    1     -2.45      0.00
   32    2    1     -1.66      0.00
   34    2    1      0.54      0.00
   36    2    1     -2.91      0.00
   38    2    1     21.24      0.00
  -39    3    1     -4.88      0.00
  -37    3    1    -16.41      0.00
  -35    3    1      7.26      0.00
  -33    3    1     -1.43      0.00
  -31    3    1     -0.79      0.00
  -29    3    1     -7.07      0.00
  -27    3    1      0.80      0.00
  -25    3    1      1.28      0.00
  -23    3    1     -1.03      0.00
  -21    3    1     -0.16      0.00
  -19    3    1     -4.16      0.00
  -17    3    1      1.10      0.00
  -15    3    1      9.23      0.00
  -13    3    1      2.33      0.00
  -11    3    1    -30.35      0.00
   -9    3    1    -24.29      0.00
   -7    3    1    -10.85      0.00
   -5    3    1    -11.22      0.00
   -3    3    1   -156.36      0.00
   -1    3    1    -29.58      0.00
    1    3    1     -8.66      0.00
    3    3    1     92.31      0.00
    5    3    1     60.45      0.00
    7    3    1    -46.45      0.00
    9    3    1     11.23      0.00
   11    3    1     32.88      0.00
   13    3    1     -0.84      0.00
   15    3    1     -9.95      0.00
   17    3    1      0.01      0.00
   19    3    1     -5.39      0.00
   21    3    1      4.95      0.00
   23    3    1     11.11      0.00
   25    3    1     -0.08      0.00
   27    3    1     -3.37      0.00
   29    3    1      2.33      0.00
   31    3    1      0.63      0.00
   33    3    1      8.76      0.00
   35    3    1     -1.96      0.00
   37    3    1     -6.13      0.00
   39    3    1      3.05      0.00
  -40    4    1     -4.63      0.00
  -38    4    1     -7.37      0.00
  -36    4    1      1.31      0.00
  -34    4    1     -2.64      0.00
  -32    4    1     16.27      0.00
  -30    4    1      7.50      0.00
  -28    4    1     -0.15      0.00
  -26    4    1      1.55      0.00
  -24    4    1      3.23      0.00
  -22    4    1    -10.31      0.00
  -20    4    1    -12.78      0.00
  -18    4    1     -4.19      0.00
  -16    4    1     -8.12      0.00
  -14    4    1      4.65      0.00
  -12    4    1      9.89      0.00
  -10    4    1    -47.80      0.00
   -8    4    1    -37.69      0.00
   -6    4    1    -46.22      0.00
   -4    4    1     79.60      0.00
   -2    4    1     34.31      0.00
    0    4    1    -82.33      0.00
    2    4    1      7.56      0.00
    4    4    1    -17.04      0.00
    6    4    1     33.34      0.00
    8    4    1     53.47      0.00
   10    4    1      8.65      0.00
   12    4    1    -18.93      0.00
   14    4    1      0.79      0.00
   16    4    1      7.51      0.00
   18    4    1     -6.23      0.00
   20    4    1      6.59      0.00
   22    4    1      1.79      0.00
   24    4    1      0.20      0.00
   26    4    1     -1.80      0.00
   28    4    1      5.48      0.00
   30    4    1     -5.92      0.00
   32    4    1    -13.33      0.00
   34    4    1     -2.14      0.00
   36    4    1    -15.18      0.00
   38    4    1      2.28      0.00
  -39    5    1     -4.39      0.00
  -37    5    1      3.56      0.00
  -35    5    1    -10.66      0.00
  -33    5    1      1.40      0.00
  -31    5    1     -3.10      0.00
  -29    5    1     10.23      0.00
  -27    5    1     -1.27      0.00
  -25    5    1     -4.59      0.00
  -23    5    1      1.42      0.00
  -21    5    1      5.51      0.00
  -19    5    1     10.60      0.00
  -17    5    1      1.17      0.00
  -15    5    1      1.26      0.00
  -13    5    1     -3.27      0.00
  -11    5    1     19.84      0.00
   -9    5    1     24.90      0.00
   -7    5    1     51.81      0.00
   -5    5    1    -16.43      0.00
   -3    5    1    -10.53      0.00
   -1    5    1     -5.49      0.00
    1    5    1     67.28      0.00
    3    5    1     32.61      0.00
    5    5    1    -10.11      0.00
    7    5    1      4.52      0.00
    9    5    1    -18.59      0.00
   11    5    1     18.43      0.00
   13    5    1     -4.41      0.00
   15    5    1     -6.68      0.00
   17    5    1     -2.48      0.00
   19    5    1     -9.39      0.00
   21    5    1      0.80      0.00
   23    5    1      8.04      0.00
   25    5    1      3.78      0.00
   27    5    1      8.39      0.00
   29    5    1     -5.99      0.00
   31    5    1     -1.50      0.00
   33    5    1     -5.55      0.00
   35    5    1     -5.94      0.00
   37    5    1     -4.04      0.00
   39    5    1      1.57      0.00
  -38    6    1     -0.43      0.00
  -36    6    1      9.05      0.00
  -34    6    1      5.86      0.00
  -32    6    1     -4.29      0.00
  -30    6    1      7.70      0.00
  -28    6    1      1.25      0.00
  -26    6    1     -0.01      0.00
  -24    6    1     -4.09      0.00
  -22    6    1      1.48      0.00
  -20    6    1     -6.89      0.00
  -18    6    1     -0.38      0.00
  -16    6    1     -1.69      0.00
  -14    6    1      8.53      0.00
  -12    6    1      4.04      0.00
  -10    6    1    -20.21      0.00
   -8    6    1     -2.29      0.00
   -6    6    1     -6.51      0.00
   -4    6    1     -5.56      0.00
   -2    6    1      3.99      0.00
    0    6    1    -22.97      0.00
    2    6    1    -61.78      0.00
    4    6    1     18.84      0.00
    6    6    1     21.56      0.00
    8    6    1    -17.03      0.00
   10    6    1     17.62      0.00
   12    6    1    -20.75      0.00
   14    6    1     -3.95      0.00
   16    6    1      3.37      0.00
   18    6    1     11.07      0.00
   20    6    1     -5.86      0.00
   22    6    1     -1.22      0.00
   24    6    1     -4.83      0.00
   26    6    1     -3.85      0.00
   28    6    1      1.54      0.00
   30    6    1     -6.70      0.00
   32    6    1      1.65      0.00
   34    6    1     -1.79      0.00
   36    6    1     -3.09      0.00
   38    6    1      3.33      0.00
  -37    7    1     -2.60      0.00
  -35    7    1     -2.50      0.00
  -33    7    1     -0.28      0.00
  -31    7    1      7.08      0.00
  -29    7    1     -3.32      0.00
  -27    7    1     -0.47      0.00
  -25    7    1      6.51      0.00
  -23    7    1      0.70      0.00
  -21    7    1      4.74      0.00
  -19    7    1     13.01      0.00
  -17    7    1     -6.11      0.00
  -15    7    1    -13.38      0.00
  -13    7    1     18.73      0.00
  -11    7    1     15.72      0.00
   -9    7    1     17.07      0.00
   -7    7    1     16.77      0.00
   -5    7    1     23.22      0.00
   -3    7    1    -10.58      0.00
   -1    7    1     21.99      0.00
    1    7    1      0.92      0.00
    3    7    1     16.45      0.00
    5    7    1     11.26      0.00
    7    7    1      1.82      0.00
    9    7    1     18.50      0.00
   11    7    1    -15.79      0.00
   13    7    1      2.42      0.00
   15    7    1     -8.68      0.00
   17    7    1    -15.90      0.00
   19    7    1    -10.87      0.00
   21    7    1      3.07      0.00
   23    7    1      4.54      0.00
   25    7    1      0.02      0.00
   27    7    1      1.06      0.00
   29    7    1     -6.71      0.00
   31    7    1     -7.15      0.00
   33    7    1      3.01      0.00
   35    7    1     -3.36      0.00
   37    7    1      4.33      0.00
  -36    8    1     -5.91      0.00
  -34    8    1     -2.09      0.00
  -32    8    1     -8.72      0.00
  -30    8    1     -5.35      0.00
  -28    8    1      8.61      0.00
  -26    8    1     -2.37      0.00
  -24    8    1     -1.10      0.00
  -22    8    1      4.07      0.00
  -20    8    1      0.40      0.00
  -18    8    1     -7.44      0.00
  -16    8    1     12.93      0.00
  -14    8    1     -3.30      0.00
  -12    8    1     -9.11      0.00
  -10    8    1      8.44      0.00
   -8    8    1     11.31      0.00
   -6    8    1      5.59      0.00
   -4    8    1    -23.78      0.00
   -2    8    1      0.56      0.00
    0    8    1     -2.20      0.00
    2    8    1    -11.46      0.00
    4    8    1     -4.68      0.00
    6    8    1    -10.50      0.00
    8    8    1    -12.20      0.00
   10    8    1      1.57      0.00
   12    8    1      6.23      0.00
   14    8    1    -10.53      0.00
   16    8    1     10.15      0.00
   18    8    1      8.56      0.00
   20    8    1      0.99      0.00
   22    8    1     -1.28      0.00
   24    8    1      4.05      0.00
   26    8    1      3.92      0.00
   28    8    1     -0.88      0.00
   30    8    1     17.09      0.00
   32    8    1      2.84      0.00
   34    8    1     12.09      0.00
   36    8    1     -1.77      0.00
  -35    9    1      5.87      0.00
  -33    9    1     -6.22      0.00
  -31    9    1      0.82      0.00
  -29    9    1      7.90      0.00
  -27    9    1      2.00      0.00
  -25    9    1     -5.08      0.00
  -23    9    1      5.76      0.00
  -21    9    1      3.55      0.00
  -19    9    1      0.83      0.00
  -17    9    1     -9.04      0.00
  -15    9    1     -5.38      0.00
  -13    9    1     12.87      0.00
  -11    9    1      7.95      0.00
   -9    9    1      3.60      0.00
   -7    9    1     -8.25      0.00
   -5    9    1      7.97      0.00
   -3    9    1     -0.63      0.00
   -1    9    1      7.28      0.00
    1    9    1    -22.64      0.00
    3    9    1      5.03      0.00
    5    9    1     15.41      0.00
    7    9    1      9.58      0.00
    9    9    1     11.89      0.00
   11    9    1     -3.97      0.00
   13    9    1     -5.21      0.00
   15    9    1     -7.28      0.00
   17    9    1    -13.16      0.00
   19    9    1     -1.64      0.00
   21    9    1     -1.82      0.00
   23    9    1     -7.58      0.00
   25    9    1     11.41      0.00
   27    9    1      0.67      0.00
   29    9    1     -6.42      0.00
   31    9    1      7.41      0.00
   33    9    1      3.04      0.00
   35    9    1     -0.81      0.00
  -34   10    1      3.91      0.00
  -32   10    1      0.41      0.00
  -30   10    1      0.10      0.00
  -28   10    1     10.10      0.00
  -26   10    1      5.61      0.00
  -24   10    1     -0.89      0.00
  -22   10    1     -0.23      0.00
  -20   10    1      2.53      0.00
  -18   10    1      9.00      0.00
  -16   10    1     14.41      0.00
  -14   10    1     15.71      0.00
  -12   10    1      4.61      0.00
  -10   10    1     -3.76      0.00
   -8   10    1     -3.99      0.00
   -6   10    1      6.51      0.00
   -4   10    1    -14.63      0.00
   -2   10    1    -18.27      0.00
    0   10    1     11.13      0.00
    2   10    1    -11.26      0.00
    4   10    1     -0.46      0.00
    6   10    1     -8.35      0.00
    8   10    1      3.69      0.00
   10   10    1    -13.51      0.00
   12   10    1      7.05      0.00
   14   10    1     -2.23      0.00
   16   10    1     -3.63      0.00
   18   10    1     -1.28      0.00
   20   10    1     -0.36      0.00
   22   10    1      2.07      0.00
   24   10    1     -0.44      0.00
   26   10    1     -0.24      0.00
   28   10    1     -1.65      0.00
   30   10    1    -10.11      0.00
   32   10    1     -5.21      0.00
   34   10    1     -6.76      0.00
  -33   11    1     -2.55      0.00
  -31   11    1      6.13      0.00
  -29   11    1     12.52      0.00
  -27   11    1     -0.79      0.00
  -25   11    1      3.11      0.00
  -23   11    1      1.35      0.00
  -21   11    1      6.19      0.00
  -19   11    1     -7.74      0.00
  -17   11    1     -0.97      0.00
  -15   11    1      0.77      0.00
  -13   11    1     -8.19      0.00
  -11   11    1      6.57      0.00
   -9   11    1      6.06      0.00
   -7   11    1      0.73      0.00
   -5   11    1     -5.08      0.00
   -3   11    1    -13.27      0.00
   -1   11    1     18.85      0.00
    1   11    1    -13.27      0.00
    3   11    1     14.49      0.00
    5   11    1     -4.94      0.00
    7   11    1     -1.75      0.00
    9   11    1     -8.57      0.00
   11   11    1      1.09      0.00
   13   11    1      4.63      0.00
   15   11    1     -1.99      0.00
   17   11    1      1.76      0.00
   19   11    1     -6.59      0.00
   21   11    1     -5.48      0.00
   23   11    1      3.60      0.00
   25   11    1     -0.48      0.00
   27   11    1     -5.91      0.00
   29   11    1      3.89      0.00
   31   11    1      2.94      0.00
   33   11    1      7.33      0.00
  -32   12    1      1.95      0.00
  -30   12    1     -5.62      0.00
  -28   12    1     10.64      0.00
  -26   12    1      8.51      0.00
  -24   12    1      1.02      0.00
  -22   12    1      5.54      0.00
  -20   12    1      3.56      0.00
  -18   12    1      5.83      0.00
  -16   12    1      1.95      0.00
  -14   12    1      9.57      0.00
  -12   12    1      5.42      0.00
  -10   12    1     -1.29      0.00
   -8   12    1     -3.92      0.00
   -6   12    1      5.00      0.00
   -4   12    1     12.03      0.00
   -2   12    1     -2.28      0.00
    0   12    1      9.24      0.00
    2   12    1     -7.24      0.00
    4   12    1     -0.24      0.00
    6   12    1      2.41      0.00
    8   12    1     11.59      0.00
   10   12    1      3.16      0.00
   12   12    1     -5.66      0.00
   14   12    1      3.99      0.00
   16   12    1     -5.45      0.00
   18   12    1      5.31      0.00
   20   12    1      7.30      0.00
   22   12    1      1.57      0.00
   24   12    1     -4.09      0.00
   26   12    1      0.80      0.00
   28   12    1     -1.53      0.00
   30   12    1     -1.24      0.00
   32   12    1      6.81      0.00
  -31   13    1      1.04      0.00
  -29   13    1     -1.36      0.00
  -27   13    1      7.65      0.00
  -25   13    1     -0.51      0.00
  -23   13    1      4.39      0.00
  -21   13    1     -9.51      0.00
  -19   13    1      7.16      0.00
  -17   13    1      2.91      0.00
  -15   13    1     10.02      0.00
  -13   13    1     -2.73      0.00
  -11   13    1     -1.74      0.00
   -9   13    1      1.08      0.00
   -7   13    1      6.33      0.00
   -5   13    1      3.81      0.00
   -3   13    1     -5.54      0.00
   -1   13    1      9.27      0.00
    1   13    1     -8.44      0.00
    3   13    1      0.75      0.00
    5   13    1     -2.95      0.00
    7   13    1     -9.55      0.00
    9   13    1     -4.31      0.00
   11   13    1      2.29      0.00
   13   13    1      1.81      0.00
   15   13    1     -0.88      0.00
   17   13    1     -3.17      0.00
   19   13    1      4.90      0.00
   21   13    1     -0.61      0.00
   23   13    1     -1.49      0.00
   25   13    1      2.76      0.00
   27   13    1     -6.08      0.00
   29   13    1     -0.33      0.00
   31   13    1      2.15      0.00
  -30   14    1      1.89      0.00
  -28   14    1     -5.18      0.00
  -26   14    1      8.18      0.00
  -24   14    1     -0.82      0.00
  -22   14    1     -5.42      0.00
  -20   14    1      7.10      0.00
  -18   14    1      0.92      0.00
  -16   14    1      4.07      0.00
  -14   14    1    -14.20      0.00
  -12   14    1      6.36      0.00
  -10   14    1      7.08      0.00
   -8   14    1      3.29      0.00
   -6   14    1      7.55      0.00
   -4   14    1     -0.36      0.00
   -2   14    1     10.37      0.00
    0   14    1     10.08      0.00
    2   14    1     10.49      0.00
    4   14    1      5.52      0.00
    6   14    1      5.67      0.00
    8   14    1     -7.03      0.00
   10   14    1     -4.69      0.00
   12   14    1      1.88      0.00
   14   14    1     10.88      0.00
   16   14    1     -5.08      0.00
   18   14    1      6.35      0.00
   20   14    1     -1.56      0.00
   22   14    1      5.39      0.00
   24   14    1     -7.74      0.00
   26   14    1      5.85      0.00
   28   14    1    -12.27      0.00
   30   14    1      3.86      0.00
  -29   15    1    -13.36      0.00
  -27   15    1     13.31      0.00
  -25   15    1     -2.03      0.00
  -23   15    1     -1.84      0.00
  -21   15    1     -0.25      0.00
  -19   15    1      3.60      0.00
  -17   15    1     -8.11      0.00
  -15   15    1      6.04      0.00
  -13   15    1      3.13      0.00
  -11   15    1    -11.95      0.00
   -9   15    1     -4.22      0.00
   -7   15    1      5.77      0.00
   -5   15    1     16.65      0.00
   -3   15    1      0.69      0.00
   -1   15    1     -2.92      0.00
    1   15    1      3.82      0.00
    3   15    1      0.06      0.00
    5   15    1      2.70      0.00
    7   15    1      2.87      0.00
    9   15    1     -1.08      0.00
   11   15    1     -4.05      0.00
   13   15    1      0.10      0.00
   15   15    1      7.33      0.00
   17   15    1      1.98      0.00
   19   15    1     -3.72      0.00
   21   15    1     14.08      0.00
   23   15    1     -3.75      0.00
   25   15    1      0.04      0.00
   27   15    1      6.71      0.00
   29   15    1     -1.25      0.00
  -28   16    1     12.12      0.00
  -26   16    1     -4.19      0.00
  -24   16    1      7.15      0.00
  -22   16    1      4.74      0.00
  -20   16    1     -4.62      0.00
  -18   16    1      8.76      0.00
  -16   16    1      9.73      0.00
  -14   16    1     -0.19      0.00
  -12   16    1     -2.51      0.00
  -10   16    1      8.83      0.00
   -8   16    1     -4.70      0.00
   -6   16    1     -7.48      0.00
   -4   16    1     -3.23      0.00
   -2   16    1      2.12      0.00
    0   16    1     -7.07      0.00
    2   16    1     -2.09      0.00
    4   16    1      7.14      0.00
    6   16    1      3.39      0.00
    8   16    1     -4.87      0.00
   10   16    1     -0.85      0.00
   12   16    1      2.22      0.00
   14   16    1      0.20      0.00
   16   16    1     -7.64      0.00
   18   16    1     -1.68      0.00
   20   16    1     -9.21      0.00
   22   16    1     -4.50      0.00
   24   16    1      6.80      0.00
   26   16    1    -10.65      0.00
  -25   17    1      0.24      0.00
  -23   17    1     -3.26      0.00
  -21   17    1     -1.93      0.00
  -19   17    1      9.35      0.00
  -17   17    1     -0.38      0.00
  -15   17    1      4.20      0.00
  -13   17    1     -2.75      0.00
  -11   17    1     -0.61      0.00
   -9   17    1     -1.61      0.00
   -7   17    1     -7.16      0.00
   -5   17    1      1.95      0.00
   -3   17    1     -0.86      0.00
   -1   17    1     -6.26      0.00
    1   17    1      0.56      0.00
    3   17    1      2.21      0.00
    5   17    1    -16.29      0.00
    7   17    1     -9.90      0.00
    9   17    1     -0.52      0.00
   11   17    1     -0.73      0.00
   13   17    1    -11.73      0.00
   15   17    1      3.20      0.00
   17   17    1      1.85      0.00
   19   17    1     -2.99      0.00
   21   17    1     -0.08      0.00
   23   17    1      4.34      0.00
   25   17    1      6.61      0.00
  -24   18    1     -6.27      0.00
  -22   18    1      0.41      0.00
  -20   18    1      8.69      0.00
  -18   18    1     -0.26      0.00
  -16   18    1     -4.68      0.00
  -14   18    1     -5.15      0.00
  -12   18    1      6.02      0.00
  -10   18    1     -7.16      0.00
   -8   18    1     -6.96      0.00
   -6   18    1     -0.13      0.00
   -4   18    1     22.24      0.00
   -2   18    1     -3.91      0.00
    0   18    1     -3.44      0.00
    2   18    1      7.67      0.00
    4   18    1      3.87      0.00
    6   18    1     -8.16      0.00
    8   18    1     -3.02      0.00
   10   18    1     -1.16      0.00
   12   18    1      7.12      0.00
   14   18    1      2.09      0.00
   16   18    1      0.72      0.00
   18   18    1     -3.76      0.00
   20   18    1     -2.32      0.00
   22   18    1     -0.96      0.00
   24   18    1     -5.20      0.00
  -21   19    1     -5.06      0.00
  -19   19    1     -7.75      0.00
  -17   19    1      9.14      0.00
  -15   19    1      4.31      0.00
  -13   19    1      1.55      0.00
  -11   19    1     -9.02      0.00
   -9   19    1     -3.70      0.00
   -7   19    1      0.48      0.00
   -5   19    1      0.17      0.00
   -3   19    1     -3.17      0.00
   -1   19    1      3.97      0.00
    1   19    1      7.69      0.00
    3   19    1      0.60      0.00
    5   19    1     -2.71      0.00
    7   19    1     -4.02      0.00
    9   19    1     -7.19      0.00
   11   19    1     -0.04      0.00
   13   19    1     10.37      0.00
   15   19    1      3.62      0.00
   17   19    1      7.83      0.00
   19   19    1      1.99      0.00
   21   19    1      6.33      0.00
  -18   20    1      3.94      0.00
  -16   20    1     -4.49      0.00
  -14   20    1     -3.44      0.00
  -12   20    1     -7.14      0.00
  -10   20    1    -11.86      0.00
   -8   20    1      0.19      0.00
   -6   20    1     10.26      0.00
   -4   20    1      1.29      0.00
   -2   20    1      4.88      0.00
    0   20    1     -5.51      0.00
    2   20    1     -6.05      0.00
    4   20    1      5.60      0.00
    6   20    1     -1.86      0.00
    8   20    1     -2.50      0.00
   10   20    1      4.71      0.00
   12   20    1     -4.97      0.00
   14   20    1      2.39      0.00
   16   20    1      1.05      0.00
   18   20    1      3.96      0.00
  -13   21    1      5.50      0.00
  -11   21    1      3.94      0.00
   -9   21    1     -5.15      0.00
   -7   21    1      6.01      0.00
   -5   21    1      8.76      0.00
   -3   21    1      1.91      0.00
   -1   21    1      1.03      0.00
    1   21    1      2.86      0.00
    3   21    1     -1.81      0.00
    5   21    1     -7.22      0.00
    7   21    1     -6.18      0.00
    9   21    1      1.44      0.00
   11   21    1      2.87      0.00
   13   21    1      0.01      0.00
   -4   22    1      9.58      0.00
   -2   22    1      3.53      0.00
  -40    0    2      4.12      0.00
  -38    0    2     -3.11      0.00
  -36    0    2    -11.16      0.00
  -34    0    2    -18.26      0.00
  -32    0    2    -11.99      0.00
  -30    0    2     -0.48      0.00
  -28    0    2     -1.56      0.00
  -26    0    2     -2.01      0.00
  -24    0    2     -0.54      0.00
  -22    0    2      2.32      0.00
  -20    0    2      5.33      0.00
  -18    0    2    -13.75      0.00
  -16    0    2     19.58      0.00
  -14    0    2     12.52      0.00
  -12    0    2    -58.08      0.00
  -10    0    2    -27.93      0.00
   -8    0    2      0.76      0.00
   -6    0    2    -90.43      0.00
   -4    0    2   -105.01      0.00
   -2    0    2     45.01      0.00
    2    0    2    160.46      0.00
    4    0    2    103.10      0.00
    6    0    2      4.23      0.00
    8    0    2     -6.57      0.00
   10    0    2     28.33      0.00
   12    0    2     -3.74      0.00
   14    0    2    -24.23      0.00
   16    0    2      3.35      0.00
   18    0    2     11.06      0.00
   20    0    2     10.53      0.00
   22    0    2     12.62      0.00
   24    0    2      3.29      0.00
   26    0    2     -3.05      0.00
   28    0    2      3.15      0.00
   30    0    2     -1.84      0.00
   32    0    2      0.78      0.00
   34    0    2     -1.26      0.00
   36    0    2     -1.61      0.00
   38    0    2      3.40      0.00
  -39    1    2      5.64      0.00
  -37    1    2     -3.62      0.00
  -35    1    2      9.18      0.00
  -33    1    2      2.79      0.00
  -31    1    2     -5.81      0.00
  -29    1    2     -3.73      0.00
  -27    1    2     -3.59      0.00
  -25    1    2      2.34      0.00
  -23    1    2      4.76      0.00
  -21    1    2     -4.11      0.00
  -19    1    2     -0.28      0.00
  -17    1    2     25.44      0.00
  -15    1    2    -28.40      0.00
  -13    1    2     -6.70      0.00
  -11    1    2     33.33      0.00
   -9    1    2     18.66      0.00
   -7    1    2     53.77      0.00
   -5    1    2     80.47      0.00
   -3    1    2   -216.36      0.00
   -1    1    2   -386.18      0.00
    1    1    2    357.54      0.00
    3    1    2     70.05      0.00
    5    1    2     28.72      0.00
    7    1    2      5.74      0.00
    9    1    2    -23.43      0.00
   11    1    2    -13.55      0.00
   13    1    2     15.91      0.00
   15    1    2      4.42      0.00
   17    1    2     -8.54      0.00
   19    1    2     -3.35      0.00
   21    1    2      2.83      0.00
   23    1    2     -1.97      0.00
   25    1    2      3.21      0.00
   27    1    2     -0.97      0.00
   29    1    2     -2.97      0.00
   31    1    2     -1.29      0.00
   33    1    2      1.86      0.00
   35    1    2      0.35      0.00
   37    1    2      8.28      0.00
   39    1    2    -21.75      0.00
  -40    2    2     10.30      0.00
  -38    2    2     -9.40      0.00
  -36    2    2     -7.58      0.00
  -34    2    2     -5.21      0.00
  -32    2    2     -2.37      0.00
  -30    2    2     -1.26      0.00
  -28    2    2      3.14      0.00
  -26    2    2     -2.58      0.00
  -24    2    2     -7.07      0.00
  -22    2    2     -7.20      0.00
  -20    2    2    -10.35      0.00
  -18    2    2     -1.85      0.00
  -16    2    2    -12.68      0.00
  -14    2    2     11.16      0.00
  -12    2    2     -8.92      0.00
  -10    2    2     -4.13      0.00
   -8    2    2     40.74      0.00
   -6    2    2    -14.14      0.00
   -4    2    2    -22.17      0.00
   -2    2    2   -101.48      0.00
    0    2    2    159.81      0.00
    2    2    2   -114.84      0.00
    4    2    2    105.58      0.00
    6    2    2     47.07      0.00
    8    2    2      1.59      0.00
   10    2    2     23.39      0.00
   12    2    2     -8.16      0.00
   14    2    2    -13.50      0.00
   16    2    2     -7.72      0.00
   18    2    2     22.40      0.00
   20    2    2     -0.64      0.00
   22    2    2      8.44      0.00
   24    2    2     -3.38      0.00
   26    2    2     -2.77      0.00
   28    2    2     -0.85      0.00
   30    2    2      0.39      0.00
   32    2    2     10.05      0.00
   34    2    2     -4.17      0.00
   36    2    2     14.46      0.00
   38    2    2     -8.90      0.00
  -39    3    2      1.79      0.00
  -37    3    2      7.14      0.00
  -35    3    2      3.81      0.00
  -33    3    2    -10.05      0.00
  -31    3    2      1.59      0.00
  -29    3    2      3.48      0.00
  -27    3    2     -5.34      0.00
  -25    3    2      5.10      0.00
  -23    3    2     -1.10      0.00
  -21    3    2      0.71      0.00
  -19    3    2     -9.47      0.00
  -17    3    2      1.64      0.00
  -15    3    2      7.56      0.00
  -13    3    2     -2.50      0.00
  -11    3    2     -9.57      0.00
   -9    3    2    -26.19      0.00
   -7    3    2    -25.57      0.00
   -5    3    2   -129.53      0.00
   -3    3    2    -53.68      0.00
   -1    3    2     34.16      0.00
    1    3    2     43.88      0.00
    3    3    2    118.17      0.00
    5    3    2     13.29      0.00
    7    3    2     24.57      0.00
    9    3    2    -20.72      0.00
   11    3    2     -2.08      0.00
   13    3    2     -0.95      0.00
   15    3    2      0.40      0.00
   17    3    2      0.41      0.00
   19    3    2      1.21      0.00
   21    3    2      4.82      0.00
   23    3    2     -2.41      0.00
   25    3    2      1.65      0.00
   27    3    2      2.29      0.00
   29    3    2     -0.62      0.00
   31    3    2     -9.34      0.00
   33    3    2     -0.19      0.00
   35    3    2     -3.53      0.00
   37    3    2     -6.82      0.00
   39    3    2      6.38      0.00
  -40    4    2      3.70      0.00
  -38    4    2      1.32      0.00
  -36    4    2    -11.61      0.00
  -34    4    2     -3.22      0.00
  -32    4    2     -1.66      0.00
  -30    4    2     -3.01      0.00
  -28    4    2     -0.26      0.00
  -26    4    2     -6.28      0.00
  -24    4    2      0.23      0.00
  -22    4    2     -3.34      0.00
  -20    4    2     -2.51      0.00
  -18    4    2      3.78      0.00
  -16    4    2     11.12      0.00
  -14    4    2     -7.20      0.00
  -12    4    2     18.87      0.00
  -10    4    2      9.82      0.00
   -8    4    2    -46.72      0.00
   -6    4    2     -8.88      0.00
   -4    4    2     79.63      0.00
   -2    4    2   -110.63      0.00
    0    4    2      8.73      0.00
    2    4    2     46.50      0.00
    4    4    2    -22.52      0.00
    6    4    2     17.83      0.00
    8    4    2     13.54      0.00
   10    4    2    -33.67      0.00
   12    4    2     -9.93      0.00
   14    4    2     -6.07      0.00
   16    4    2      3.83      0.00
   18    4    2     -2.69      0.00
   20    4    2     -2.49      0.00
   22    4    2     -5.01      0.00
   24    4    2     -0.10      0.00
   26    4    2      0.40      0.00
   28    4    2     -4.90      0.00
   30    4    2      6.85      0.00
   32    4    2      5.84      0.00
   34    4    2     -6.70      0.00
   36    4    2      5.07      0.00
   38    4    2    -15.07      0.00
  -39    5    2    -10.75      0.00
  -37    5    2     -2.68      0.00
  -35    5    2      2.97      0.00
  -33    5    2    -14.79      0.00
  -31    5    2      0.71      0.00
  -29    5    2      2.88      0.00
  -27    5    2      2.00      0.00
  -25    5    2      0.04      0.00
  -23    5    2     -2.68      0.00
  -21    5    2      7.52      0.00
  -19    5    2     -9.23      0.00
  -17    5    2     -5.29      0.00
  -15    5    2     13.94      0.00
  -13    5    2     12.67      0.00
  -11    5    2     25.02      0.00
   -9    5    2     53.97      0.00
   -7    5    2     13.22      0.00
   -5    5    2    -92.08      0.00
   -3    5    2    -28.29      0.00
   -1    5    2      8.97      0.00
    1    5    2    -30.46      0.00
    3    5    2   -104.84      0.00
    5    5    2     45.60      0.00
    7    5    2    -58.21      0.00
    9    5    2     -3.85      0.00
   11    5    2      8.03      0.00
   13    5    2      0.63      0.00
   15    5    2      2.75      0.00
   17    5    2      5.17      0.00
   19    5    2      0.24      0.00
   21    5    2     -1.04      0.00
   23    5    2     -2.78      0.00
   25    5    2     -1.27      0.00
   27    5    2      4.85      0.00
   29    5    2      1.67      0.00
   31    5    2      2.26      0.00
   33    5    2     -5.52      0.00
   35    5    2      3.67      0.00
   37    5    2      5.98      0.00
  -38    6    2    -11.58      0.00
  -36    6    2      9.95      0.00
  -34    6    2     -1.03      0.00
  -32    6    2     -1.87      0.00
  -30    6    2      8.93      0.00
  -28    6    2     -4.27      0.00
  -26    6    2      2.60      0.00
  -24    6    2      6.52      0.00
  -22    6    2      0.24      0.00
  -20    6    2     -0.41      0.00
  -18    6    2      0.73      0.00
  -16    6    2     -9.88      0.00
  -14    6    2     19.55      0.00
  -12    6    2     16.75      0.00
  -10    6    2     -5.99      0.00
   -8    6    2    -38.83      0.00
   -6    6    2      5.74      0.00
   -4    6    2     18.40      0.00
   -2    6    2     25.14      0.00
    0    6    2     24.95      0.00
    2    6    2     21.98      0.00
    4    6    2     37.34      0.00
    6    6    2    -36.50      0.00
    8    6    2     33.64      0.00
   10    6    2      3.65      0.00
   12    6    2    -16.96      0.00
   14    6    2    -11.31      0.00
   16    6    2    -13.50      0.00
   18    6    2     -5.87      0.00
   20    6    2     -1.79      0.00
   22    6    2      5.70      0.00
   24    6    2     -4.75      0.00
   26    6    2      2.32      0.00
   28    6    2     -2.66      0.00
   30    6    2      4.23      0.00
   32    6    2      9.37      0.00
   34    6    2      0.79      0.00
   36    6    2      1.95      0.00
   38    6    2     -4.23      0.00
  -37    7    2    -10.49      0.00
  -35    7    2     -0.48      0.00
  -33    7    2     -3.14      0.00
  -31    7    2     -8.31      0.00
  -29    7    2      0.07      0.00
  -27    7    2     -0.48      0.00
  -25    7    2     -2.00      0.00
  -23    7    2     -5.28      0.00
  -21    7    2      4.16      0.00
  -19    7    2     -3.34      0.00
  -17    7    2      8.63      0.00
  -15    7    2     12.29      0.00
  -13    7    2      3.55      0.00
  -11    7    2     11.85      0.00
   -9    7    2     22.32      0.00
   -7    7    2     10.04      0.00
   -5    7    2     -3.21      0.00
   -3    7    2      6.91      0.00
   -1    7    2     -2.62      0.00
    1    7    2     -0.65      0.00
    3    7    2      0.29      0.00
    5    7    2     11.31      0.00
    7    7    2      8.76      0.00
    9    7    2    -14.63      0.00
   11    7    2     -1.53      0.00
   13    7    2      7.50      0.00
   15    7    2      9.68      0.00
   17    7    2     11.98      0.00
   19    7    2      4.94      0.00
   21    7    2     -2.77      0.00
   23    7    2     -2.22      0.00
   25    7    2      3.27      0.00
   27    7    2     -4.61      0.00
   29    7    2      7.72      0.00
   31    7    2      1.72      0.00
   33    7    2      3.27      0.00
   35    7    2      5.77      0.00
   37    7    2      0.10      0.00
  -38    8    2     -6.08      0.00
  -36    8    2      6.93      0.00
  -34    8    2     -2.32      0.00
  -32    8    2     -2.15      0.00
  -30    8    2     11.96      0.00
  -28    8    2     -0.99      0.00
  -26    8    2     -0.86      0.00
  -24    8    2      0.56      0.00
  -22    8    2      0.22      0.00
  -20    8    2     -4.86      0.00
  -18    8    2     -5.56      0.00
  -16    8    2      3.40      0.00
  -14    8    2     -1.48      0.00
  -12    8    2      2.05      0.00
  -10    8    2     -8.73      0.00
   -8    8    2      4.77      0.00
   -6    8    2    -19.84      0.00
   -4    8    2    -16.65      0.00
   -2    8    2    -23.54      0.00
    0    8    2     12.94      0.00
    2    8    2    -13.90      0.00
    4    8    2      7.81      0.00
    6    8    2      8.90      0.00
    8    8    2      1.17      0.00
   10    8    2      5.87      0.00
   12    8    2     -8.13      0.00
   14    8    2     -6.64      0.00
   16    8    2      2.84      0.00
   18    8    2      1.46      0.00
   20    8    2     -1.62      0.00
   22    8    2     -1.88      0.00
   24    8    2     -2.91      0.00
   26    8    2      6.42      0.00
   28    8    2     13.14      0.00
   30    8    2     14.53      0.00
   32    8    2      1.45      0.00
   34    8    2      8.16      0.00
   36    8    2     -0.17      0.00
  -37    9    2      2.14      0.00
  -35    9    2      4.17      0.00
  -33    9    2      0.26      0.00
  -31    9    2      2.66      0.00
  -29    9    2     -0.47      0.00
  -27    9    2      2.20      0.00
  -25    9    2      3.39      0.00
  -23    9    2     -5.07      0.00
  -21    9    2     -2.09      0.00
  -19    9    2     -4.69      0.00
  -17    9    2     -6.72      0.00
  -15    9    2      3.97      0.00
  -13    9    2     20.28      0.00
  -11    9    2      9.46      0.00
   -9    9    2     -4.46      0.00
   -7    9    2     -8.64      0.00
   -5    9    2      0.98      0.00
   -3    9    2     19.76      0.00
   -1    9    2      1.99      0.00
    1    9    2      2.22      0.00
    3    9    2     -2.82      0.00
    5    9    2      1.26      0.00
    7    9    2    -18.05      0.00
    9    9    2     10.65      0.00
   11    9    2      3.79      0.00
   13    9    2     -1.63      0.00
   15    9    2      2.52      0.00
   17    9    2      1.33      0.00
   19    9    2     -0.29      0.00
   21    9    2      1.35      0.00
   23    9    2      0.05      0.00
   25    9    2     -4.52      0.00
   27    9    2      2.04      0.00
   29    9    2    -11.84      0.00
   31    9    2      3.03      0.00
   33    9    2    -10.11      0.00
   35    9    2      2.68      0.00
  -36   10    2     -4.73      0.00
  -34   10    2     12.21      0.00
  -32   10    2      0.73      0.00
  -30   10    2    -11.89      0.00
  -28   10    2     -1.20      0.00
  -26   10    2     -1.45      0.00
  -24   10    2     -7.34      0.00
  -22   10    2     -4.96      0.00
  -20   10    2      6.81      0.00
  -18   10    2      6.99      0.00
  -16   10    2      9.13      0.00
  -14   10    2      3.38      0.00
  -12   10    2     -2.20      0.00
  -10   10    2    -12.69      0.00
   -8   10    2     24.21      0.00
   -6   10    2      1.05      0.00
   -4   10    2    -21.31      0.00
   -2   10    2     -2.80      0.00
    0   10    2      1.27      0.00
    2   10    2      9.08      0.00
    4   10    2      8.70      0.00
    6   10    2      1.74      0.00
    8   10    2    -12.61      0.00
   10   10    2    -19.54      0.00
   12   10    2     -0.12      0.00
   14   10    2     12.37      0.00
   16   10    2      5.80      0.00
   18   10    2     -7.37      0.00
   20   10    2      2.97      0.00
   22   10    2     -2.96      0.00
   24   10    2     -5.09      0.00
   26   10    2      0.18      0.00
   28   10    2     -0.62      0.00
   30   10    2     -0.24      0.00
   32   10    2     -1.13      0.00
   34   10    2      2.55      0.00
  -33   11    2      3.78      0.00
  -31   11    2     -2.67      0.00
  -29   11    2      3.93      0.00
  -27   11    2     -1.71      0.00
  -25   11    2     -4.38      0.00
  -23   11    2     -5.05      0.00
  -21   11    2     -0.26      0.00
  -19   11    2    -10.97      0.00
  -17   11    2     -0.32      0.00
  -15   11    2     -2.84      0.00
  -13   11    2      5.23      0.00
  -11   11    2     10.47      0.00
   -9   11    2      5.73      0.00
   -7   11    2     -5.88      0.00
   -5   11    2     22.33      0.00
   -3   11    2     11.71      0.00
   -1   11    2      4.04      0.00
    1   11    2     -3.55      0.00
    3   11    2      3.11      0.00
    5   11    2     10.12      0.00
    7   11    2     -1.05      0.00
    9   11    2     20.87      0.00
   11   11    2     -8.73      0.00
   13   11    2      0.00      0.00
   15   11    2     -2.77      0.00
   17   11    2     14.48      0.00
   19   11    2      3.34      0.00
   21   11    2      1.65      0.00
   23   11    2     -1.32      0.00
   25   11    2     -7.16      0.00
   27   11    2     -2.74      0.00
   29   11    2     -1.23      0.00
   31   11    2     -1.91      0.00
   33   11    2      7.92      0.00
  -32   12    2     -2.34      0.00
  -30   12    2     -0.01      0.00
  -28   12    2      8.05      0.00
  -26   12    2      2.16      0.00
  -24   12    2      1.12      0.00
  -22   12    2    -14.19      0.00
  -20   12    2     10.73      0.00
  -18   12    2      1.95      0.00
  -16   12    2     -4.68      0.00
  -14   12    2      3.20      0.00
  -12   12    2      1.71      0.00
  -10   12    2      0.84      0.00
   -8   12    2     12.07      0.00
   -6   12    2     -9.58      0.00
   -4   12    2     -1.27      0.00
   -2   12    2     -4.68      0.00
    0   12    2      0.57      0.00
    2   12    2      1.48      0.00
    4   12    2      8.32      0.00
    6   12    2     -5.35      0.00
    8   12    2     -7.32      0.00
   10   12    2      0.34      0.00
   12   12    2      1.56      0.00
   14   12    2      0.95      0.00
   16   12    2     -7.65      0.00
   18   12    2      7.55      0.00
   20   12    2      0.50      0.00
   22   12    2     -3.44      0.00
   24   12    2      1.97      0.00
   26   12    2      6.39      0.00
   28   12    2     -4.40      0.00
   30   12    2      0.66      0.00
   32   12    2      0.93      0.00
  -31   13    2     -1.74      0.00
  -29   13    2      0.16      0.00
  -27   13    2     -6.24      0.00
  -25   13    2     -8.76      0.00
  -23   13    2     -1.65      0.00
  -21   13    2      0.21      0.00
  -19   13    2     -4.13      0.00
  -17   13    2      1.25      0.00
  -15   13    2      0.75      0.00
  -13   13    2      1.55      0.00
  -11   13    2     -5.00      0.00
   -9   13    2     -5.26      0.00
   -7   13    2     -2.03      0.00
   -5   13    2      8.35      0.00
   -3   13    2      7.38      0.00
   -1   13    2     -6.02      0.00
    1   13    2      3.54      0.00
    3   13    2    -10.69      0.00
    5   13    2     13.74      0.00
    7   13    2     -0.43      0.00
    9   13    2     -4.71      0.00
   11   13    2     -3.74      0.00
   13   13    2     -2.03      0.00
   15   13    2      5.09      0.00
   17   13    2     -1.46      0.00
   19   13    2     -1.03      0.00
   21   13    2      1.26      0.00
   23   13    2    -13.79      0.00
   25   13    2      6.43      0.00
   27   13    2     -4.50      0.00
   29   13    2     -5.14      0.00
  -30   14    2     -1.31      0.00
  -28   14    2     -0.98      0.00
  -26   14    2     -2.58      0.00
  -24   14    2     -1.77      0.00
  -22   14    2     11.64      0.00
  -20   14    2      3.98      0.00
  -18   14    2     -0.66      0.00
  -16   14    2      4.11      0.00
  -14   14    2     -1.80      0.00
  -12   14    2      8.28      0.00
  -10   14    2      0.85      0.00
   -8   14    2     -7.26      0.00
   -6   14    2     -8.23      0.00
   -4   14    2     -5.63      0.00
   -2   14    2     -3.37      0.00
    0   14    2     -0.58      0.00
    2   14    2      6.72      0.00
    4   14    2     12.25      0.00
    6   14    2      4.40      0.00
    8   14    2      3.10      0.00
   10   14    2     -4.86      0.00
   12   14    2     -1.05      0.00
   14   14    2     -2.48      0.00
   16   14    2     -6.57      0.00
   18   14    2      5.13      0.00
   20   14    2      3.18      0.00
   22   14    2      1.21      0.00
   24   14    2      2.30      0.00
   26   14    2     -5.48      0.00
   28   14    2     -3.15      0.00
  -29   15    2     15.65      0.00
  -27   15    2     -6.32      0.00
  -25   15    2      0.60      0.00
  -23   15    2      0.93      0.00
  -21   15    2     -9.58      0.00
  -19   15    2     -7.51      0.00
  -17   15    2      3.73      0.00
  -15   15    2     11.56      0.00
  -13   15    2     -3.87      0.00
  -11   15    2     -2.80      0.00
   -9   15    2     -1.40      0.00
   -7   15    2      2.75      0.00
   -5   15    2     -0.50      0.00
   -3   15    2    -12.88      0.00
   -1   15    2     -9.32      0.00
    1   15    2     -5.85      0.00
    3   15    2     -1.48      0.00
    5   15    2      4.64      0.00
    7   15    2      4.10      0.00
    9   15    2     -4.13      0.00
   11   15    2     -2.91      0.00
   13   15    2     -6.96      0.00
   15   15    2     -0.62      0.00
   17   15    2     -1.23      0.00
   19   15    2    -12.45      0.00
   21   15    2    -10.73      0.00
   23   15    2      4.25      0.00
   25   15    2     -9.62      0.00
   27   15    2      0.72      0.00
  -28   16    2      1.61      0.00
  -26   16    2     -4.68      0.00
  -24   16    2      7.71      0.00
  -22   16    2      8.00      0.00
  -20   16    2     -1.08      0.00
  -18   16    2      8.11      0.00
  -16   16    2     -3.69      0.00
  -14   16    2      2.08      0.00
  -12   16    2     -3.53      0.00
  -10   16    2      4.35      0.00
   -8   16    2     -9.82      0.00
   -6   16    2     -2.98      0.00
   -4   16    2      7.15      0.00
   -2   16    2     -2.00      0.00
    0   16    2     -9.27      0.00
    2   16    2      6.54      0.00
    4   16    2      0.44      0.00
    6   16    2     -9.70      0.00
    8   16    2      1.50      0.00
   10   16    2     -1.80      0.00
   12   16    2     -3.61      0.00
   14   16    2      0.88      0.00
   16   16    2     -1.66      0.00
   18   16    2      2.23      0.00
   20   16    2     -8.35      0.00
   22   16    2     -1.11      0.00
   24   16    2      5.59      0.00
   26   16    2     -5.54      0.00
  -27   17    2      2.43      0.00
  -25   17    2     -3.97      0.00
  -23   17    2     -2.18      0.00
  -21   17    2     -1.48      0.00
  -19   17    2     -4.70      0.00
  -17   17    2     -3.66      0.00
  -15   17    2     -2.21      0.00
  -13   17    2      8.88      0.00
  -11   17    2    -10.09      0.00
   -9   17    2     -0.16      0.00
   -7   17    2     17.21      0.00
   -5   17    2      8.34      0.00
   -3   17    2     -7.16      0.00
   -1   17    2     -1.68      0.00
    1   17    2      1.40      0.00
    3   17    2      3.87      0.00
    5   17    2     -3.86      0.00
    7   17    2      6.95      0.00
    9   17    2     -8.28      0.00
   11   17    2     -0.36      0.00
   13   17    2    -10.94      0.00
   15   17    2      2.70      0.00
   17   17    2      5.65      0.00
   19   17    2      1.59      0.00
   21   17    2      7.30      0.00
   23   17    2      0.65      0.00
   25   17    2      6.51      0.00
  -24   18    2      3.65      0.00
  -22   18    2     -6.68      0.00
  -20   18    2    -11.85      0.00
  -18   18    2      1.40      0.00
  -16   18    2      6.64      0.00
  -14   18    2      4.82      0.00
  -12   18    2     -1.54      0.00
  -10   18    2     -3.90      0.00
   -8   18    2     -0.96      0.00
   -6   18    2     -1.25      0.00
   -4   18    2     -3.08      0.00
   -2   18    2      6.35      0.00
    0   18    2      4.82      0.00
    2   18    2     -6.58      0.00
    4   18    2     12.41      0.00
    6   18    2     10.94      0.00
    8   18    2      7.34      0.00
   10   18    2     -3.57      0.00
   12   18    2     -0.82      0.00
   14   18    2     -2.97      0.00
   16   18    2      1.11      0.00
   18   18    2     -3.11      0.00
   20   18    2      4.46      0.00
   22   18    2     -7.96      0.00
  -21   19    2     -7.64      0.00
  -19   19    2     -3.36      0.00
  -17   19    2     -4.42      0.00
  -15   19    2      0.44      0.00
  -13   19    2     -6.39      0.00
  -11   19    2     -0.78      0.00
   -9   19    2      1.00      0.00
   -7   19    2     -1.01      0.00
   -5   19    2    -12.13      0.00
   -3   19    2     -1.63      0.00
   -1   19    2     -1.64      0.00
    1   19    2     -5.02      0.00
    3   19    2     -4.31      0.00
    5   19    2     -2.19      0.00
    7   19    2      9.36      0.00
    9   19    2      3.76      0.00
   11   19    2    -10.93      0.00
   13   19    2     -1.78      0.00
   15   19    2      2.24      0.00
   17   19    2     11.20      0.00
   19   19    2      1.26      0.00
   21   19    2      1.97      0.00
  -18   20    2     -6.97      0.00
  -16   20    2     -0.70      0.00
  -14   20    2     -5.30      0.00
  -12   20    2     -7.23      0.00
  -10   20    2    -12.34      0.00
   -8   20    2      1.74      0.00
   -6   20    2      1.93      0.00
   -4   20    2      0.01      0.00
   -2   20    2     -2.10      0.00
    0   20    2     -3.36      0.00
    2   20    2      5.10      0.00
    4   20    2     -4.50      0.00
    6   20    2     -2.38      0.00
    8   20    2     -3.06      0.00
   10   20    2     -0.68      0.00
   12   20    2     -6.66      0.00
   14   20    2     -4.50      0.00
   16   20    2      5.18      0.00
  -13   21    2     -1.78      0.00
  -11   21    2      3.10      0.00
   -9   21    2      4.74      0.00
   -7   21    2     -7.27      0.00
   -5   21    2      1.81      0.00
   -3   21    2     -2.49      0.00
   -1   21    2      1.83      0.00
    1   21    2     -0.15      0.00
    3   21    2     -5.19      0.00
    5   21    2      6.74      0.00
    7   21    2      4.95      0.00
    9   21    2      7.87      0.00
   11   21    2      0.32      0.00
   -6   22    2     -7.58      0.00
   -4   22    2     -5.62      0.00
   -2   22    2      1.91      0.00
  -41    1    3     18.91      0.00
  -39    1    3     -7.46      0.00
  -37    1    3     -5.58      0.00
  -35    1    3      5.40      0.00
  -33    1    3     -3.30      0.00
  -31    1    3     -1.24      0.00
  -29    1    3      0.04      0.00
  -27    1    3      1.35      0.00
  -25    1    3     -2.87      0.00
  -23    1    3      2.37      0.00
  -21    1    3    -10.15      0.00
  -19    1    3     -8.16      0.00
  -17    1    3      2.08      0.00
  -15    1    3    -14.94      0.00
  -13    1    3      2.40      0.00
  -11    1    3     -0.99      0.00
   -9    1    3      5.00      0.00
   -7    1    3    -66.35      0.00
   -5    1    3     62.68      0.00
   -3    1    3   -150.15      0.00
   -1    1    3     -3.23      0.00
    1    1    3     12.95      0.00
    3    1    3    -53.89      0.00
    5    1    3     10.78      0.00
    7    1    3    -13.35      0.00
    9    1    3      3.70      0.00
   11    1    3    -12.60      0.00
   13    1    3     -5.04      0.00
   15    1    3     -7.24      0.00
   17    1    3      2.49      0.00
   19    1    3     -1.26      0.00
   21    1    3     -2.96      0.00
   23    1    3      1.89      0.00
   25    1    3      3.16      0.00
   27    1    3     -2.27      0.00
   29    1    3     -2.42      0.00
   31    1    3      2.89      0.00
   33    1    3      4.21      0.00
   35    1    3    -17.67      0.00
   37    1    3     -7.01      0.00
  -40    2    3      5.12      0.00
  -38    2    3      1.95      0.00
  -36    2    3     -5.74      0.00
  -34    2    3     -2.67      0.00
  -32    2    3     12.02      0.00
  -30    2    3      3.65      0.00
  -28    2    3     -6.19      0.00
  -26    2    3     -1.85      0.00
  -24    2    3     -8.13      0.00
  -22    2    3     -8.03      0.00
  -20    2    3      7.76      0.00
  -18    2    3     -7.34      0.00
  -16    2    3     -4.20      0.00
  -14    2    3     16.67      0.00
  -12    2    3    -11.23      0.00
  -10    2    3    -34.50      0.00
   -8    2    3    -25.83      0.00
   -6    2    3   -105.55      0.00
   -4    2    3   -130.45      0.00
   -2    2    3     90.53      0.00
    0    2    3    -92.31      0.00
    2    2    3     76.89      0.00
    4    2    3     -2.16      0.00
    6    2    3     12.26      0.00
    8    2    3    -24.58      0.00
   10    2    3      9.56      0.00
   12    2    3      9.88      0.00
   14    2    3     -8.73      0.00
   16    2    3      4.92      0.00
   18    2    3     -5.06      0.00
   20    2    3     -0.98      0.00
   22    2    3      5.04      0.00
   24    2    3      6.28      0.00
   26    2    3     -5.29      0.00
   28    2    3      9.28      0.00
   30    2    3      0.54      0.00
   32    2    3     -7.61      0.00
   34    2    3      9.11      0.00
   36    2    3     -0.53      0.00
   38    2    3      6.83      0.00
  -39    3    3    -10.63      0.00
  -37    3    3     -3.80      0.00
  -35    3    3     -4.81      0.00
  -33    3    3     -4.83      0.00
  -31    3    3     -0.41      0.00
  -29    3    3      2.52      0.00
  -27    3    3    -10.30      0.00
  -25    3    3     -2.05      0.00
  -23    3    3      3.04      0.00
  -21    3    3     -8.38      0.00
  -19    3    3    -12.09      0.00
  -17    3    3     10.72      0.00
  -15    3    3     -5.92      0.00
  -13    3    3     -4.72      0.00
  -11    3    3     22.34      0.00
   -9    3    3    -82.60      0.00
   -7    3    3    -41.16      0.00
   -5    3    3    -46.72      0.00
   -3    3    3     62.98      0.00
   -1    3    3     17.55      0.00
    1    3    3    -23.32      0.00
    3    3    3     11.07      0.00
    5    3    3      1.93      0.00
    7    3    3     44.08      0.00
    9    3    3     -5.84      0.00
   11    3    3      1.40      0.00
   13    3    3    -14.30      0.00
   15    3    3    -13.38      0.00
   17    3    3     -3.28      0.00
   19    3    3     -3.42      0.00
   21    3    3     -9.26      0.00
   23    3    3      3.50      0.00
   25    3    3      0.45      0.00
   27    3    3     -2.48      0.00
   29    3    3      4.14      0.00
   31    3    3      0.67      0.00
   33    3    3     -5.83      0.00
   35    3    3     -2.31      0.00
   37    3    3    -13.04      0.00
  -40    4    3     -6.27      0.00
  -38    4    3     -7.86      0.00
  -36    4    3     -4.06      0.00
  -34    4    3      5.67      0.00
  -32    4    3      6.90      0.00
  -30    4    3     -3.08      0.00
  -28    4    3      0.40      0.00
  -26    4    3      4.44      0.00
  -24    4    3     -0.63      0.00
  -22    4    3      6.35      0.00
  -20    4    3      3.66      0.00
  -18    4    3     15.73      0.00
  -16    4    3      4.09      0.00
  -14    4    3     12.12      0.00
  -12    4    3     23.41      0.00
  -10    4    3     -8.21      0.00
   -8    4    3    -17.52      0.00
   -6    4    3     -4.16      0.00
   -4    4    3     27.00      0.00
   -2    4    3    -42.75      0.00
    0    4    3     -8.08      0.00
    2    4    3   -113.99      0.00
    4    4    3    -43.51      0.00
    6    4    3    -17.74      0.00
    8    4    3     -6.83      0.00
   10    4    3      5.67      0.00
   12    4    3      2.21      0.00
   14    4    3     14.77      0.00
   16    4    3      3.82      0.00
   18    4    3      1.66      0.00
   20    4    3     -4.66      0.00
   22    4    3      4.73      0.00
   24    4    3      0.18      0.00
   26    4    3      1.53      0.00
   28    4    3      3.57      0.00
   30    4    3      0.82      0.00
   32    4    3     -6.00      0.00
   34    4    3      0.20      0.00
   36    4    3    -10.66      0.00
   38    4    3      3.55      0.00
  -39    5    3     -4.10      0.00
  -37    5    3      3.67      0.00
  -35    5    3      8.07      0.00
  -33    5    3      6.00      0.00
  -31    5    3     11.04      0.00
  -29    5    3      1.75      0.00
  -27    5    3     -0.02      0.00
  -25    5    3      3.85      0.00
  -23    5    3      1.88      0.00
  -21    5    3      1.92      0.00
  -19    5    3     -5.71      0.00
  -17    5    3    -14.23      0.00
  -15    5    3      4.83      0.00
  -13    5    3      4.43      0.00
  -11    5    3     -3.93      0.00
   -9    5    3     10.44      0.00
   -7    5    3     27.46      0.00
   -5    5    3    -41.74      0.00
   -3    5    3     90.51      0.00
   -1    5    3     72.34      0.00
    1    5    3     10.47      0.00
    3    5    3     29.20      0.00
    5    5    3     -2.48      0.00
    7    5    3      2.38      0.00
    9    5    3     22.88      0.00
   11    5    3     13.03      0.00
   13    5    3    -14.50      0.00
   15    5    3     -9.50      0.00
   17    5    3      4.73      0.00
   19    5    3     -7.14      0.00
   21    5    3      7.40      0.00
   23    5    3      3.67      0.00
   25    5    3      5.98      0.00
   27    5    3      0.14      0.00
   29    5    3      6.82      0.00
   31    5    3    -11.48      0.00
   33    5    3    -10.38      0.00
   35    5    3      2.04      0.00
   37    5    3     -2.44      0.00
  -38    6    3    -15.23      0.00
  -36    6    3      4.48      0.00
  -34    6    3     -1.39      0.00
  -32    6    3      2.80      0.00
  -30    6    3      3.26      0.00
  -28    6    3     -1.25      0.00
  -26    6    3     -2.05      0.00
  -24    6    3      1.89      0.00
  -22    6    3     -4.22      0.00
  -20    6    3      6.63      0.00
  -18    6    3     17.75      0.00
  -16    6    3      3.70      0.00
  -14    6    3    -10.01      0.00
  -12    6    3      7.00      0.00
  -10    6    3    -24.45      0.00
   -8    6    3    -22.18      0.00
   -6    6    3     17.99      0.00
   -4    6    3     -9.16      0.00
   -2    6    3     -4.23      0.00
    0    6    3    -27.16      0.00
    2    6    3      1.68      0.00
    4    6    3     24.70      0.00
    6    6    3     32.39      0.00
    8    6    3     17.19      0.00
   10    6    3     -0.97      0.00
   12    6    3      4.00      0.00
   14    6    3      8.28      0.00
   16    6    3     14.15      0.00
   18    6    3     -0.27      0.00
   20    6    3     -6.47      0.00
   22    6    3     -1.29      0.00
   24    6    3      4.61      0.00
   26    6    3     -4.05      0.00
   28    6    3      2.64      0.00
   30    6    3     -7.18      0.00
   32    6    3     -3.49      0.00
   34    6    3     -1.27      0.00
   36    6    3    -20.14      0.00
  -39    7    3     11.88      0.00
  -37    7    3     -2.11      0.00
  -35    7    3     -6.72      0.00
  -33    7    3      2.07      0.00
  -31    7    3     -4.46      0.00
  -29    7    3      0.71      0.00
  -27    7    3      2.87      0.00
  -25    7    3      0.88      0.00
  -23    7    3     -2.26      0.00
  -21    7    3     -3.16      0.00
  -19    7    3     -2.66      0.00
  -17    7    3      1.05      0.00
  -15    7    3     -7.08      0.00
  -13    7    3    -12.18      0.00
  -11    7    3    -11.07      0.00
   -9    7    3     -0.77      0.00
   -7    7    3     -7.47      0.00
   -5    7    3     13.92      0.00
   -3    7    3    -25.40      0.00
   -1    7    3     12.90      0.00
    1    7    3     -5.12      0.00
    3    7    3    -26.11      0.00
    5    7    3      1.66      0.00
    7    7    3      8.34      0.00
    9    7    3     -6.58      0.00
   11    7    3     10.34      0.00
   13    7    3    -10.20      0.00
   15    7    3     -0.98      0.00
   17    7    3      0.04      0.00
   19    7    3     10.21      0.00
   21    7    3      3.50      0.00
   23    7    3      4.53      0.00
   25    7    3      9.53      0.00
   27    7    3     10.33      0.00
   29    7    3      2.59      0.00
   31    7    3     -0.66      0.00
   33    7    3     -1.30      0.00
   35    7    3     12.08      0.00
   37    7    3     -5.56      0.00
  -38    8    3      1.26      0.00
  -36    8    3     -2.25      0.00
  -34    8    3      5.58      0.00
  -32    8    3     -7.56      0.00
  -30    8    3     -6.81      0.00
  -28    8    3      3.20      0.00
  -26    8    3      5.38      0.00
  -24    8    3     -3.84      0.00
  -22    8    3      5.49      0.00
  -20    8    3      0.07      0.00
  -18    8    3     -2.46      0.00
  -16    8    3    -13.85      0.00
  -14    8    3    -13.89      0.00
  -12    8    3    -13.81      0.00
  -10    8    3    -17.25      0.00
   -8    8    3     21.78      0.00
   -6    8    3    -19.34      0.00
   -4    8    3      6.66      0.00
   -2    8    3      2.93      0.00
    0    8    3     30.34      0.00
    2    8    3    -11.60      0.00
    4    8    3     19.10      0.00
    6    8    3    -25.28      0.00
    8    8    3     -6.47      0.00
   10    8    3     30.92      0.00
   12    8    3     -6.95      0.00
   14    8    3     16.31      0.00
   16    8    3      9.75      0.00
   18    8    3     -1.55      0.00
   20    8    3     -2.47      0.00
   22    8    3      3.26      0.00
   24    8    3      2.66      0.00
   26    8    3      5.78      0.00
   28    8    3      1.93      0.00
   30    8    3      2.72      0.00
   32    8    3     -3.96      0.00
   34    8    3      4.82      0.00
   36    8    3      7.00      0.00
  -37    9    3     -1.78      0.00
  -35    9    3     -2.73      0.00
  -33    9    3     -0.42      0.00
  -31    9    3     -5.07      0.00
  -29    9    3      3.29      0.00
  -27    9    3      2.77      0.00
  -25    9    3     -0.50      0.00
  -23    9    3     -7.91      0.00
  -21    9    3     -4.06      0.00
  -19    9    3     -2.35      0.00
  -17    9    3     -6.40      0.00
  -15    9    3      0.08      0.00
  -13    9    3      1.54      0.00
  -11    9    3     13.14      0.00
   -9    9    3     -6.83      0.00
   -7    9    3      2.69      0.00
   -5    9    3     19.55      0.00
   -3    9    3      2.48      0.00
   -1    9    3     -6.10      0.00
    1    9    3    -15.95      0.00
    3    9    3     -4.82      0.00
    5    9    3    -14.51      0.00
    7    9    3      9.37      0.00
    9    9    3      3.93      0.00
   11    9    3    -11.11      0.00
   13    9    3     18.13      0.00
   15    9    3     -8.50      0.00
   17    9    3     -8.44      0.00
   19    9    3      5.08      0.00
   21    9    3     -0.61      0.00
   23    9    3      5.38      0.00
   25    9    3     -2.97      0.00
   27    9    3     -2.94      0.00
   29    9    3    -10.76      0.00
   31    9    3      0.26      0.00
   33    9    3     -5.77      0.00
   35    9    3     -6.19      0.00
  -36   10    3      0.95      0.00
  -34   10    3      6.28      0.00
  -32   10    3    -11.15      0.00
  -30   10    3     -0.37      0.00
  -28   10    3      6.01      0.00
  -26   10    3      1.14      0.00
  -24   10    3     -3.54      0.00
  -22   10    3     -3.93      0.00
  -20   10    3      0.88      0.00
  -18   10    3     -3.27      0.00
  -16   10    3     -2.21      0.00
  -14   10    3     -1.80      0.00
  -12   10    3     -8.95      0.00
  -10   10    3     12.10      0.00
   -8   10    3      2.51      0.00
   -6   10    3      5.09      0.00
   -4   10    3    -16.21      0.00
   -2   10    3     -0.18      0.00
    0   10    3     25.49      0.00
    2   10    3      5.66      0.00
    4   10    3      2.59      0.00
    6   10    3     -0.77      0.00
    8   10    3      1.11      0.00
   10   10    3      8.40      0.00
   12   10    3      5.62      0.00
   14   10    3     -1.83      0.00
   16   10    3      4.20      0.00
   18   10    3     -0.12      0.00
   20   10    3      3.01      0.00
   22   10    3     -0.24      0.00
   24   10    3      0.23      0.00
   26   10    3      7.58      0.00
   28   10    3    -11.39      0.00
   30   10    3     -0.44      0.00
   32   10    3      4.54      0.00
   34   10    3     10.04      0.00
  -35   11    3    -14.58      0.00
  -33   11    3      5.14      0.00
  -31   11    3     14.06      0.00
  -29   11    3     -2.73      0.00
  -27   11    3      0.97      0.00
  -25   11    3      0.21      0.00
  -23   11    3     -5.63      0.00
  -21   11    3     -2.36      0.00
  -19   11    3     -6.01      0.00
  -17   11    3     -2.18      0.00
  -15   11    3     -3.02      0.00
  -13   11    3      4.91      0.00
  -11   11    3      4.15      0.00
   -9   11    3      7.51      0.00
   -7   11    3    -12.48      0.00
   -5   11    3     20.20      0.00
   -3   11    3     -3.55      0.00
   -1   11    3     -1.86      0.00
    1   11    3    -14.04      0.00
    3   11    3     -4.17      0.00
    5   11    3     -5.26      0.00
    7   11    3     -9.15      0.00
    9   11    3     14.02      0.00
   11   11    3     -1.13      0.00
   13   11    3      0.85      0.00
   15   11    3      5.07      0.00
   17   11    3      2.55      0.00
   19   11    3      4.58      0.00
   21   11    3      3.28      0.00
   23   11    3     -2.34      0.00
   25   11    3     -6.51      0.00
   27   11    3     -3.40      0.00
   29   11    3     -5.56      0.00
   31   11    3     -4.84      0.00
   33   11    3     -0.16      0.00
  -34   12    3     16.52      0.00
  -32   12    3     -1.85      0.00
  -30   12    3     -7.64      0.00
  -28   12    3     -1.54      0.00
  -26   12    3     -4.36      0.00
  -24   12    3     -2.38      0.00
  -22   12    3     -2.45      0.00
  -20   12    3      5.36      0.00
  -18   12    3     -2.58      0.00
  -16   12    3      1.56      0.00
  -14   12    3      1.20      0.00
  -12   12    3      0.69      0.00
  -10   12    3     -0.68      0.00
   -8   12    3     -6.45      0.00
   -6   12    3     -7.81      0.00
   -4   12    3     -0.98      0.00
   -2   12    3    -16.26      0.00
    0   12    3     13.11      0.00
    2   12    3    -10.66      0.00
    4   12    3      6.78      0.00
    6   12    3      5.66      0.00
    8   12    3     -3.00      0.00
   10   12    3     -9.11      0.00
   12   12    3      1.62      0.00
   14   12    3      9.47      0.00
   16   12    3     -8.61      0.00
   18   12    3     -0.75      0.00
   20   12    3     -4.98      0.00
   22   12    3    -13.09      0.00
   24   12    3     -0.33      0.00
   26   12    3      5.22      0.00
   28   12    3     -7.52      0.00
   30   12    3     -3.62      0.00
   32   12    3      3.75      0.00
  -33   13    3      6.16      0.00
  -31   13    3      2.54      0.00
  -29   13    3     -9.19      0.00
  -27   13    3      4.87      0.00
  -25   13    3      2.68      0.00
  -23   13    3      4.79      0.00
  -21   13    3    -14.55      0.00
  -19   13    3     -7.03      0.00
  -17   13    3      0.89      0.00
  -15   13    3      6.53      0.00
  -13   13    3      2.87      0.00
  -11   13    3      0.03      0.00
   -9   13    3     -3.72      0.00
   -7   13    3      1.61      0.00
   -5   13    3      6.85      0.00
   -3   13    3     -0.31      0.00
   -1   13    3     -2.77      0.00
    1   13    3     -6.57      0.00
    3   13    3      2.26      0.00
    5   13    3      7.76      0.00
    7   13    3      9.62      0.00
    9   13    3      4.29      0.00
   11   13    3     -7.62      0.00
   13   13    3     -2.36      0.00
   15   13    3     -1.79      0.00
   17   13    3     -0.95      0.00
   19   13    3     -0.85      0.00
   21   13    3      6.43      0.00
   23   13    3     10.70      0.00
   25   13    3     -4.39      0.00
   27   13    3      0.86      0.00
   29   13    3      0.40      0.00
  -32   14    3     11.33      0.00
  -30   14    3     -7.05      0.00
  -28   14    3     -2.84      0.00
  -26   14    3      8.03      0.00
  -24   14    3      0.51      0.00
  -22   14    3      2.95      0.00
  -20   14    3     -3.79      0.00
  -18   14    3      1.70      0.00
  -16   14    3     -1.87      0.00
  -14   14    3     -4.74      0.00
  -12   14    3      9.86      0.00
  -10   14    3      9.35      0.00
   -8   14    3      3.49      0.00
   -6   14    3    -13.13      0.00
   -4   14    3     -6.13      0.00
   -2   14    3     -2.51      0.00
    0   14    3      6.11      0.00
    2   14    3     12.00      0.00
    4   14    3     -1.36      0.00
    6   14    3     -7.35      0.00
    8   14    3     -3.14      0.00
   10   14    3     -0.62      0.00
   12   14    3      1.92      0.00
   14   14    3     -3.15      0.00
   16   14    3     -1.51      0.00
   18   14    3     -2.14      0.00
   20   14    3     -5.65      0.00
   22   14    3      7.96      0.00
   24   14    3     -6.28      0.00
   26   14    3      1.56      0.00
   28   14    3     -2.69      0.00
  -29   15    3      4.46      0.00
  -27   15    3     -3.51      0.00
  -25   15    3     -5.12      0.00
  -23   15    3      0.37      0.00
  -21   15    3     -0.42      0.00
  -19   15    3     13.83      0.00
  -17   15    3     -3.84      0.00
  -15   15    3      5.87      0.00
  -13   15    3    -12.35      0.00
  -11   15    3     -6.12      0.00
   -9   15    3      9.87      0.00
   -7   15    3      3.94      0.00
   -5   15    3      7.47      0.00
   -3   15    3     -6.60      0.00
   -1   15    3     -4.75      0.00
    1   15    3     -8.54      0.00
    3   15    3      2.91      0.00
    5   15    3     -6.36      0.00
    7   15    3      5.72      0.00
    9   15    3     -7.24      0.00
   11   15    3     -2.94      0.00
   13   15    3      1.97      0.00
   15   15    3     15.94      0.00
   17   15    3      6.49      0.00
   19   15    3      0.48      0.00
   21   15    3      1.72      0.00
   23   15    3      8.11      0.00
   25   15    3      4.02      0.00
   27   15    3     -7.36      0.00
  -28   16    3     -2.75      0.00
  -26   16    3      2.16      0.00
  -24   16    3      3.10      0.00
  -22   16    3     -1.06      0.00
  -20   16    3     -1.79      0.00
  -18   16    3      7.23      0.00
  -16   16    3     -5.84      0.00
  -14   16    3      5.55      0.00
  -12   16    3      5.76      0.00
  -10   16    3      4.08      0.00
   -8   16    3     -5.07      0.00
   -6   16    3     -3.63      0.00
   -4   16    3      7.94      0.00
   -2   16    3      0.66      0.00
    0   16    3      0.17      0.00
    2   16    3      8.77      0.00
    4   16    3      3.79      0.00
    6   16    3     -1.80      0.00
    8   16    3      0.02      0.00
   10   16    3      6.87      0.00
   12   16    3     -7.74      0.00
   14   16    3     -2.80      0.00
   16   16    3     -2.65      0.00
   18   16    3     10.09      0.00
   20   16    3     11.22      0.00
   22   16    3     11.29      0.00
   24   16    3      7.70      0.00
   26   16    3      4.36      0.00
  -27   17    3      1.95      0.00
  -25   17    3    -12.67      0.00
  -23   17    3    -15.55      0.00
  -21   17    3     -5.38      0.00
  -19   17    3      1.46      0.00
  -17   17    3      7.39      0.00
  -15   17    3     -3.28      0.00
  -13   17    3     -1.39      0.00
  -11   17    3     -1.63      0.00
   -9   17    3     -3.03      0.00
   -7   17    3     -9.95      0.00
   -5   17    3    -13.97      0.00
   -3   17    3      0.69      0.00
   -1   17    3      1.97      0.00
    1   17    3    -13.59      0.00
    3   17    3     -1.00      0.00
    5   17    3     12.67      0.00
    7   17    3      4.25      0.00
    9   17    3     -1.57      0.00
   11   17    3      2.53      0.00
   13   17    3     -2.18      0.00
   15   17    3     -1.02      0.00
   17   17    3     -0.95      0.00
   19   17    3      4.80      0.00
   21   17    3      2.22      0.00
   23   17    3      2.30      0.00
   25   17    3      3.64      0.00
  -24   18    3      0.86      0.00
  -22   18    3      5.76      0.00
  -20   18    3     -1.48      0.00
  -18   18    3      0.00      0.00
  -16   18    3     -4.30      0.00
  -14   18    3     -4.52      0.00
  -12   18    3      5.36      0.00
  -10   18    3     -0.84      0.00
   -8   18    3    -18.04      0.00
   -6   18    3    -11.09      0.00
   -4   18    3      6.02      0.00
   -2   18    3      5.33      0.00
    0   18    3      0.17      0.00
    2   18    3     -7.22      0.00
    4   18    3      1.75      0.00
    6   18    3      2.04      0.00
    8   18    3     -7.25      0.00
   10   18    3     -2.77      0.00
   12   18    3      1.00      0.00
   14   18    3     -1.10      0.00
   16   18    3      6.16      0.00
   18   18    3      3.97      0.00
   20   18    3      4.74      0.00
   22   18    3      7.23      0.00
  -21   19    3     -8.97      0.00
  -19   19    3      0.50      0.00
  -17   19    3     -2.81      0.00
  -15   19    3     -4.29      0.00
  -13   19    3    -10.28      0.00
  -11   19    3     -5.29      0.00
   -9   19    3    -11.49      0.00
   -7   19    3     -7.99      0.00
   -5   19    3      4.69      0.00
   -3   19    3      7.90      0.00
   -1   19    3      0.29      0.00
    1   19    3      7.42      0.00
    3   19    3     -5.76      0.00
    5   19    3     -0.53      0.00
    7   19    3     -2.80      0.00
    9   19    3     -1.45      0.00
   11   19    3      9.85      0.00
   13   19    3      5.49      0.00
   15   19    3      0.58      0.00
   17   19    3      0.99      0.00
   19   19    3      1.04      0.00
  -18   20    3     -8.13      0.00
  -16   20    3     -6.27      0.00
  -14   20    3     -1.45      0.00
  -12   20    3      1.50      0.00
  -10   20    3      5.05      0.00
   -8   20    3     -2.69      0.00
   -6   20    3     -2.16      0.00
   -4   20    3      5.74      0.00
   -2   20    3      3.75      0.00
    0   20    3     -1.40      0.00
    2   20    3      3.76      0.00
    4   20    3     13.38      0.00
    6   20    3      0.91      0.00
    8   20    3     -3.22      0.00
   10   20    3      3.02      0.00
   12   20    3     -3.14      0.00
   14   20    3    -10.65      0.00
   16   20    3     -2.51      0.00
  -15   21    3      3.06      0.00
  -13   21    3      7.21      0.00
  -11   21    3     14.02      0.00
   -9   21    3     -9.85      0.00
   -7   21    3      2.06      0.00
   -5   21    3     -4.41      0.00
   -3   21    3      6.31      0.00
   -1   21    3      3.38      0.00
    1   21    3      1.05      0.00
    3   21    3     -6.40      0.00
    5   21    3      7.15      0.00
    7   21    3      7.05      0.00
    9   21    3      2.27      0.00
   11   21    3      4.36      0.00
   -6   22    3      1.91      0.00
   -4   22    3     -0.76      0.00
   -2   22    3     -0.92      0.00
    0   22    3      2.80      0.00
  -40    0    4    -24.84      0.00
  -38    0    4      3.91      0.00
  -36    0    4      6.66      0.00
  -34    0    4     -2.93      0.00
  -32    0    4     -2.27      0.00
  -30    0    4     -3.94      0.00
  -28    0    4      4.75      0.00
  -26    0    4     -9.68      0.00
  -24    0    4      4.50      0.00
  -22    0    4      1.08      0.00
  -20    0    4    -19.28      0.00
  -18    0    4     -3.29      0.00
  -16    0    4     16.06      0.00
  -14    0    4    -42.48      0.00
  -12    0    4    -41.95      0.00
  -10    0    4    -25.04      0.00
   -8    0    4   -134.55      0.00
   -6    0    4     30.85      0.00
   -4    0    4    134.73      0.00
   -2    0    4    -54.16      0.00
    0    0    4    131.65      0.00
    2    0    4     32.40      0.00
    4    0    4     55.38      0.00
    6    0    4     29.44      0.00
    8    0    4     -9.30      0.00
   10    0    4    -41.68      0.00
   12    0    4    -31.61      0.00
   14    0    4      7.25      0.00
   16    0    4    -10.26      0.00
   18    0    4     15.30      0.00
   20    0    4      3.96      0.00
   22    0    4      4.38      0.00
   24    0    4     -2.52      0.00
   26    0    4    -15.07      0.00
   28    0    4     -4.77      0.00
   30    0    4     -6.89      0.00
   32    0    4      6.18      0.00
   34    0    4    -16.01      0.00
   36    0    4     25.44      0.00
  -41    1    4     26.26      0.00
  -39    1    4      3.58      0.00
  -37    1    4     -0.44      0.00
  -35    1    4     10.88      0.00
  -33    1    4     -0.80      0.00
  -31    1    4     -4.15      0.00
  -29    1    4     -5.32      0.00
  -27    1    4     -0.37      0.00
  -25    1    4      3.17      0.00
  -23    1    4     -5.49      0.00
  -21    1    4      9.63      0.00
  -19    1    4      3.11      0.00
  -17    1    4     -3.00      0.00
  -15    1    4     -1.47      0.00
  -13    1    4     19.64      0.00
  -11    1    4    -11.82      0.00
   -9    1    4    -14.28      0.00
   -7    1    4     41.86      0.00
   -5    1    4    -53.42      0.00
   -3    1    4     44.27      0.00
   -1    1    4    -14.87      0.00
    1    1    4    129.02      0.00
    3    1    4    -63.69      0.00
    5    1    4     -1.98      0.00
    7    1    4      7.95      0.00
    9    1    4     -1.00      0.00
   11    1    4     31.00      0.00
   13    1    4     -4.14      0.00
   15    1    4     -5.25      0.00
   17    1    4     -2.84      0.00
   19    1    4     -0.33      0.00
   21    1    4      9.51      0.00
   23    1    4      7.96      0.00
   25    1    4     -0.32      0.00
   27    1    4      0.93      0.00
   29    1    4      2.67      0.00
   31    1    4     -5.09      0.00
   33    1    4     11.91      0.00
   35    1    4      7.57      0.00
   37    1    4     12.56      0.00
  -40    2    4     -0.84      0.00
  -38    2    4     -0.26      0.00
  -36    2    4      6.33      0.00
  -34    2    4      8.25      0.00
  -32    2    4      4.95      0.00
  -30    2    4      5.50      0.00
  -28    2    4     -0.13      0.00
  -26    2    4     -6.87      0.00
  -24    2    4     -1.74      0.00
  -22    2    4     -5.99      0.00
  -20    2    4    -10.11      0.00
  -18    2    4     -7.96      0.00
  -16    2    4      8.74      0.00
  -14    2    4     -4.14      0.00
  -12    2    4     -1.27      0.00
  -10    2    4      7.22      0.00
   -8    2    4     17.53      0.00
   -6    2    4      7.42      0.00
   -4    2    4     29.39      0.00
   -2    2    4    -83.89      0.00
    0    2    4   -185.87      0.00
    2    2    4     94.89      0.00
    4    2    4     92.55      0.00
    6    2    4     46.20      0.00
    8    2    4      1.23      0.00
   10    2    4    -15.85      0.00
   12    2    4      3.28      0.00
   14    2    4      1.66      0.00
   16    2    4      8.20      0.00
   18    2    4      9.05      0.00
   20    2    4      0.11      0.00
   22    2    4      0.98      0.00
   24    2    4     -2.81      0.00
   26    2    4      0.11      0.00
   28    2    4     -5.01      0.00
   30    2    4     -0.43      0.00
   32    2    4     -6.41      0.00
   34    2    4      9.00      0.00
   36    2    4     21.50      0.00
   38    2    4      1.45      0.00
  -41    3    4      5.58      0.00
  -39    3    4     28.96      0.00
  -37    3    4      3.90      0.00
  -35    3    4     -1.77      0.00
  -33    3    4     -2.39      0.00
  -31    3    4     -7.73      0.00
  -29    3    4     -1.71      0.00
  -27    3    4      5.18      0.00
  -25    3    4      2.21      0.00
  -23    3    4      9.28      0.00
  -21    3    4      6.55      0.00
  -19    3    4      0.39      0.00
  -17    3    4     18.08      0.00
  -15    3    4      1.72      0.00
  -13    3    4     12.39      0.00
  -11    3    4      5.70      0.00
   -9    3    4    -22.60      0.00
   -7    3    4      4.59      0.00
   -5    3    4     96.76      0.00
   -3    3    4    148.97      0.00
   -1    3    4    -49.69      0.00
    1    3    4     32.61      0.00
    3    3    4   -120.26      0.00
    5    3    4     12.13      0.00
    7    3    4      5.71      0.00
    9    3    4      8.32      0.00
   11    3    4      4.94      0.00
   13    3    4      7.31      0.00
   15    3    4    -15.00      0.00
   17    3    4    -10.09      0.00
   19    3    4      4.62      0.00
   21    3    4      3.64      0.00
   23    3    4      5.16      0.00
   25    3    4      2.08      0.00
   27    3    4     -1.34      0.00
   29    3    4      4.31      0.00
   31    3    4     -8.40      0.00
   33    3    4     10.63      0.00
   35    3    4    -15.23      0.00
   37    3    4     20.04      0.00
  -40    4    4     10.82      0.00
  -38    4    4    -12.26      0.00
  -36    4    4      5.93      0.00
  -34    4    4     18.25      0.00
  -32    4    4     -3.00      0.00
  -30    4    4      0.85      0.00
  -28    4    4     -2.54      0.00
  -26    4    4      6.73      0.00
  -24    4    4      1.89      0.00
  -22    4    4     -1.15      0.00
  -20    4    4      8.35      0.00
  -18    4    4      0.37      0.00
  -16    4    4     -7.14      0.00
  -14    4    4     11.39      0.00
  -12    4    4    -14.02      0.00
  -10    4    4     33.97      0.00
   -8    4    4     33.18      0.00
   -6    4    4    -13.49      0.00
   -4    4    4    -11.83      0.00
   -2    4    4   -119.81      0.00
    0    4    4     15.06      0.00
    2    4    4     36.91      0.00
    4    4    4     22.13      0.00
    6    4    4    -19.35      0.00
    8    4    4     -3.50      0.00
   10    4    4      1.76      0.00
   12    4    4     -6.85      0.00
   14    4    4     16.95      0.00
   16    4    4      9.99      0.00
   18    4    4     -2.66      0.00
   20    4    4      1.99      0.00
   22    4    4      5.46      0.00
   24    4    4     -4.28      0.00
   26    4    4      1.94      0.00
   28    4    4     -1.73      0.00
   30    4    4      0.94      0.00
   32    4    4     -6.61      0.00
   34    4    4     -2.47      0.00
   36    4    4     12.63      0.00
   38    4    4    -48.28      0.00
  -39    5    4      0.40      0.00
  -37    5    4     -4.67      0.00
  -35    5    4     -1.96      0.00
  -33    5    4     -0.15      0.00
  -31    5    4      3.42      0.00
  -29    5    4      6.05      0.00
  -27    5    4     -0.80      0.00
  -25    5    4      5.85      0.00
  -23    5    4     -0.95      0.00
  -21    5    4     -1.39      0.00
  -19    5    4    -15.83      0.00
  -17    5    4    -11.18      0.00
  -15    5    4     -7.27      0.00
  -13    5    4     -5.81      0.00
  -11    5    4     22.56      0.00
   -9    5    4     22.07      0.00
   -7    5    4     19.07      0.00
   -5    5    4     12.63      0.00
   -3    5    4     37.33      0.00
   -1    5    4    -27.16      0.00
    1    5    4    -25.73      0.00
    3    5    4     12.03      0.00
    5    5    4     11.37      0.00
    7    5    4     15.69      0.00
    9    5    4     10.73      0.00
   11    5    4     12.23      0.00
   13    5    4      5.49      0.00
   15    5    4    -12.13      0.00
   17    5    4     -5.44      0.00
   19    5    4      0.02      0.00
   21    5    4     -0.94      0.00
   23    5    4      1.01      0.00
   25    5    4      0.84      0.00
   27    5    4      2.99      0.00
   29    5    4     -8.65      0.00
   31    5    4     -6.57      0.00
   33    5    4     11.68      0.00
   35    5    4      1.30      0.00
   37    5    4      5.78      0.00
  -38    6    4     -2.70      0.00
  -36    6    4    -11.07      0.00
  -34    6    4     -1.67      0.00
  -32    6    4     -3.76      0.00
  -30    6    4     -2.15      0.00
  -28    6    4     -1.00      0.00
  -26    6    4      2.45      0.00
  -24    6    4      0.45      0.00
  -22    6    4     -0.50      0.00
  -20    6    4     15.19      0.00
  -18    6    4      7.55      0.00
  -16    6    4      0.27      0.00
  -14    6    4     -4.36      0.00
  -12    6    4     14.08      0.00
  -10    6    4    -15.76      0.00
   -8    6    4     -8.45      0.00
   -6    6    4     -3.90      0.00
   -4    6    4    -49.27      0.00
   -2    6    4    -46.52      0.00
    0    6    4     15.42      0.00
    2    6    4     -4.05      0.00
    4    6    4    -20.69      0.00
    6    6    4     14.33      0.00
    8    6    4      4.37      0.00
   10    6    4      3.77      0.00
   12    6    4    -11.14      0.00
   14    6    4    -10.12      0.00
   16    6    4      1.79      0.00
   18    6    4      5.94      0.00
   20    6    4     -0.19      0.00
   22    6    4      2.59      0.00
   24    6    4     -1.32      0.00
   26    6    4      2.72      0.00
   28    6    4      4.33      0.00
   30    6    4     12.79      0.00
   32    6    4      6.30      0.00
   34    6    4      6.91      0.00
   36    6    4     -3.89      0.00
  -39    7    4      9.05      0.00
  -37    7    4     -7.71      0.00
  -35    7    4     12.02      0.00
  -33    7    4     -9.20      0.00
  -31    7    4     -9.75      0.00
  -29    7    4      3.41      0.00
  -27    7    4     -1.68      0.00
  -25    7    4     -3.17      0.00
  -23    7    4      3.79      0.00
  -21    7    4     -2.03      0.00
  -19    7    4    -10.19      0.00
  -17    7    4     -8.56      0.00
  -15    7    4     -2.97      0.00
  -13    7    4    -17.66      0.00
  -11    7    4     -4.95      0.00
   -9    7    4     16.76      0.00
   -7    7    4     -5.79      0.00
   -5    7    4     19.35      0.00
   -3    7    4     12.97      0.00
   -1    7    4    -11.81      0.00
    1    7    4     24.07      0.00
    3    7    4     -1.57      0.00
    5    7    4      7.18      0.00
    7    7    4    -34.42      0.00
    9    7    4     21.31      0.00
   11    7    4      0.37      0.00
   13    7    4      7.26      0.00
   15    7    4      0.02      0.00
   17    7    4     -5.21      0.00
   19    7    4     -7.19      0.00
   21    7    4      1.37      0.00
   23    7    4      1.90      0.00
   25    7    4     -1.43      0.00
   27    7    4      0.65      0.00
   29    7    4     -3.54      0.00
   31    7    4      6.27      0.00
   33    7    4      6.80      0.00
   35    7    4     16.07      0.00
  -38    8    4     -0.52      0.00
  -36    8    4      1.97      0.00
  -34    8    4     -2.62      0.00
  -32    8    4     -4.23      0.00
  -30    8    4      0.65      0.00
  -28    8    4     -2.61      0.00
  -26    8    4     -1.63      0.00
  -24    8    4      1.43      0.00
  -22    8    4     -2.31      0.00
  -20    8    4      6.18      0.00
  -18    8    4    -16.78      0.00
  -16    8    4    -13.43      0.00
  -14    8    4      0.14      0.00
  -12    8    4     10.80      0.00
  -10    8    4     10.47      0.00
   -8    8    4     17.11      0.00
   -6    8    4    -22.86      0.00
   -4    8    4    -17.09      0.00
   -2    8    4    -14.31      0.00
    0    8    4     -5.07      0.00
    2    8    4    -11.09      0.00
    4    8    4      9.46      0.00
    6    8    4      8.01      0.00
    8    8    4     10.15      0.00
   10    8    4     -4.62      0.00
   12    8    4      3.17      0.00
   14    8    4     -1.67      0.00
   16    8    4      0.30      0.00
   18    8    4      1.35      0.00
   20    8    4     -4.34      0.00
   22    8    4     -0.87      0.00
   24    8    4    -13.78      0.00
   26    8    4     -4.55      0.00
   28    8    4      9.12      0.00
   30    8    4     -1.58      0.00
   32    8    4      4.02      0.00
   34    8    4     -2.41      0.00
   36    8    4      7.37      0.00
  -37    9    4     -4.77      0.00
  -35    9    4     -9.09      0.00
  -33    9    4      7.14      0.00
  -31    9    4     18.19      0.00
  -29    9    4      3.48      0.00
  -27    9    4     -0.34      0.00
  -25    9    4      9.12      0.00
  -23    9    4     -8.91      0.00
  -21    9    4     -6.35      0.00
  -19    9    4    -10.03      0.00
  -17    9    4     -7.56      0.00
  -15    9    4     -1.63      0.00
  -13    9    4      8.20      0.00
  -11    9    4      9.31      0.00
   -9    9    4    -41.11      0.00
   -7    9    4      7.38      0.00
   -5    9    4      2.47      0.00
   -3    9    4     12.84      0.00
   -1    9    4    -14.17      0.00
    1    9    4     -1.61      0.00
    3    9    4    -15.91      0.00
    5    9    4    -11.58      0.00
    7    9    4     -0.09      0.00
    9    9    4     11.30      0.00
   11    9    4      7.10      0.00
   13    9    4    -11.54      0.00
   15    9    4     -2.95      0.00
   17    9    4     -0.09      0.00
   19    9    4     -6.02      0.00
   21    9    4      4.61      0.00
   23    9    4     -1.02      0.00
   25    9    4      0.29      0.00
   27    9    4     -9.11      0.00
   29    9    4      0.97      0.00
   31    9    4      5.01      0.00
   33    9    4      0.46      0.00
   35    9    4     -7.57      0.00
  -36   10    4      3.67      0.00
  -34   10    4     11.36      0.00
  -32   10    4      0.98      0.00
  -30   10    4     -7.78      0.00
  -28   10    4     -7.69      0.00
  -26   10    4     -9.03      0.00
  -24   10    4     -0.43      0.00
  -22   10    4      4.25      0.00
  -20   10    4      5.33      0.00
  -18   10    4      1.90      0.00
  -16   10    4      1.25      0.00
  -14   10    4      3.81      0.00
  -12   10    4     -9.89      0.00
  -10   10    4     13.27      0.00
   -8   10    4     12.31      0.00
   -6   10    4    -12.83      0.00
   -4   10    4     -8.29      0.00
   -2   10    4     -4.29      0.00
    0   10    4      8.82      0.00
    2   10    4     -0.17      0.00
    4   10    4     26.70      0.00
    6   10    4      8.86      0.00
    8   10    4    -21.22      0.00
   10   10    4      2.66      0.00
   12   10    4     -6.70      0.00
   14   10    4      4.84      0.00
   16   10    4     -1.14      0.00
   18   10    4     -0.06      0.00
   20   10    4     -0.68      0.00
   22   10    4    -12.39      0.00
   24   10    4     -6.44      0.00
   26   10    4      0.43      0.00
   28   10    4     -7.93      0.00
   30   10    4     -3.81      0.00
   32   10    4     -0.21      0.00
   34   10    4      0.86      0.00
  -35   11    4     -1.33      0.00
  -33   11    4     15.17      0.00
  -31   11    4     -0.57      0.00
  -29   11    4     -2.64      0.00
  -27   11    4     -5.76      0.00
  -25   11    4      0.99      0.00
  -23   11    4     -1.81      0.00
  -21   11    4     -5.93      0.00
  -19   11    4      5.21      0.00
  -17   11    4     -1.56      0.00
  -15   11    4     -6.77      0.00
  -13   11    4      1.55      0.00
  -11   11    4    -10.10      0.00
   -9   11    4     -9.40      0.00
   -7   11    4     -3.93      0.00
   -5   11    4      9.70      0.00
   -3   11    4    -10.06      0.00
   -1   11    4    -14.39      0.00
    1   11    4    -18.34      0.00
    3   11    4     -9.53      0.00
    5   11    4     -3.26      0.00
    7   11    4     -3.34      0.00
    9   11    4      6.15      0.00
   11   11    4     -5.58      0.00
   13   11    4      1.64      0.00
   15   11    4      5.60      0.00
   17   11    4      2.90      0.00
   19   11    4     -4.60      0.00
   21   11    4     -2.37      0.00
   23   11    4     -1.18      0.00
   25   11    4    -21.00      0.00
   27   11    4      0.13      0.00
   29   11    4    -18.14      0.00
   31   11    4     -4.95      0.00
   33   11    4     -3.75      0.00
  -34   12    4     -6.49      0.00
  -32   12    4      3.24      0.00
  -30   12    4      2.31      0.00
  -28   12    4      9.17      0.00
  -26   12    4      1.66      0.00
  -24   12    4     -2.42      0.00
  -22   12    4     -1.53      0.00
  -20   12    4     -1.59      0.00
  -18   12    4    -14.63      0.00
  -16   12    4     -6.25      0.00
  -14   12    4      1.01      0.00
  -12   12    4     12.76      0.00
  -10   12    4     -8.33      0.00
   -8   12    4      5.60      0.00
   -6   12    4    -10.48      0.00
   -4   12    4     11.96      0.00
   -2   12    4     10.25      0.00
    0   12    4      8.19      0.00
    2   12    4     10.82      0.00
    4   12    4      6.95      0.00
    6   12    4     19.58      0.00
    8   12    4     -4.34      0.00
   10   12    4     -5.12      0.00
   12   12    4      0.22      0.00
   14   12    4     -4.77      0.00
   16   12    4     -5.44      0.00
   18   12    4     -1.73      0.00
   20   12    4     -2.76      0.00
   22   12    4      5.57      0.00
   24   12    4      2.21      0.00
   26   12    4      3.30      0.00
   28   12    4     -0.21      0.00
   30   12    4      6.43      0.00
  -33   13    4      0.57      0.00
  -31   13    4     -2.19      0.00
  -29   13    4      3.60      0.00
  -27   13    4     15.12      0.00
  -25   13    4      4.25      0.00
  -23   13    4      5.76      0.00
  -21   13    4     -4.17      0.00
  -19   13    4      0.53      0.00
  -17   13    4      4.87      0.00
  -15   13    4     -0.88      0.00
  -13   13    4     -5.98      0.00
  -11   13    4     -3.38      0.00
   -9   13    4      2.82      0.00
   -7   13    4      5.57      0.00
   -5   13    4      1.62      0.00
   -3   13    4     -4.13      0.00
   -1   13    4     -2.55      0.00
    1   13    4     -4.68      0.00
    3   13    4     -4.11      0.00
    5   13    4      5.09      0.00
    7   13    4     -6.75      0.00
    9   13    4      3.39      0.00
   11   13    4      0.28      0.00
   13   13    4     -1.61      0.00
   15   13    4      3.00      0.00
   17   13    4      1.90      0.00
   19   13    4      1.24      0.00
   21   13    4      9.09      0.00
   23   13    4      1.90      0.00
   25   13    4      6.36      0.00
   27   13    4      1.59      0.00
   29   13    4     -0.49      0.00
  -32   14    4     -4.26      0.00
  -30   14    4      6.44      0.00
  -28   14    4    -10.20      0.00
  -26   14    4    -17.95      0.00
  -24   14    4      4.77      0.00
  -22   14    4     10.70      0.00
  -20   14    4     11.39      0.00
  -18   14    4     -1.96      0.00
  -16   14    4     -9.41      0.00
  -14   14    4      1.04      0.00
  -12   14    4      0.37      0.00
  -10   14    4     -0.28      0.00
   -8   14    4     -4.53      0.00
   -6   14    4     -2.19      0.00
   -4   14    4      2.62      0.00
   -2   14    4     -0.48      0.00
    0   14    4     -6.19      0.00
    2   14    4      5.35      0.00
    4   14    4    -13.77      0.00
    6   14    4      2.04      0.00
    8   14    4     -1.96      0.00
   10   14    4     -9.39      0.00
   12   14    4     -4.58      0.00
   14   14    4     -3.56      0.00
   16   14    4     -7.16      0.00
   18   14    4      6.46      0.00
   20   14    4     -0.87      0.00
   22   14    4      2.78      0.00
   24   14    4      0.16      0.00
   26   14    4     -5.51      0.00
   28   14    4     -1.86      0.00
  -31   15    4     13.12      0.00
  -29   15    4      2.69      0.00
  -27   15    4      2.87      0.00
  -25   15    4     -3.25      0.00
  -23   15    4     -2.62      0.00
  -21   15    4      3.08      0.00
  -19   15    4     -5.10      0.00
  -17   15    4      1.60      0.00
  -15   15    4      1.11      0.00
  -13   15    4      4.19      0.00
  -11   15    4      0.43      0.00
   -7   15    4     10.96      0.00
   -5   15    4      7.59      0.00
   -3   15    4      1.22      0.00
   -1   15    4     -4.24      0.00
    1   15    4     -9.81      0.00
    3   15    4      3.05      0.00
    5   15    4     16.29      0.00
    7   15    4      5.42      0.00
    9   15    4      1.84      0.00
   11   15    4     -5.51      0.00
   13   15    4      5.30      0.00
   15   15    4      2.60      0.00
   17   15    4      0.55      0.00
   19   15    4     11.30      0.00
   21   15    4      7.39      0.00
   23   15    4      1.19      0.00
   25   15    4      8.01      0.00
   27   15    4     -2.55      0.00
  -28   16    4     -6.86      0.00
  -26   16    4     -2.31      0.00
  -24   16    4     -3.50      0.00
  -22   16    4     -0.40      0.00
  -20   16    4     -4.25      0.00
  -18   16    4     -2.71      0.00
  -16   16    4    -13.61      0.00
  -14   16    4     -2.13      0.00
  -12   16    4      7.83      0.00
  -10   16    4     -5.71      0.00
   -8   16    4     -4.51      0.00
   -6   16    4      8.67      0.00
   -4   16    4      2.60      0.00
   -2   16    4      0.03      0.00
    0   16    4     -0.62      0.00
    2   16    4    -13.74      0.00
    4   16    4      4.23      0.00
    6   16    4     -1.07      0.00
    8   16    4     10.15      0.00
   10   16    4      6.55      0.00
   12   16    4      1.15      0.00
   14   16    4     -9.86      0.00
   16   16    4     -9.33      0.00
   18   16    4      6.25      0.00
   20   16    4      4.14      0.00
   22   16    4      0.56      0.00
   24   16    4     -2.54      0.00
   26   16    4      6.86      0.00
  -27   17    4     -3.65      0.00
  -25   17    4     -6.09      0.00
  -23   17    4      6.85      0.00
  -21   17    4      2.55      0.00
  -19   17    4     -5.34      0.00
  -17   17    4      2.82      0.00
  -15   17    4      5.49      0.00
  -13   17    4      6.14      0.00
  -11   17    4     -1.35      0.00
   -9   17    4     -1.27      0.00
   -7   17    4      6.51      0.00
   -5   17    4      5.47      0.00
   -3   17    4      8.73      0.00
   -1   17    4     11.70      0.00
    1   17    4     -9.75      0.00
    3   17    4    -15.15      0.00
    5   17    4      3.00      0.00
    7   17    4     -2.16      0.00
    9   17    4     -2.86      0.00
   11   17    4      4.13      0.00
   13   17    4     -3.96      0.00
   15   17    4      0.25      0.00
   17   17    4     -0.63      0.00
   19   17    4      2.65      0.00
   21   17    4      2.88      0.00
   23   17    4     -2.16      0.00
  -24   18    4     -1.70      0.00
  -22   18    4      3.66      0.00
  -20   18    4     -0.43      0.00
  -18   18    4    -10.04      0.00
  -16   18    4     -2.47      0.00
  -14   18    4     -6.44      0.00
  -12   18    4     -8.73      0.00
  -10   18    4      4.50      0.00
   -8   18    4      4.21      0.00
   -6   18    4      6.70      0.00
   -4   18    4      4.23      0.00
   -2   18    4      3.48      0.00
    0   18    4      6.51      0.00
    2   18    4     -0.22      0.00
    4   18    4      3.69      0.00
    6   18    4      1.45      0.00
    8   18    4      4.97      0.00
   10   18    4      2.63      0.00
   12   18    4      4.38      0.00
   14   18    4    -10.28      0.00
   16   18    4      2.23      0.00
   18   18    4     -3.66      0.00
   20   18    4     -1.92      0.00
   22   18    4      0.82      0.00
  -21   19    4     -0.66      0.00
  -19   19    4    -11.62      0.00
  -17   19    4     -5.17      0.00
  -15   19    4     -2.68      0.00
  -13   19    4      2.14      0.00
  -11   19    4      3.15      0.00
   -9   19    4      7.95      0.00
   -7   19    4      6.11      0.00
   -5   19    4      6.57      0.00
   -3   19    4     -2.42      0.00
   -1   19    4      1.79      0.00
    1   19    4     10.48      0.00
    3   19    4      6.55      0.00
    5   19    4     -3.33      0.00
    7   19    4     13.12      0.00
    9   19    4      5.54      0.00
   11   19    4      6.31      0.00
   13   19    4     -2.64      0.00
   15   19    4     -2.42      0.00
   17   19    4     14.27      0.00
   19   19    4     -2.68      0.00
  -18   20    4      4.75      0.00
  -16   20    4     -3.88      0.00
  -14   20    4     -3.74      0.00
  -12   20    4     -0.13      0.00
  -10   20    4      4.02      0.00
   -8   20    4     10.44      0.00
   -6   20    4     -0.82      0.00
   -4   20    4     -7.59      0.00
   -2   20    4     -5.28      0.00
    0   20    4     -8.11      0.00
    2   20    4     -7.35      0.00
    4   20    4     -0.70      0.00
    6   20    4      3.89      0.00
    8   20    4      1.19      0.00
   10   20    4      3.12      0.00
   12   20    4     -2.79      0.00
   14   20    4      8.69      0.00
   16   20    4      0.81      0.00
  -15   21    4     12.11      0.00
  -13   21    4     -9.64      0.00
  -11   21    4    -15.29      0.00
   -9   21    4      5.61      0.00
   -7   21    4     10.14      0.00
   -5   21    4      0.45      0.00
   -3   21    4     -7.01      0.00
   -1   21    4     -0.21      0.00
    1   21    4      0.67      0.00
    3   21    4     -0.24      0.00
    5   21    4    -10.38      0.00
    7   21    4      5.89      0.00
    9   21    4      3.66      0.00
   11   21    4      2.61      0.00
   -8   22    4      0.18      0.00
   -6   22    4     -1.60      0.00
   -4   22    4     -5.32      0.00
   -2   22    4     -2.49      0.00
    0   22    4      2.36      0.00
  -41    1    5     27.25      0.00
  -39    1    5      0.45      0.00
  -37    1    5     -7.37      0.00
  -35    1    5      2.18      0.00
  -33    1    5     -2.63      0.00
  -31    1    5      4.49      0.00
  -29    1    5      4.77      0.00
  -27    1    5     -2.84      0.00
  -25    1    5      1.69      0.00
  -23    1    5     -4.04      0.00
  -21    1    5     -3.65      0.00
  -19    1    5      9.60      0.00
  -17    1    5    -12.10      0.00
  -15    1    5     10.34      0.00
  -13    1    5      4.85      0.00
  -11    1    5     17.26      0.00
   -9    1    5     23.93      0.00
   -7    1    5     31.55      0.00
   -5    1    5   -107.39      0.00
   -3    1    5      8.92      0.00
   -1    1    5    -89.30      0.00
    1    1    5    -44.03      0.00
    3    1    5     78.12      0.00
    5    1    5    -30.36      0.00
    7    1    5    -12.77      0.00
    9    1    5     -3.22      0.00
   11    1    5     11.04      0.00
   13    1    5    -10.01      0.00
   15    1    5      2.11      0.00
   17    1    5     11.28      0.00
   19    1    5     -6.71      0.00
   21    1    5      3.28      0.00
   23    1    5      3.07      0.00
   25    1    5     15.11      0.00
   27    1    5     -2.20      0.00
   29    1    5      4.90      0.00
   31    1    5      0.48      0.00
   33    1    5     -6.21      0.00
   35    1    5     -1.29      0.00
   37    1    5    -35.18      0.00
  -40    2    5     54.44      0.00
  -38    2    5     15.42      0.00
  -36    2    5    -15.81      0.00
  -34    2    5      0.49      0.00
  -32    2    5      3.22      0.00
  -30    2    5     -2.88      0.00
  -28    2    5      5.00      0.00
  -26    2    5     -6.19      0.00
  -24    2    5     -2.51      0.00
  -22    2    5      5.71      0.00
  -20    2    5     -5.46      0.00
  -18    2    5      1.32      0.00
  -16    2    5     14.06      0.00
  -14    2    5     -5.80      0.00
  -12    2    5     -6.77      0.00
  -10    2    5     28.96      0.00
   -8    2    5     -2.61      0.00
   -6    2    5     -4.81      0.00
   -4    2    5      6.89      0.00
   -2    2    5   -135.47      0.00
    0    2    5     99.87      0.00
    2    2    5     38.91      0.00
    4    2    5    -11.75      0.00
    6    2    5      4.64      0.00
    8    2    5      1.63      0.00
   10    2    5     -3.33      0.00
   12    2    5     11.21      0.00
   14    2    5     -5.59      0.00
   16    2    5    -21.63      0.00
   18    2    5     -5.03      0.00
   20    2    5     -0.15      0.00
   22    2    5     -1.13      0.00
   24    2    5      0.14      0.00
   26    2    5     -4.09      0.00
   28    2    5      3.67      0.00
   30    2    5     -0.65      0.00
   32    2    5      7.01      0.00
   34    2    5      7.72      0.00
   36    2    5     -5.86      0.00
  -41    3    5      8.55      0.00
  -39    3    5      0.59      0.00
  -37    3    5    -10.85      0.00
  -35    3    5      1.23      0.00
  -33    3    5     -6.91      0.00
  -31    3    5      2.92      0.00
  -29    3    5     -6.45      0.00
  -27    3    5     -5.46      0.00
  -25    3    5      0.84      0.00
  -23    3    5     -2.28      0.00
  -21    3    5      2.80      0.00
  -19    3    5      6.89      0.00
  -17    3    5      1.33      0.00
  -15    3    5    -20.82      0.00
  -13    3    5      6.69      0.00
  -11    3    5     20.26      0.00
   -9    3    5    -25.42      0.00
   -7    3    5    -12.60      0.00
   -5    3    5     -4.29      0.00
   -3    3    5    -37.84      0.00
   -1    3    5     -9.39      0.00
    1    3    5    -41.77      0.00
    3    3    5    -23.93      0.00
    5    3    5    -21.76      0.00
    7    3    5     -1.69      0.00
    9    3    5      8.16      0.00
   11    3    5      3.86      0.00
   13    3    5     -7.16      0.00
   15    3    5     -2.00      0.00
   17    3    5      4.51      0.00
   19    3    5     -5.35      0.00
   21    3    5     -0.17      0.00
   23    3    5      6.68      0.00
   25    3    5     -0.32      0.00
   27    3    5     -1.72      0.00
   29    3    5      5.74      0.00
   31    3    5     -5.63      0.00
   33    3    5     -1.54      0.00
   35    3    5     -2.67      0.00
   37    3    5    -20.31      0.00
  -40    4    5     -5.10      0.00
  -38    4    5     -8.05      0.00
  -36    4    5      0.77      0.00
  -34    4    5      0.70      0.00
  -32    4    5      2.04      0.00
  -30    4    5      3.25      0.00
  -28    4    5      2.18      0.00
  -26    4    5      4.03      0.00
  -24    4    5      2.26      0.00
  -22    4    5      0.09      0.00
  -20    4    5     -0.93      0.00
  -18    4    5      0.26      0.00
  -16    4    5      2.89      0.00
  -14    4    5      6.25      0.00
  -12    4    5      3.27      0.00
  -10    4    5     17.99      0.00
   -8    4    5     19.27      0.00
   -6    4    5      5.59      0.00
   -4    4    5   -140.41      0.00
   -2    4    5     27.47      0.00
    0    4    5     15.16      0.00
    2    4    5     41.12      0.00
    4    4    5      0.01      0.00
    6    4    5     13.10      0.00
    8    4    5      2.93      0.00
   10    4    5     -3.83      0.00
   12    4    5     10.32      0.00
   14    4    5     -7.40      0.00
   16    4    5     -5.91      0.00
   18    4    5     -3.93      0.00
   20    4    5     -3.01      0.00
   22    4    5     -7.97      0.00
   24    4    5     -2.62      0.00
   26    4    5      5.82      0.00
   28    4    5     -5.22      0.00
   30    4    5      2.50      0.00
   32    4    5     -5.03      0.00
   34    4    5      3.95      0.00
   36    4    5    -15.68      0.00
  -39    5    5     16.03      0.00
  -37    5    5     -4.77      0.00
  -35    5    5    -15.34      0.00
  -33    5    5      4.93      0.00
  -31    5    5     -2.39      0.00
  -29    5    5      0.28      0.00
  -27    5    5     -7.71      0.00
  -25    5    5     -1.92      0.00
  -23    5    5      1.19      0.00
  -21    5    5      0.54      0.00
  -19    5    5     -6.87      0.00
  -17    5    5      4.41      0.00
  -15    5    5     -9.67      0.00
  -13    5    5     -0.82      0.00
  -11    5    5      6.74      0.00
   -9    5    5     -4.73      0.00
   -7    5    5     10.65      0.00
   -5    5    5      7.25      0.00
   -3    5    5     20.27      0.00
   -1    5    5     29.69      0.00
    1    5    5     -5.32      0.00
    3    5    5    -21.34      0.00
    5    5    5      1.84      0.00
    7    5    5     20.50      0.00
    9    5    5      2.14      0.00
   11    5    5      5.78      0.00
   13    5    5    -18.36      0.00
   15    5    5      2.08      0.00
   17    5    5      5.51      0.00
   19    5    5     -6.22      0.00
   21    5    5     -8.08      0.00
   23    5    5      7.35      0.00
   25    5    5     -3.25      0.00
   27    5    5     -4.23      0.00
   29    5    5      9.40      0.00
   31    5    5      5.67      0.00
   33    5    5     -6.69      0.00
   35    5    5     -0.28      0.00
   37    5    5    -20.38      0.00
  -40    6    5      5.89      0.00
  -38    6    5      3.86      0.00
  -36    6    5      6.20      0.00
  -34    6    5     -7.19      0.00
  -32    6    5     -3.15      0.00
  -30    6    5      3.30      0.00
  -28    6    5     -8.19      0.00
  -26    6    5     -5.55      0.00
  -24    6    5     -1.73      0.00
  -22    6    5      5.19      0.00
  -20    6    5      5.77      0.00
  -18    6    5     14.93      0.00
  -16    6    5      5.34      0.00
  -14    6    5      1.70      0.00
  -12    6    5     11.47      0.00
  -10    6    5    -13.16      0.00
   -8    6    5     -8.60      0.00
   -6    6    5    -38.93      0.00
   -4    6    5    -34.19      0.00
   -2    6    5    -19.46      0.00
    0    6    5     42.69      0.00
    2    6    5      4.83      0.00
    4    6    5     25.19      0.00
    6    6    5     -8.59      0.00
    8    6    5     -0.07      0.00
   10    6    5     13.68      0.00
   12    6    5     -1.50      0.00
   14    6    5      0.21      0.00
   16    6    5      0.80      0.00
   18    6    5     -6.54      0.00
   20    6    5     -3.09      0.00
   22    6    5      0.83      0.00
   24    6    5     -2.96      0.00
   26    6    5      4.16      0.00
   28    6    5     -0.38      0.00
   30    6    5      7.59      0.00
   32    6    5     -2.65      0.00
   34    6    5     -2.09      0.00
   36    6    5     -2.34      0.00
  -39    7    5      5.55      0.00
  -37    7    5     -4.09      0.00
  -35    7    5    -10.91      0.00
  -33    7    5     -7.61      0.00
  -31    7    5     -2.88      0.00
  -29    7    5     -1.61      0.00
  -27    7    5     -3.64      0.00
  -25    7    5      0.28      0.00
  -23    7    5     -5.26      0.00
  -21    7    5     -6.74      0.00
  -19    7    5    -10.49      0.00
  -17    7    5    -11.15      0.00
  -15    7    5     -6.30      0.00
  -13    7    5    -23.76      0.00
  -11    7    5     -2.12      0.00
   -9    7    5    -10.48      0.00
   -7    7    5     16.40      0.00
   -5    7    5     25.46      0.00
   -3    7    5      6.29      0.00
   -1    7    5      8.89      0.00
    1    7    5     -0.01      0.00
    3    7    5    -12.09      0.00
    5    7    5     15.51      0.00
    7    7    5      4.43      0.00
    9    7    5     -4.34      0.00
   11    7    5     -4.62      0.00
   13    7    5      6.80      0.00
   15    7    5      1.57      0.00
   17    7    5      4.81      0.00
   19    7    5     -2.22      0.00
   21    7    5      5.02      0.00
   23    7    5     -0.66      0.00
   25    7    5     -2.85      0.00
   27    7    5      6.10      0.00
   29    7    5      4.34      0.00
   31    7    5      4.80      0.00
   33    7    5     -1.76      0.00
   35    7    5      9.34      0.00
  -38    8    5      1.71      0.00
  -36    8    5     -2.51      0.00
  -34    8    5     -1.56      0.00
  -32    8    5     15.60      0.00
  -30    8    5      0.09      0.00
  -28    8    5      1.33      0.00
  -26    8    5      6.81      0.00
  -24    8    5      5.40      0.00
  -22    8    5      0.00      0.00
  -20    8    5      0.45      0.00
  -18    8    5     -9.91      0.00
  -16    8    5     -7.53      0.00
  -14    8    5      2.11      0.00
  -12    8    5     13.13      0.00
  -10    8    5      3.48      0.00
   -8    8    5    -10.44      0.00
   -6    8    5    -33.94      0.00
   -4    8    5     -1.77      0.00
   -2    8    5     10.15      0.00
    0    8    5      9.30      0.00
    2    8    5     -7.62      0.00
    4    8    5     -7.99      0.00
    6    8    5    -22.11      0.00
    8    8    5     -1.76      0.00
   10    8    5     16.98      0.00
   12    8    5     -1.38      0.00
   14    8    5     -0.15      0.00
   16    8    5      7.03      0.00
   18    8    5      0.88      0.00
   20    8    5     -0.65      0.00
   22    8    5     -6.27      0.00
   24    8    5      9.68      0.00
   26    8    5      4.84      0.00
   28    8    5     -0.55      0.00
   30    8    5      2.64      0.00
   32    8    5     -3.79      0.00
   34    8    5     -2.21      0.00
  -37    9    5     -2.16      0.00
  -35    9    5      4.64      0.00
  -33    9    5      8.87      0.00
  -31    9    5     -0.71      0.00
  -29    9    5     -2.56      0.00
  -27    9    5     -1.85      0.00
  -25    9    5      2.53      0.00
  -23    9    5     -1.41      0.00
  -21    9    5     -6.92      0.00
  -19    9    5      3.13      0.00
  -17    9    5      5.87      0.00
  -15    9    5     -0.39      0.00
  -13    9    5      0.81      0.00
  -11    9    5    -18.93      0.00
   -9    9    5    -11.10      0.00
   -7    9    5     21.24      0.00
   -5    9    5     11.96      0.00
   -3    9    5    -12.87      0.00
   -1    9    5     -4.03      0.00
    1    9    5      8.46      0.00
    3    9    5      4.34      0.00
    5    9    5     29.30      0.00
    7    9    5    -10.26      0.00
    9    9    5     -8.10      0.00
   11    9    5      1.21      0.00
   13    9    5      1.11      0.00
   15    9    5      4.85      0.00
   17    9    5     -8.47      0.00
   19    9    5     -2.65      0.00
   21    9    5     -5.49      0.00
   23    9    5     -5.56      0.00
   25    9    5      5.09      0.00
   27    9    5     -9.82      0.00
   29    9    5     -3.47      0.00
   31    9    5     -6.25      0.00
   33    9    5    -15.26      0.00
  -36   10    5      7.11      0.00
  -34   10    5     -1.17      0.00
  -32   10    5    -17.29      0.00
  -30   10    5      3.40      0.00
  -28   10    5      0.05      0.00
  -26   10    5     -0.46      0.00
  -24   10    5      1.84      0.00
  -22   10    5     -1.85      0.00
  -20   10    5      6.36      0.00
  -18   10    5     -1.46      0.00
  -16   10    5      4.54      0.00
  -14   10    5     -1.63      0.00
  -12   10    5      2.24      0.00
  -10   10    5     20.27      0.00
   -8   10    5      0.04      0.00
   -6   10    5    -18.91      0.00
   -4   10    5     -6.31      0.00
   -2   10    5    -14.87      0.00
    0   10    5     15.42      0.00
    2   10    5    -13.18      0.00
    4   10    5      1.61      0.00
    6   10    5    -13.56      0.00
    8   10    5      0.40      0.00
   10   10    5      7.33      0.00
   12   10    5     -5.94      0.00
   14   10    5      9.72      0.00
   16   10    5      1.75      0.00
   18   10    5      1.72      0.00
   20   10    5      4.51      0.00
   22   10    5      0.67      0.00
   24   10    5     -8.82      0.00
   26   10    5     -8.87      0.00
   28   10    5    -17.92      0.00
   30   10    5     -5.01      0.00
   32   10    5      2.25      0.00
  -35   11    5     -0.29      0.00
  -33   11    5     20.62      0.00
  -31   11    5      5.63      0.00
  -29   11    5      1.89      0.00
  -27   11    5      5.54      0.00
  -25   11    5      2.11      0.00
  -23   11    5      1.86      0.00
  -21   11    5     -4.21      0.00
  -19   11    5     -1.39      0.00
  -17   11    5     -7.75      0.00
  -15   11    5     -4.11      0.00
  -13   11    5     -8.30      0.00
  -11   11    5    -11.66      0.00
   -9   11    5     -0.13      0.00
   -7   11    5      2.45      0.00
   -5   11    5     11.91      0.00
   -3   11    5     -1.56      0.00
   -1   11    5     -3.51      0.00
    1   11    5      1.47      0.00
    3   11    5      3.71      0.00
    5   11    5     -0.34      0.00
    7   11    5      2.97      0.00
    9   11    5     -5.03      0.00
   11   11    5     -3.53      0.00
   13   11    5      4.22      0.00
   15   11    5      3.23      0.00
   17   11    5     -2.90      0.00
   19   11    5     -4.38      0.00
   21   11    5      3.42      0.00
   23   11    5      0.16      0.00
   25   11    5     -6.46      0.00
   27   11    5     13.14      0.00
   29   11    5     -9.07      0.00
   31   11    5     -1.52      0.00
  -34   12    5     -9.19      0.00
  -32   12    5      4.11      0.00
  -30   12    5      5.61      0.00
  -28   12    5      8.59      0.00
  -26   12    5      5.89      0.00
  -24   12    5      2.57      0.00
  -22   12    5      1.78      0.00
  -20   12    5     -5.65      0.00
  -18   12    5     -0.58      0.00
  -16   12    5     -0.39      0.00
  -14   12    5      5.87      0.00
  -12   12    5      7.94      0.00
  -10   12    5     -9.66      0.00
   -8   12    5      4.69      0.00
   -6   12    5     -3.73      0.00
   -4   12    5      5.36      0.00
   -2   12    5     -2.20      0.00
    0   12    5     10.04      0.00
    2   12    5     -4.78      0.00
    4   12    5      9.22      0.00
    6   12    5      4.42      0.00
    8   12    5     -3.45      0.00
   10   12    5      2.04      0.00
   12   12    5     -6.47      0.00
   14   12    5      0.35      0.00
   16   12    5      3.07      0.00
   18   12    5      1.66      0.00
   20   12    5      3.82      0.00
   22   12    5     -1.48      0.00
   24   12    5     14.04      0.00
   26   12    5      4.22      0.00
   28   12    5      5.97      0.00
   30   12    5      2.15      0.00
  -33   13    5      0.84      0.00
  -31   13    5      0.17      0.00
  -29   13    5    -17.20      0.00
  -27   13    5     -2.13      0.00
  -25   13    5      9.87      0.00
  -23   13    5     -2.81      0.00
  -21   13    5     -8.26      0.00
  -19   13    5      0.77      0.00
  -17   13    5     -0.30      0.00
  -15   13    5     -0.98      0.00
  -13   13    5    -10.85      0.00
  -11   13    5     -1.05      0.00
   -9   13    5      6.35      0.00
   -7   13    5     -3.64      0.00
   -5   13    5     -3.48      0.00
   -3   13    5     -4.72      0.00
   -1   13    5    -11.31      0.00
    1   13    5     -5.39      0.00
    3   13    5     -6.44      0.00
    5   13    5     -6.23      0.00
    7   13    5     -2.15      0.00
    9   13    5     -2.53      0.00
   11   13    5     -3.18      0.00
   13   13    5     -6.88      0.00
   15   13    5     -8.74      0.00
   17   13    5     -5.76      0.00
   19   13    5      3.55      0.00
   21   13    5      1.75      0.00
   23   13    5      6.47      0.00
   25   13    5     -4.18      0.00
   27   13    5      8.91      0.00
   29   13    5     -2.23      0.00
  -32   14    5     13.85      0.00
  -30   14    5      1.65      0.00
  -28   14    5     -1.20      0.00
  -26   14    5      4.65      0.00
  -24   14    5      0.32      0.00
  -22   14    5      4.41      0.00
  -20   14    5    -15.27      0.00
  -18   14    5     -5.97      0.00
  -16   14    5     -8.61      0.00
  -14   14    5      5.58      0.00
  -12   14    5     -0.04      0.00
  -10   14    5      4.51      0.00
   -8   14    5      5.14      0.00
   -6   14    5     11.85      0.00
   -4   14    5     18.38      0.00
   -2   14    5      4.88      0.00
    0   14    5      7.22      0.00
    2   14    5     -2.40      0.00
    4   14    5     -2.17      0.00
    6   14    5     -2.68      0.00
    8   14    5      8.91      0.00
   10   14    5      0.47      0.00
   12   14    5     -2.84      0.00
   14   14    5      2.29      0.00
   16   14    5     -8.31      0.00
   18   14    5     13.55      0.00
   20   14    5     -0.48      0.00
   22   14    5     -9.34      0.00
   24   14    5      3.58      0.00
   26   14    5      5.02      0.00
  -31   15    5     -5.37      0.00
  -29   15    5     -1.56      0.00
  -27   15    5      5.68      0.00
  -25   15    5     -3.33      0.00
  -23   15    5     -7.75      0.00
  -21   15    5     -1.66      0.00
  -19   15    5      0.83      0.00
  -17   15    5      1.27      0.00
  -15   15    5     -5.81      0.00
  -13   15    5     -1.59      0.00
  -11   15    5     -0.43      0.00
   -9   15    5      4.11      0.00
   -7   15    5      1.56      0.00
   -5   15    5     -5.67      0.00
   -3   15    5      2.93      0.00
   -1   15    5      5.89      0.00
    1   15    5     -9.51      0.00
    3   15    5      6.74      0.00
    5   15    5      1.85      0.00
    7   15    5     -7.63      0.00
    9   15    5     -0.43      0.00
   11   15    5      9.77      0.00
   13   15    5      1.75      0.00
   15   15    5      7.69      0.00
   17   15    5      4.76      0.00
   19   15    5      4.00      0.00
   21   15    5      4.67      0.00
   23   15    5     -2.18      0.00
   25   15    5     -1.83      0.00
  -28   16    5      4.00      0.00
  -26   16    5      4.33      0.00
  -24   16    5     -3.38      0.00
  -22   16    5     -6.73      0.00
  -20   16    5     -2.44      0.00
  -18   16    5     10.30      0.00
  -16   16    5     18.77      0.00
  -14   16    5      2.25      0.00
  -12   16    5      0.91      0.00
  -10   16    5      2.13      0.00
   -8   16    5      5.46      0.00
   -6   16    5      3.85      0.00
   -4   16    5      2.97      0.00
   -2   16    5      9.40      0.00
    0   16    5      7.52      0.00
    2   16    5    -13.44      0.00
    4   16    5     -7.93      0.00
    6   16    5     -1.02      0.00
    8   16    5      3.24      0.00
   10   16    5      4.94      0.00
   12   16    5     -3.97      0.00
   14   16    5     -9.54      0.00
   16   16    5     -4.42      0.00
   18   16    5     10.37      0.00
   20   16    5      6.26      0.00
   22   16    5      2.62      0.00
   24   16    5      5.55      0.00
  -27   17    5     -3.75      0.00
  -25   17    5    -10.64      0.00
  -23   17    5      3.59      0.00
  -21   17    5      1.35      0.00
  -19   17    5     -5.91      0.00
  -17   17    5      5.09      0.00
  -15   17    5      2.43      0.00
  -13   17    5    -17.88      0.00
  -11   17    5      1.66      0.00
   -9   17    5      6.22      0.00
   -7   17    5    -14.41      0.00
   -5   17    5     -5.33      0.00
   -3   17    5      3.93      0.00
   -1   17    5     -5.84      0.00
    1   17    5      5.94      0.00
    3   17    5     12.38      0.00
    5   17    5      6.64      0.00
    7   17    5     -4.47      0.00
    9   17    5    -14.39      0.00
   11   17    5      4.72      0.00
   13   17    5     -6.29      0.00
   15   17    5      4.59      0.00
   17   17    5     -8.38      0.00
   19   17    5    -12.91      0.00
   21   17    5      4.16      0.00
   23   17    5     16.89      0.00
  -24   18    5      5.41      0.00
  -22   18    5     -6.41      0.00
  -20   18    5     -7.82      0.00
  -18   18    5      5.91      0.00
  -16   18    5     -3.51      0.00
  -14   18    5      2.70      0.00
  -12   18    5     -0.64      0.00
  -10   18    5      9.71      0.00
   -8   18    5     -1.05      0.00
   -6   18    5      4.26      0.00
   -4   18    5     -2.82      0.00
   -2   18    5     -2.56      0.00
    0   18    5     10.00      0.00
    2   18    5      3.98      0.00
    4   18    5     -2.15      0.00
    6   18    5      8.93      0.00
    8   18    5     -6.91      0.00
   10   18    5      0.74      0.00
   12   18    5     -0.45      0.00
   14   18    5     -1.95      0.00
   16   18    5      6.21      0.00
   18   18    5     -0.81      0.00
   20   18    5     11.58      0.00
  -21   19    5     -3.59      0.00
  -19   19    5      9.66      0.00
  -17   19    5      1.11      0.00
  -15   19    5     -8.54      0.00
  -13   19    5      2.80      0.00
  -11   19    5     -7.85      0.00
   -9   19    5      1.83      0.00
   -7   19    5      1.20      0.00
   -5   19    5     -9.93      0.00
   -3   19    5     -5.02      0.00
   -1   19    5     -7.53      0.00
    1   19    5     -2.07      0.00
    3   19    5     -6.11      0.00
    5   19    5      1.77      0.00
    7   19    5      4.78      0.00
    9   19    5     -7.75      0.00
   11   19    5      1.42      0.00
   13   19    5     14.70      0.00
   15   19    5    -10.42      0.00
   17   19    5      4.28      0.00
   19   19    5     -8.46      0.00
  -18   20    5     -6.76      0.00
  -16   20    5      4.98      0.00
  -14   20    5     -7.38      0.00
  -12   20    5     -8.60      0.00
  -10   20    5      4.23      0.00
   -8   20    5      0.95      0.00
   -6   20    5     -4.25      0.00
   -4   20    5     -3.78      0.00
   -2   20    5     -1.24      0.00
    0   20    5    -10.54      0.00
    2   20    5      3.88      0.00
    4   20    5     -3.93      0.00
    6   20    5     -0.54      0.00
    8   20    5      2.89      0.00
   10   20    5     -8.04      0.00
   12   20    5     -4.50      0.00
   14   20    5     -2.56      0.00
   16   20    5     -9.83      0.00
  -15   21    5     -1.00      0.00
  -13   21    5      9.65      0.00
  -11   21    5      7.08      0.00
   -9   21    5      1.18      0.00
   -7   21    5      5.23      0.00
   -5   21    5      1.54      0.00
   -3   21    5     -2.34      0.00
   -1   21    5      6.49      0.00
    1   21    5     10.08      0.00
    3   21    5      2.19      0.00
    5   21    5      6.95      0.00
    7   21    5      6.32      0.00
    9   21    5      4.93      0.00
   11   21    5      9.39      0.00
   -8   22    5     -6.00      0.00
   -6   22    5     -1.52      0.00
   -4   22    5      1.11      0.00
   -2   22    5     -3.24      0.00
    0   22    5     -8.46      0.00
  -40    0    6     53.17      0.00
  -38    0    6     14.36      0.00
  -36    0    6     10.82      0.00
  -34    0    6      4.36      0.00
  -32    0    6     -5.35      0.00
  -30    0    6      1.35      0.00
  -28    0    6      2.52      0.00
  -26    0    6      0.05      0.00
  -24    0    6      6.10      0.00
  -22    0    6     -2.32      0.00
  -20    0    6     22.83      0.00
  -18    0    6      3.40      0.00
  -16    0    6     17.14      0.00
  -14    0    6      1.20      0.00
  -12    0    6      8.12      0.00
  -10    0    6    -44.19      0.00
   -8    0    6    -71.93      0.00
   -6    0    6    -55.86      0.00
   -4    0    6     15.73      0.00
   -2    0    6     86.25      0.00
    0    0    6    -77.63      0.00
    2    0    6     63.09      0.00
    4    0    6     -8.13      0.00
    6    0    6     -5.50      0.00
    8    0    6    -23.16      0.00
   10    0    6    -12.87      0.00
   12    0    6      6.03      0.00
   14    0    6    -13.54      0.00
   16    0    6      7.30      0.00
   18    0    6      8.60      0.00
   20    0    6      0.69      0.00
   22    0    6      1.91      0.00
   24    0    6     14.55      0.00
   26    0    6      0.37      0.00
   28    0    6      0.84      0.00
   30    0    6     -2.15      0.00
   32    0    6    -14.62      0.00
   34    0    6      2.16      0.00
   36    0    6     10.21      0.00
  -41    1    6     46.68      0.00
  -39    1    6      9.14      0.00
  -37    1    6     -0.33      0.00
  -35    1    6     11.51      0.00
  -33    1    6      1.82      0.00
  -31    1    6     -4.56      0.00
  -29    1    6     -0.69      0.00
  -27    1    6      2.39      0.00
  -25    1    6     -7.42      0.00
  -23    1    6     -0.63      0.00
  -21    1    6     -0.55      0.00
  -19    1    6    -17.31      0.00
  -17    1    6     -6.15      0.00
  -15    1    6    -11.62      0.00
  -13    1    6    -17.49      0.00
  -11    1    6     19.87      0.00
   -9    1    6     45.65      0.00
   -7    1    6    -35.77      0.00
   -5    1    6      1.97      0.00
   -3    1    6     83.66      0.00
   -1    1    6    -18.82      0.00
    1    1    6    126.24      0.00
    3    1    6    -11.05      0.00
    5    1    6      2.87      0.00
    7    1    6     19.31      0.00
    9    1    6     -5.35      0.00
   11    1    6    -20.02      0.00
   13    1    6    -13.07      0.00
   15    1    6      0.06      0.00
   17    1    6    -13.63      0.00
   19    1    6     -2.41      0.00
   21    1    6      3.11      0.00
   23    1    6     -1.90      0.00
   25    1    6      1.74      0.00
   27    1    6     -1.26      0.00
   29    1    6      0.36      0.00
   31    1    6     -3.49      0.00
   33    1    6      9.65      0.00
   35    1    6    -20.09      0.00
   37    1    6     63.34      0.00
  -40    2    6     17.01      0.00
  -38    2    6     25.40      0.00
  -36    2    6      6.50      0.00
  -34    2    6      9.44      0.00
  -32    2    6      3.73      0.00
  -30    2    6      0.14      0.00
  -28    2    6      1.17      0.00
  -26    2    6     -0.86      0.00
  -24    2    6     -0.11      0.00
  -22    2    6     -3.68      0.00
  -20    2    6      4.70      0.00
  -18    2    6      6.34      0.00
  -16    2    6     -4.01      0.00
  -14    2    6     10.48      0.00
  -12    2    6     25.32      0.00
  -10    2    6      5.75      0.00
   -8    2    6    -36.24      0.00
   -6    2    6     37.51      0.00
   -4    2    6    -62.74      0.00
   -2    2    6   -111.69      0.00
    0    2    6     -0.37      0.00
    2    2    6      3.99      0.00
    4    2    6     -4.64      0.00
    6    2    6     35.87      0.00
    8    2    6      3.73      0.00
   10    2    6     12.22      0.00
   12    2    6     24.43      0.00
   14    2    6     15.43      0.00
   16    2    6     -8.34      0.00
   18    2    6      5.14      0.00
   20    2    6     -3.57      0.00
   22    2    6      2.79      0.00
   24    2    6     -3.73      0.00
   26    2    6      1.41      0.00
   28    2    6     -8.29      0.00
   30    2    6    -13.02      0.00
   32    2    6    -10.70      0.00
   34    2    6      9.10      0.00
   36    2    6     17.04      0.00
  -41    3    6    -32.80      0.00
  -39    3    6     10.92      0.00
  -37    3    6     -3.52      0.00
  -35    3    6      7.09      0.00
  -33    3    6     -1.28      0.00
  -31    3    6     -2.37      0.00
  -29    3    6     -1.10      0.00
  -27    3    6     -3.07      0.00
  -25    3    6      7.07      0.00
  -23    3    6      2.09      0.00
  -21    3    6      4.07      0.00
  -19    3    6      5.04      0.00
  -17    3    6      2.16      0.00
  -15    3    6      0.73      0.00
  -13    3    6      2.37      0.00
  -11    3    6    -22.84      0.00
   -9    3    6    -11.07      0.00
   -7    3    6     15.46      0.00
   -5    3    6    -33.25      0.00
   -3    3    6    170.45      0.00
   -1    3    6    -31.57      0.00
    1    3    6    -37.89      0.00
    3    3    6     27.55      0.00
    5    3    6     47.11      0.00
    7    3    6      1.90      0.00
    9    3    6    -16.98      0.00
   11    3    6     -9.14      0.00
   13    3    6    -20.41      0.00
   15    3    6     -4.72      0.00
   17    3    6      7.84      0.00
   19    3    6     -3.10      0.00
   21    3    6     -5.70      0.00
   23    3    6      2.51      0.00
   25    3    6      7.88      0.00
   27    3    6     -0.98      0.00
   29    3    6     -3.51      0.00
   31    3    6    -10.46      0.00
   33    3    6     -4.35      0.00
   35    3    6      3.73      0.00
   37    3    6     61.98      0.00
  -40    4    6      2.43      0.00
  -38    4    6     17.27      0.00
  -36    4    6      1.43      0.00
  -34    4    6      0.48      0.00
  -32    4    6     -0.62      0.00
  -30    4    6     -3.16      0.00
  -28    4    6      3.71      0.00
  -26    4    6     -0.12      0.00
  -24    4    6      2.28      0.00
  -22    4    6     -0.96      0.00
  -20    4    6     -2.71      0.00
  -18    4    6     -3.71      0.00
  -16    4    6     12.83      0.00
  -14    4    6      0.07      0.00
  -12    4    6     -2.18      0.00
  -10    4    6     37.26      0.00
   -8    4    6     -3.10      0.00
   -6    4    6    -39.62      0.00
   -4    4    6    -31.44      0.00
   -2    4    6     14.80      0.00
    0    4    6     24.06      0.00
    2    4    6     81.93      0.00
    4    4    6     -9.63      0.00
    6    4    6     12.90      0.00
    8    4    6     16.68      0.00
   10    4    6     -4.99      0.00
   12    4    6     16.51      0.00
   14    4    6     22.81      0.00
   16    4    6     -7.34      0.00
   18    4    6    -12.34      0.00
   20    4    6      0.45      0.00
   22    4    6      3.83      0.00
   24    4    6     -4.49      0.00
   26    4    6     -6.91      0.00
   28    4    6     -5.92      0.00
   30    4    6      8.75      0.00
   32    4    6    -19.71      0.00
   34    4    6     18.17      0.00
   36    4    6     -3.75      0.00
  -39    5    6     13.85      0.00
  -37    5    6     -6.28      0.00
  -35    5    6    -16.29      0.00
  -33    5    6      2.75      0.00
  -31    5    6      3.67      0.00
  -29    5    6     -2.18      0.00
  -27    5    6     -6.74      0.00
  -25    5    6      4.27      0.00
  -23    5    6      2.20      0.00
  -21    5    6      1.35      0.00
  -19    5    6     -5.05      0.00
  -17    5    6     -6.55      0.00
  -15    5    6     -4.76      0.00
  -13    5    6      0.36      0.00
  -11    5    6      3.27      0.00
   -9    5    6     -0.96      0.00
   -7    5    6     11.01      0.00
   -5    5    6     33.66      0.00
   -3    5    6      2.98      0.00
   -1    5    6    -63.62      0.00
    1    5    6    -14.20      0.00
    3    5    6    -27.73      0.00
    5    5    6     35.25      0.00
    7    5    6    -14.80      0.00
    9    5    6      4.60      0.00
   11    5    6      8.47      0.00
   13    5    6     -9.67      0.00
   15    5    6     -1.72      0.00
   17    5    6      8.60      0.00
   19    5    6      6.61      0.00
   21    5    6     -0.06      0.00
   23    5    6      7.53      0.00
   25    5    6     -1.11      0.00
   27    5    6      4.02      0.00
   29    5    6     -0.96      0.00
   31    5    6      1.89      0.00
   33    5    6      4.69      0.00
   35    5    6      9.86      0.00
  -40    6    6      8.02      0.00
  -38    6    6     -4.62      0.00
  -36    6    6     -2.07      0.00
  -34    6    6      2.51      0.00
  -32    6    6      1.31      0.00
  -30    6    6      2.68      0.00
  -28    6    6      2.41      0.00
  -26    6    6     -1.51      0.00
  -24    6    6     -5.00      0.00
  -22    6    6     -4.78      0.00
  -20    6    6      4.89      0.00
  -18    6    6      2.37      0.00
  -16    6    6     -2.77      0.00
  -14    6    6      1.27      0.00
  -12    6    6     -8.48      0.00
  -10    6    6      0.06      0.00
   -8    6    6      1.04      0.00
   -6    6    6    -25.14      0.00
   -4    6    6     20.92      0.00
   -2    6    6     18.28      0.00
    0    6    6     26.40      0.00
    2    6    6      9.12      0.00
    4    6    6     16.27      0.00
    6    6    6     -2.04      0.00
    8    6    6      9.52      0.00
   10    6    6      2.03      0.00
   12    6    6      3.52      0.00
   14    6    6      6.95      0.00
   16    6    6     -1.60      0.00
   18    6    6     -5.28      0.00
   20    6    6      7.18      0.00
   22    6    6      3.79      0.00
   24    6    6     -4.37      0.00
   26    6    6     -2.40      0.00
   28    6    6     12.92      0.00
   30    6    6      1.71      0.00
   32    6    6     -0.54      0.00
   34    6    6      6.96      0.00
   36    6    6     28.45      0.00
  -39    7    6      6.83      0.00
  -37    7    6     -4.01      0.00
  -35    7    6      3.51      0.00
  -33    7    6      9.27      0.00
  -31    7    6     -3.48      0.00
  -29    7    6      4.66      0.00
  -27    7    6     -1.15      0.00
  -25    7    6      9.91      0.00
  -23    7    6      2.70      0.00
  -21    7    6      4.02      0.00
  -19    7    6      2.49      0.00
  -17    7    6     -5.04      0.00
  -15    7    6      4.77      0.00
  -13    7    6     -4.24      0.00
  -11    7    6      7.15      0.00
   -9    7    6    -15.71      0.00
   -7    7    6     42.03      0.00
   -5    7    6     15.22      0.00
   -3    7    6      8.97      0.00
   -1    7    6    -30.59      0.00
    1    7    6     -6.04      0.00
    3    7    6     -5.35      0.00
    5    7    6    -10.30      0.00
    7    7    6     -3.99      0.00
    9    7    6     -9.33      0.00
   11    7    6      5.22      0.00
   13    7    6      4.11      0.00
   15    7    6      3.72      0.00
   17    7    6     10.58      0.00
   19    7    6      0.83      0.00
   21    7    6     -1.10      0.00
   23    7    6      8.82      0.00
   25    7    6      3.13      0.00
   27    7    6      0.83      0.00
   29    7    6      4.41      0.00
   31    7    6     -1.98      0.00
   33    7    6     -1.18      0.00
   35    7    6     21.81      0.00
  -38    8    6      5.19      0.00
  -36    8    6      2.62      0.00
  -34    8    6      6.38      0.00
  -32    8    6     -2.18      0.00
  -30    8    6      3.69      0.00
  -28    8    6     -1.18      0.00
  -26    8    6     -1.55      0.00
  -24    8    6      0.74      0.00
  -22    8    6     -5.85      0.00
  -20    8    6     -0.72      0.00
  -18    8    6     -0.47      0.00
  -16    8    6      0.74      0.00
  -14    8    6     14.06      0.00
  -12    8    6      8.21      0.00
  -10    8    6     16.50      0.00
   -8    8    6     -5.99      0.00
   -6    8    6    -29.01      0.00
   -4    8    6     -3.81      0.00
   -2    8    6     19.37      0.00
    0    8    6      1.01      0.00
    2    8    6     -7.57      0.00
    4    8    6     15.35      0.00
    6    8    6      9.89      0.00
    8    8    6    -10.22      0.00
   10    8    6     21.60      0.00
   12    8    6     -7.08      0.00
   14    8    6     -0.96      0.00
   16    8    6     -0.22      0.00
   18    8    6      3.10      0.00
   20    8    6    -12.28      0.00
   22    8    6     -5.38      0.00
   24    8    6     -4.68      0.00
   26    8    6    -11.38      0.00
   28    8    6     -2.31      0.00
   30    8    6     -4.13      0.00
   32    8    6     -6.08      0.00
   34    8    6      9.35      0.00
  -37    9    6     -6.81      0.00
  -35    9    6      6.63      0.00
  -33    9    6     -4.72      0.00
  -31    9    6      9.00      0.00
  -29    9    6      1.35      0.00
  -27    9    6     -2.15      0.00
  -25    9    6     -1.72      0.00
  -23    9    6     -1.88      0.00
  -21    9    6      1.15      0.00
  -19    9    6      7.99      0.00
  -17    9    6      5.82      0.00
  -15    9    6      1.74      0.00
  -13    9    6      9.23      0.00
  -11    9    6    -20.77      0.00
   -9    9    6      5.89      0.00
   -7    9    6     21.87      0.00
   -5    9    6     12.08      0.00
   -3    9    6    -11.44      0.00
   -1    9    6    -14.73      0.00
    1    9    6      2.99      0.00
    3    9    6    -13.13      0.00
    5    9    6      8.81      0.00
    7    9    6      3.21      0.00
    9    9    6      7.23      0.00
   11    9    6    -10.50      0.00
   13    9    6      8.18      0.00
   15    9    6      7.37      0.00
   17    9    6      3.27      0.00
   19    9    6      6.82      0.00
   21    9    6      4.91      0.00
   23    9    6     -8.63      0.00
   25    9    6    -14.02      0.00
   27    9    6      9.68      0.00
   29    9    6      2.41      0.00
   31    9    6     -0.63      0.00
   33    9    6    -11.64      0.00
  -36   10    6      8.71      0.00
  -34   10    6     -3.20      0.00
  -32   10    6      1.37      0.00
  -30   10    6      2.92      0.00
  -28   10    6      2.02      0.00
  -26   10    6     -7.84      0.00
  -24   10    6      5.94      0.00
  -22   10    6     -2.87      0.00
  -20   10    6      5.79      0.00
  -18   10    6      3.54      0.00
  -16   10    6      9.84      0.00
  -14   10    6     -8.44      0.00
  -12   10    6     11.80      0.00
  -10   10    6     10.10      0.00
   -8   10    6     -6.12      0.00
   -6   10    6    -11.56      0.00
   -4   10    6      1.81      0.00
   -2   10    6     16.33      0.00
    0   10    6     -5.83      0.00
    2   10    6      4.83      0.00
    4   10    6     -2.74      0.00
    6   10    6     -0.25      0.00
    8   10    6     -7.75      0.00
   10   10    6      1.13      0.00
   12   10    6     -8.20      0.00
   14   10    6    -10.54      0.00
   16   10    6      3.65      0.00
   18   10    6     -1.15      0.00
   20   10    6     -7.86      0.00
   22   10    6      4.63      0.00
   24   10    6     -3.14      0.00
   26   10    6      5.43      0.00
   28   10    6     -3.07      0.00
   30   10    6     -1.15      0.00
   32   10    6      6.98      0.00
  -35   11    6     -0.60      0.00
  -33   11    6     15.18      0.00
  -31   11    6      2.63      0.00
  -29   11    6     -1.99      0.00
  -27   11    6      2.50      0.00
  -25   11    6     -0.33      0.00
  -23   11    6     -2.33      0.00
  -21   11    6      1.12      0.00
  -19   11    6      5.78      0.00
  -17   11    6     -8.03      0.00
  -15   11    6     -7.17      0.00
  -13   11    6     -7.08      0.00
  -11   11    6     -7.12      0.00
   -9   11    6      1.05      0.00
   -7   11    6     17.26      0.00
   -5   11    6      0.22      0.00
   -3   11    6      9.35      0.00
   -1   11    6     -0.58      0.00
    1   11    6      8.56      0.00
    3   11    6     -1.87      0.00
    5   11    6     13.98      0.00
    7   11    6      2.66      0.00
    9   11    6     -0.75      0.00
   11   11    6      1.20      0.00
   13   11    6      1.77      0.00
   15   11    6      9.44      0.00
   17   11    6      4.25      0.00
   19   11    6     -1.36      0.00
   21   11    6      3.67      0.00
   23   11    6     -2.63      0.00
   25   11    6      1.93      0.00
   27   11    6     15.23      0.00
   29   11    6     -1.15      0.00
   31   11    6    -26.98      0.00
  -34   12    6    -20.31      0.00
  -32   12    6     -2.59      0.00
  -30   12    6     -3.71      0.00
  -28   12    6      3.15      0.00
  -26   12    6      1.26      0.00
  -24   12    6     -1.23      0.00
  -22   12    6    -10.55      0.00
  -20   12    6    -12.59      0.00
  -18   12    6     -0.94      0.00
  -16   12    6     -0.50      0.00
  -14   12    6      9.60      0.00
  -12   12    6      7.26      0.00
  -10   12    6     -5.44      0.00
   -8   12    6     -3.33      0.00
   -6   12    6     -8.08      0.00
   -4   12    6      7.60      0.00
   -2   12    6     -4.38      0.00
    0   12    6      3.47      0.00
    2   12    6     -4.04      0.00
    4   12    6      3.33      0.00
    6   12    6      7.87      0.00
    8   12    6      3.77      0.00
   10   12    6      3.79      0.00
   12   12    6     -4.82      0.00
   14   12    6    -10.08      0.00
   16   12    6     -2.74      0.00
   18   12    6      8.62      0.00
   20   12    6     -4.50      0.00
   22   12    6      1.68      0.00
   24   12    6      6.51      0.00
   26   12    6      4.73      0.00
   28   12    6      8.74      0.00
   30   12    6      9.01      0.00
  -33   13    6      1.33      0.00
  -31   13    6      1.42      0.00
  -29   13    6      8.65      0.00
  -27   13    6      6.75      0.00
  -25   13    6     -1.35      0.00
  -23   13    6     -1.90      0.00
  -21   13    6     -3.31      0.00
  -19   13    6     -1.06      0.00
  -17   13    6     -5.31      0.00
  -15   13    6    -10.85      0.00
  -13   13    6     -9.93      0.00
  -11   13    6     14.27      0.00
   -9   13    6      2.84      0.00
   -7   13    6      5.94      0.00
   -5   13    6      5.44      0.00
   -3   13    6      8.25      0.00
   -1   13    6      7.40      0.00
    1   13    6     -0.53      0.00
    3   13    6     -1.35      0.00
    5   13    6     -7.10      0.00
    7   13    6      7.14      0.00
    9   13    6      3.95      0.00
   11   13    6     -2.45      0.00
   13   13    6      8.67      0.00
   15   13    6      2.05      0.00
   17   13    6     -3.55      0.00
   19   13    6      1.49      0.00
   21   13    6     -2.95      0.00
   23   13    6      4.49      0.00
   25   13    6     -1.62      0.00
   27   13    6      1.76      0.00
   29   13    6    -12.56      0.00
  -32   14    6      1.80      0.00
  -30   14    6      6.70      0.00
  -28   14    6     -7.47      0.00
  -26   14    6     -0.02      0.00
  -24   14    6     -7.30      0.00
  -22   14    6      4.13      0.00
  -20   14    6      2.88      0.00
  -18   14    6      3.43      0.00
  -16   14    6     -1.79      0.00
  -14   14    6      0.94      0.00
  -12   14    6      1.76      0.00
  -10   14    6     -9.67      0.00
   -8   14    6     -1.86      0.00
   -6   14    6      4.44      0.00
   -4   14    6      3.67      0.00
   -2   14    6      1.32      0.00
    0   14    6      2.96      0.00
    2   14    6     -7.69      0.00
    4   14    6     -0.89      0.00
    6   14    6     12.87      0.00
    8   14    6      2.77      0.00
   10   14    6     -1.92      0.00
   12   14    6     -0.62      0.00
   14   14    6      7.18      0.00
   16   14    6      3.07      0.00
   18   14    6      6.91      0.00
   20   14    6      1.66      0.00
   22   14    6    -11.06      0.00
   24   14    6    -10.62      0.00
   26   14    6     -7.09      0.00
  -31   15    6     10.90      0.00
  -29   15    6      9.69      0.00
  -27   15    6     -3.99      0.00
  -25   15    6    -15.74      0.00
  -23   15    6     -6.11      0.00
  -21   15    6     10.99      0.00
  -19   15    6      3.26      0.00
  -17   15    6     15.59      0.00
  -15   15    6     -4.61      0.00
  -13   15    6      2.30      0.00
  -11   15    6     -1.42      0.00
   -9   15    6     -2.03      0.00
   -7   15    6    -14.86      0.00
   -5   15    6     -9.28      0.00
   -3   15    6     -2.74      0.00
   -1   15    6      1.89      0.00
    1   15    6     -0.25      0.00
    3   15    6      1.58      0.00
    5   15    6      5.54      0.00
    7   15    6     -0.29      0.00
    9   15    6     -2.23      0.00
   11   15    6      3.48      0.00
   13   15    6     -1.02      0.00
   15   15    6      0.24      0.00
   17   15    6     -4.44      0.00
   19   15    6      6.49      0.00
   21   15    6      9.15      0.00
   23   15    6      2.10      0.00
   25   15    6     -1.07      0.00
  -30   16    6     -4.29      0.00
  -28   16    6     -6.32      0.00
  -26   16    6    -10.02      0.00
  -24   16    6      0.64      0.00
  -22   16    6     -0.47      0.00
  -20   16    6     -1.10      0.00
  -18   16    6     -3.17      0.00
  -16   16    6      1.91      0.00
  -14   16    6     -8.43      0.00
  -12   16    6     -0.48      0.00
  -10   16    6      1.61      0.00
   -8   16    6      4.82      0.00
   -6   16    6      9.71      0.00
   -4   16    6     -1.46      0.00
   -2   16    6     -7.35      0.00
    0   16    6      0.71      0.00
    2   16    6      0.53      0.00
    4   16    6     -3.88      0.00
    6   16    6      4.61      0.00
    8   16    6      8.04      0.00
   10   16    6     -5.99      0.00
   12   16    6     -0.22      0.00
   14   16    6      1.72      0.00
   16   16    6    -10.07      0.00
   18   16    6    -11.59      0.00
   20   16    6     -4.34      0.00
   22   16    6     13.47      0.00
   24   16    6     -4.88      0.00
  -27   17    6     -3.75      0.00
  -25   17    6      1.74      0.00
  -23   17    6     -5.50      0.00
  -21   17    6      3.80      0.00
  -19   17    6      5.62      0.00
  -17   17    6     -5.45      0.00
  -15   17    6      1.60      0.00
  -13   17    6     -4.47      0.00
  -11   17    6     -7.15      0.00
   -9   17    6     -2.42      0.00
   -7   17    6      6.05      0.00
   -5   17    6     15.21      0.00
   -3   17    6     -2.26      0.00
   -1   17    6      0.77      0.00
    1   17    6      5.23      0.00
    3   17    6     -8.91      0.00
    5   17    6     -7.82      0.00
    7   17    6    -11.30      0.00
    9   17    6     -8.44      0.00
   11   17    6      0.51      0.00
   13   17    6     -3.21      0.00
   15   17    6     -1.82      0.00
   17   17    6    -12.18      0.00
   19   17    6     -2.98      0.00
   21   17    6     -1.51      0.00
   23   17    6     -3.66      0.00
  -24   18    6     -7.09      0.00
  -22   18    6     -2.04      0.00
  -20   18    6      9.62      0.00
  -18   18    6      2.16      0.00
  -16   18    6     -8.75      0.00
  -14   18    6      7.72      0.00
  -12   18    6     -9.09      0.00
  -10   18    6     -1.88      0.00
   -8   18    6     -2.59      0.00
   -6   18    6      2.75      0.00
   -4   18    6     -8.03      0.00
   -2   18    6     -2.11      0.00
    0   18    6     -2.40      0.00
    2   18    6    -10.42      0.00
    4   18    6     -5.85      0.00
    6   18    6      7.80      0.00
    8   18    6      8.65      0.00
   10   18    6      0.70      0.00
   12   18    6      8.65      0.00
   14   18    6    -11.70      0.00
   16   18    6      4.90      0.00
   18   18    6      3.48      0.00
   20   18    6    -12.58      0.00
  -21   19    6     -5.23      0.00
  -19   19    6    -11.25      0.00
  -17   19    6     -4.24      0.00
  -15   19    6    -11.68      0.00
  -13   19    6     -6.65      0.00
  -11   19    6    -11.67      0.00
   -9   19    6     -0.29      0.00
   -7   19    6     -0.69      0.00
   -5   19    6      2.49      0.00
   -3   19    6      0.23      0.00
   -1   19    6     -3.83      0.00
    1   19    6     13.97      0.00
    3   19    6      3.90      0.00
    5   19    6     -6.19      0.00
    7   19    6      7.88      0.00
    9   19    6     -0.93      0.00
   11   19    6     -3.55      0.00
   13   19    6      7.35      0.00
   15   19    6     -4.92      0.00
   17   19    6      6.96      0.00
  -18   20    6      4.95      0.00
  -16   20    6      4.09      0.00
  -14   20    6      3.68      0.00
  -12   20    6      3.90      0.00
  -10   20    6     -4.24      0.00
   -8   20    6      2.91      0.00
   -6   20    6      4.96      0.00
   -4   20    6      9.48      0.00
   -2   20    6      1.72      0.00
    0   20    6     -1.16      0.00
    2   20    6     -3.60      0.00
    4   20    6      4.90      0.00
    6   20    6     -0.89      0.00
    8   20    6     12.62      0.00
   10   20    6      8.38      0.00
   12   20    6     -2.78      0.00
   14   20    6      2.02      0.00
  -15   21    6      5.42      0.00
  -13   21    6    -10.45      0.00
  -11   21    6    -14.24      0.00
   -9   21    6     -6.28      0.00
   -7   21    6     -1.81      0.00
   -5   21    6      9.83      0.00
   -3   21    6      2.25      0.00
   -1   21    6      4.86      0.00
    1   21    6     -0.36      0.00
    3   21    6      3.49      0.00
    5   21    6      1.47      0.00
    7   21    6     -3.07      0.00
    9   21    6     -9.09      0.00
   -6   22    6     -0.78      0.00
   -4   22    6      4.82      0.00
   -2   22    6      2.62      0.00
    0   22    6     -6.57      0.00
  -41    1    7    -38.50      0.00
  -39    1    7     -3.76      0.00
  -37    1    7    -11.96      0.00
  -35    1    7     -4.33      0.00
  -33    1    7      0.13      0.00
  -31    1    7     10.54      0.00
  -29    1    7      0.41      0.00
  -27    1    7      2.53      0.00
  -25    1    7     -4.04      0.00
  -23    1    7     -9.71      0.00
  -21    1    7     -6.91      0.00
  -19    1    7     -6.96      0.00
  -17    1    7      0.23      0.00
  -15    1    7     -7.30      0.00
  -13    1    7      2.78      0.00
  -11    1    7      0.32      0.00
   -9    1    7      5.35      0.00
   -7    1    7     23.29      0.00
   -5    1    7    -23.40      0.00
   -3    1    7    -85.45      0.00
   -1    1    7     -7.84      0.00
    1    1    7     60.98      0.00
    3    1    7     21.53      0.00
    5    1    7     11.93      0.00
    7    1    7      6.94      0.00
    9    1    7     10.75      0.00
   11    1    7      1.54      0.00
   13    1    7      8.89      0.00
   15    1    7      1.19      0.00
   17    1    7     -4.43      0.00
   19    1    7     -1.83      0.00
   21    1    7      1.75      0.00
   23    1    7      2.55      0.00
   25    1    7      0.35      0.00
   27    1    7     -5.76      0.00
   29    1    7      2.05      0.00
   31    1    7     -7.05      0.00
   33    1    7      6.04      0.00
   35    1    7    -10.22      0.00
  -42    2    7    -55.53      0.00
  -40    2    7     11.23      0.00
  -38    2    7      6.71      0.00
  -36    2    7     -8.53      0.00
  -34    2    7      2.85      0.00
  -32    2    7     -5.08      0.00
  -30    2    7     -5.77      0.00
  -28    2    7     -8.86      0.00
  -26    2    7     -2.75      0.00
  -24    2    7      2.29      0.00
  -22    2    7      1.85      0.00
  -20    2    7      5.66      0.00
  -18    2    7     12.91      0.00
  -16    2    7     13.23      0.00
  -14    2    7      8.05      0.00
  -12    2    7    -12.96      0.00
  -10    2    7    -13.07      0.00
   -8    2    7     -4.79      0.00
   -6    2    7     18.67      0.00
   -4    2    7    -74.37      0.00
   -2    2    7     20.90      0.00
    0    2    7      2.93      0.00
    2    2    7     12.29      0.00
    4    2    7     57.58      0.00
    6    2    7     13.94      0.00
    8    2    7    -17.20      0.00
   10    2    7      0.48      0.00
   12    2    7      9.22      0.00
   14    2    7    -16.93      0.00
   16    2    7     -3.56      0.00
   18    2    7      6.67      0.00
   20    2    7     -4.96      0.00
   22    2    7      0.23      0.00
   24    2    7      1.48      0.00
   26    2    7      2.70      0.00
   28    2    7     -4.37      0.00
   30    2    7     -2.18      0.00
   32    2    7      0.15      0.00
   34    2    7     47.02      0.00
   36    2    7     40.65      0.00
  -41    3    7    -33.58      0.00
  -39    3    7    -10.39      0.00
  -37    3    7      9.63      0.00
  -35    3    7     -3.22      0.00
  -33    3    7      0.18      0.00
  -31    3    7     -2.66      0.00
  -29    3    7      0.23      0.00
  -27    3    7     -1.70      0.00
  -25    3    7     -2.09      0.00
  -23    3    7     -0.39      0.00
  -21    3    7     -4.85      0.00
  -19    3    7     -1.61      0.00
  -17    3    7     10.29      0.00
  -15    3    7      0.22      0.00
  -13    3    7    -13.31      0.00
  -11    3    7      4.92      0.00
   -9    3    7    -12.72      0.00
   -7    3    7    -40.79      0.00
   -5    3    7      6.33      0.00
   -3    3    7     38.26      0.00
   -1    3    7    -48.54      0.00
    1    3    7     36.10      0.00
    3    3    7     52.42      0.00
    5    3    7     -8.54      0.00
    7    3    7     26.17      0.00
    9    3    7     -3.76      0.00
   11    3    7     -6.42      0.00
   13    3    7      1.69      0.00
   15    3    7     -2.68      0.00
   17    3    7     -8.78      0.00
   19    3    7     -9.05      0.00
   21    3    7      4.95      0.00
   23    3    7     -2.03      0.00
   25    3    7    -12.02      0.00
   27    3    7     -9.16      0.00
   29    3    7      8.05      0.00
   31    3    7     -8.72      0.00
   33    3    7     -3.45      0.00
   35    3    7      9.11      0.00
  -40    4    7    -14.77      0.00
  -38    4    7     -5.68      0.00
  -36    4    7    -25.14      0.00
  -34    4    7     -7.78      0.00
  -32    4    7     -0.24      0.00
  -30    4    7     -4.69      0.00
  -28    4    7      1.11      0.00
  -26    4    7     -2.16      0.00
  -24    4    7     -0.25      0.00
  -22    4    7      1.25      0.00
  -20    4    7     -6.62      0.00
  -18    4    7      0.45      0.00
  -16    4    7     16.41      0.00
  -14    4    7    -10.78      0.00
  -12    4    7     -0.80      0.00
  -10    4    7     10.09      0.00
   -8    4    7     23.82      0.00
   -6    4    7     20.74      0.00
   -4    4    7    -63.11      0.00
   -2    4    7    -59.69      0.00
    0    4    7     30.61      0.00
    2    4    7    -24.20      0.00
    4    4    7      8.40      0.00
    6    4    7      9.46      0.00
    8    4    7     -6.32      0.00
   10    4    7      6.55      0.00
   12    4    7     11.16      0.00
   14    4    7     -6.00      0.00
   16    4    7     -2.02      0.00
   18    4    7      9.55      0.00
   20    4    7     -2.36      0.00
   22    4    7     -1.73      0.00
   24    4    7     -1.64      0.00
   26    4    7      5.14      0.00
   28    4    7     -8.81      0.00
   30    4    7     -0.99      0.00
   32    4    7     -7.24      0.00
   34    4    7     -1.06      0.00
   36    4    7    -22.28      0.00
  -39    5    7      2.30      0.00
  -37    5    7     -2.04      0.00
  -35    5    7     12.94      0.00
  -33    5    7      3.82      0.00
  -31    5    7      2.44      0.00
  -29    5    7      3.61      0.00
  -27    5    7      0.07      0.00
  -25    5    7     -0.99      0.00
  -23    5    7     -7.70      0.00
  -21    5    7     -0.66      0.00
  -19    5    7      0.46      0.00
  -17    5    7     -1.08      0.00
  -15    5    7    -13.26      0.00
  -13    5    7    -16.96      0.00
  -11    5    7    -15.66      0.00
   -9    5    7    -26.03      0.00
   -7    5    7     17.82      0.00
   -5    5    7     31.43      0.00
   -3    5    7     -6.51      0.00
   -1    5    7     19.19      0.00
    1    5    7    -18.22      0.00
    3    5    7     -8.89      0.00
    5    5    7      1.31      0.00
    7    5    7      0.53      0.00
    9    5    7      2.05      0.00
   11    5    7     -1.04      0.00
   13    5    7     -3.09      0.00
   15    5    7     -2.56      0.00
   17    5    7      0.00      0.00
   19    5    7     -3.86      0.00
   21    5    7     -2.35      0.00
   23    5    7     -5.22      0.00
   25    5    7    -13.94      0.00
   27    5    7     13.58      0.00
   29    5    7      6.38      0.00
   31    5    7     -0.50      0.00
   33    5    7    -18.22      0.00
   35    5    7     30.26      0.00
  -40    6    7      5.15      0.00
  -38    6    7     -4.29      0.00
  -36    6    7      9.22      0.00
  -34    6    7     -4.63      0.00
  -32    6    7     -2.53      0.00
  -30    6    7     -1.91      0.00
  -28    6    7     -0.25      0.00
  -26    6    7     -5.72      0.00
  -24    6    7      1.33      0.00
  -22    6    7     -0.30      0.00
  -20    6    7      7.99      0.00
  -18    6    7     14.29      0.00
  -16    6    7     13.13      0.00
  -14    6    7     10.01      0.00
  -12    6    7     10.00      0.00
  -10    6    7     -3.97      0.00
   -8    6    7     -0.73      0.00
   -6    6    7    -10.91      0.00
   -4    6    7      9.25      0.00
   -2    6    7     -0.29      0.00
    0    6    7      5.39      0.00
    2    6    7     27.02      0.00
    4    6    7     -2.73      0.00
    6    6    7     -1.00      0.00
    8    6    7      3.07      0.00
   10    6    7     -1.62      0.00
   12    6    7      7.06      0.00
   14    6    7      3.28      0.00
   16    6    7      7.99      0.00
   18    6    7     -1.21      0.00
   20    6    7     -2.57      0.00
   22    6    7      4.00      0.00
   24    6    7      8.10      0.00
   26    6    7      0.41      0.00
   28    6    7    -12.81      0.00
   30    6    7     -2.03      0.00
   32    6    7     -0.08      0.00
   34    6    7     13.83      0.00
  -39    7    7      0.49      0.00
  -37    7    7     -8.01      0.00
  -35    7    7     -3.54      0.00
  -33    7    7     -7.69      0.00
  -31    7    7     -1.81      0.00
  -29    7    7      1.25      0.00
  -27    7    7     -1.03      0.00
  -25    7    7      2.33      0.00
  -23    7    7      1.10      0.00
  -21    7    7     -0.27      0.00
  -19    7    7     -2.53      0.00
  -17    7    7     -3.13      0.00
  -15    7    7     -6.27      0.00
  -13    7    7    -20.84      0.00
  -11    7    7     -9.00      0.00
   -9    7    7     -3.01      0.00
   -7    7    7     26.25      0.00
   -5    7    7    -21.99      0.00
   -3    7    7    -14.52      0.00
   -1    7    7    -11.57      0.00
    1    7    7     -8.45      0.00
    3    7    7    -21.94      0.00
    5    7    7     19.73      0.00
    7    7    7     -4.83      0.00
    9    7    7     -4.27      0.00
   11    7    7     10.14      0.00
   13    7    7     -2.11      0.00
   15    7    7      0.78      0.00
   17    7    7     10.47      0.00
   19    7    7     -1.52      0.00
   21    7    7      2.98      0.00
   23    7    7    -10.86      0.00
   25    7    7      0.75      0.00
   27    7    7      1.05      0.00
   29    7    7     -0.08      0.00
   31    7    7      4.76      0.00
   33    7    7     -0.40      0.00
   35    7    7      6.16      0.00
  -38    8    7      6.14      0.00
  -36    8    7      0.83      0.00
  -34    8    7    -14.30      0.00
  -32    8    7     -0.43      0.00
  -30    8    7     -2.18      0.00
  -28    8    7     -3.71      0.00
  -26    8    7      4.80      0.00
  -24    8    7     -1.54      0.00
  -22    8    7     -4.30      0.00
  -20    8    7     -3.81      0.00
  -18    8    7      2.17      0.00
  -16    8    7     -2.50      0.00
  -14    8    7      4.00      0.00
  -12    8    7      6.23      0.00
  -10    8    7     17.63      0.00
   -8    8    7    -27.74      0.00
   -6    8    7      6.46      0.00
   -4    8    7     22.19      0.00
   -2    8    7     -3.50      0.00
    0    8    7     18.35      0.00
    2    8    7    -12.58      0.00
    4    8    7     -8.07      0.00
    6    8    7      0.28      0.00
    8    8    7     13.19      0.00
   10    8    7      4.77      0.00
   12    8    7     -7.97      0.00
   14    8    7      2.43      0.00
   16    8    7      0.66      0.00
   18    8    7     -4.94      0.00
   20    8    7     -6.91      0.00
   22    8    7    -15.17      0.00
   24    8    7     -1.15      0.00
   26    8    7      4.97      0.00
   28    8    7     -6.23      0.00
   30    8    7      5.02      0.00
   32    8    7     -2.27      0.00
   34    8    7    -18.25      0.00
  -37    9    7      2.35      0.00
  -35    9    7      1.95      0.00
  -33    9    7      3.09      0.00
  -31    9    7     -3.38      0.00
  -29    9    7      8.61      0.00
  -27    9    7     -0.70      0.00
  -25    9    7      6.60      0.00
  -23    9    7      4.19      0.00
  -21    9    7      3.37      0.00
  -19    9    7      7.16      0.00
  -17    9    7      3.43      0.00
  -15    9    7     -2.61      0.00
  -13    9    7    -11.28      0.00
  -11    9    7     -4.13      0.00
   -9    9    7     15.99      0.00
   -7    9    7     17.98      0.00
   -5    9    7     -8.46      0.00
   -3    9    7    -14.85      0.00
   -1    9    7    -16.74      0.00
    1    9    7      9.45      0.00
    3    9    7      0.60      0.00
    5    9    7      5.29      0.00
    7    9    7     -2.66      0.00
    9    9    7     -9.83      0.00
   11    9    7      0.91      0.00
   13    9    7      2.44      0.00
   15    9    7      5.52      0.00
   17    9    7     -3.86      0.00
   19    9    7     -1.65      0.00
   21    9    7      6.15      0.00
   23    9    7      7.42      0.00
   25    9    7      7.96      0.00
   27    9    7     22.07      0.00
   29    9    7    -12.26      0.00
   31    9    7      5.93      0.00
   33    9    7    -19.50      0.00
  -36   10    7      0.84      0.00
  -34   10    7      1.55      0.00
  -32   10    7     -0.26      0.00
  -30   10    7     -0.36      0.00
  -28   10    7      0.19      0.00
  -26   10    7     -2.76      0.00
  -24   10    7      0.47      0.00
  -22   10    7     -0.86      0.00
  -20   10    7     -0.15      0.00
  -18   10    7      2.87      0.00
  -16   10    7     -2.53      0.00
  -14   10    7     -2.21      0.00
  -12   10    7     14.34      0.00
  -10   10    7     -2.77      0.00
   -8   10    7      6.04      0.00
   -6   10    7      0.07      0.00
   -4   10    7     20.64      0.00
   -2   10    7     -2.73      0.00
    0   10    7      4.18      0.00
    2   10    7    -19.10      0.00
    4   10    7      0.14      0.00
    6   10    7      9.14      0.00
    8   10    7     -1.15      0.00
   10   10    7     13.42      0.00
   12   10    7    -11.20      0.00
   14   10    7     -6.54      0.00
   16   10    7     -0.18      0.00
   18   10    7     -1.86      0.00
   20   10    7      5.42      0.00
   22   10    7     -1.64      0.00
   24   10    7     -5.35      0.00
   26   10    7     -1.84      0.00
   28   10    7     -5.98      0.00
   30   10    7     -6.83      0.00
   32   10    7      3.07      0.00
  -35   11    7     -1.26      0.00
  -33   11    7     -2.10      0.00
  -31   11    7     -5.50      0.00
  -29   11    7     -6.28      0.00
  -27   11    7     -0.35      0.00
  -25   11    7      5.64      0.00
  -23   11    7      1.39      0.00
  -21   11    7     -0.87      0.00
  -19   11    7      1.98      0.00
  -17   11    7     -5.00      0.00
  -15   11    7     -2.69      0.00
  -13   11    7     -5.27      0.00
  -11   11    7      3.42      0.00
   -9   11    7      0.88      0.00
   -7   11    7     -4.03      0.00
   -5   11    7      7.66      0.00
   -3   11    7     -0.02      0.00
   -1   11    7      0.33      0.00
    1   11    7     14.55      0.00
    3   11    7     -3.72      0.00
    5   11    7      2.94      0.00
    7   11    7     -1.06      0.00
    9   11    7      5.47      0.00
   11   11    7      6.33      0.00
   13   11    7      3.83      0.00
   15   11    7      8.53      0.00
   17   11    7     -1.97      0.00
   19   11    7     -0.52      0.00
   21   11    7      0.60      0.00
   23   11    7      7.34      0.00
   25   11    7     12.93      0.00
   27   11    7      1.28      0.00
   29   11    7      1.65      0.00
   31   11    7     16.94      0.00
  -34   12    7     -1.43      0.00
  -32   12    7      7.01      0.00
  -30   12    7      6.97      0.00
  -28   12    7     -9.33      0.00
  -26   12    7     -7.04      0.00
  -24   12    7      3.98      0.00
  -22   12    7      2.27      0.00
  -20   12    7     -2.09      0.00
  -18   12    7     -1.17      0.00
  -16   12    7      5.38      0.00
  -14   12    7     13.25      0.00
  -12   12    7      5.68      0.00
  -10   12    7     -1.23      0.00
   -8   12    7      4.44      0.00
   -6   12    7      0.03      0.00
   -4   12    7     -2.17      0.00
   -2   12    7     -7.24      0.00
    0   12    7     -8.66      0.00
    2   12    7     -5.28      0.00
    4   12    7     -0.06      0.00
    6   12    7      7.32      0.00
    8   12    7     -1.07      0.00
   10   12    7     -3.53      0.00
   12   12    7      1.41      0.00
   14   12    7      5.98      0.00
   16   12    7     -3.14      0.00
   18   12    7      2.05      0.00
   20   12    7      3.76      0.00
   22   12    7      2.26      0.00
   24   12    7     -1.43      0.00
   26   12    7     -5.87      0.00
   28   12    7      2.17      0.00
   30   12    7      3.47      0.00
  -33   13    7      0.27      0.00
  -31   13    7      2.40      0.00
  -29   13    7    -13.58      0.00
  -27   13    7      4.08      0.00
  -25   13    7      1.47      0.00
  -23   13    7      7.01      0.00
  -21   13    7      7.82      0.00
  -19   13    7      4.51      0.00
  -17   13    7      2.05      0.00
  -15   13    7      0.52      0.00
  -13   13    7      5.09      0.00
  -11   13    7     10.68      0.00
   -9   13    7      3.77      0.00
   -7   13    7     -0.94      0.00
   -5   13    7      2.81      0.00
   -3   13    7      7.45      0.00
   -1   13    7      8.07      0.00
    1   13    7      6.92      0.00
    3   13    7     -1.51      0.00
    5   13    7     -0.32      0.00
    7   13    7     -4.67      0.00
    9   13    7      5.61      0.00
   11   13    7      2.66      0.00
   13   13    7     -3.69      0.00
   15   13    7     -3.25      0.00
   17   13    7     -8.44      0.00
   19   13    7      3.33      0.00
   21   13    7     -2.75      0.00
   23   13    7     -6.68      0.00
   25   13    7     -6.97      0.00
   27   13    7      0.23      0.00
  -32   14    7     15.01      0.00
  -30   14    7      8.34      0.00
  -28   14    7    -10.14      0.00
  -26   14    7     -5.86      0.00
  -24   14    7      6.02      0.00
  -22   14    7      6.87      0.00
  -20   14    7     -6.24      0.00
  -18   14    7     -1.83      0.00
  -16   14    7     -1.01      0.00
  -14   14    7      1.99      0.00
  -12   14    7     -1.71      0.00
  -10   14    7      0.62      0.00
   -8   14    7     -5.17      0.00
   -6   14    7    -12.94      0.00
   -4   14    7      2.46      0.00
   -2   14    7     -5.44      0.00
    0   14    7      7.68      0.00
    2   14    7      3.32      0.00
    4   14    7      8.87      0.00
    6   14    7      5.93      0.00
    8   14    7     -2.19      0.00
   10   14    7     -3.26      0.00
   12   14    7      3.47      0.00
   14   14    7     -7.80      0.00
   16   14    7      2.21      0.00
   18   14    7      3.26      0.00
   20   14    7      2.78      0.00
   22   14    7     -2.02      0.00
   24   14    7      7.29      0.00
   26   14    7     -3.19      0.00
  -31   15    7     -9.10      0.00
  -29   15    7     -0.35      0.00
  -27   15    7    -11.52      0.00
  -25   15    7      6.53      0.00
  -23   15    7      7.02      0.00
  -21   15    7      3.86      0.00
  -19   15    7    -11.34      0.00
  -17   15    7     -0.76      0.00
  -15   15    7      7.09      0.00
  -13   15    7      7.91      0.00
  -11   15    7      3.43      0.00
   -9   15    7      7.18      0.00
   -5   15    7      2.63      0.00
   -3   15    7      3.55      0.00
   -1   15    7     -1.76      0.00
    1   15    7     12.24      0.00
    3   15    7      3.86      0.00
    5   15    7    -11.06      0.00
    7   15    7     -6.62      0.00
    9   15    7     -1.88      0.00
   11   15    7      6.98      0.00
   13   15    7      0.99      0.00
   15   15    7     -0.75      0.00
   17   15    7    -18.76      0.00
   19   15    7      0.67      0.00
   21   15    7     11.78      0.00
   23   15    7     -6.01      0.00
   25   15    7      1.78      0.00
  -30   16    7     -2.39      0.00
  -28   16    7      2.00      0.00
  -26   16    7      3.89      0.00
  -24   16    7     -5.06      0.00
  -22   16    7     -4.97      0.00
  -20   16    7      3.19      0.00
  -18   16    7      2.82      0.00
  -16   16    7     12.56      0.00
  -14   16    7      7.40      0.00
  -12   16    7     -2.72      0.00
  -10   16    7      4.07      0.00
   -8   16    7     17.80      0.00
   -6   16    7     19.41      0.00
   -4   16    7     -0.43      0.00
   -2   16    7     -4.36      0.00
    0   16    7     -5.31      0.00
    2   16    7    -11.65      0.00
    4   16    7     -2.14      0.00
    6   16    7      6.84      0.00
    8   16    7     -0.41      0.00
   10   16    7     -7.20      0.00
   12   16    7     -4.82      0.00
   14   16    7     -3.91      0.00
   16   16    7     -4.56      0.00
   18   16    7      9.13      0.00
   20   16    7     -4.68      0.00
   22   16    7      6.19      0.00
  -27   17    7      0.69      0.00
  -25   17    7      1.89      0.00
  -23   17    7      2.05      0.00
  -21   17    7      2.97      0.00
  -19   17    7     -7.73      0.00
  -17   17    7     -7.93      0.00
  -15   17    7      5.00      0.00
  -13   17    7     -0.76      0.00
  -11   17    7     -6.24      0.00
   -9   17    7    -18.99      0.00
   -7   17    7    -14.10      0.00
   -5   17    7      4.64      0.00
   -3   17    7      5.67      0.00
   -1   17    7     -2.78      0.00
    1   17    7     -1.62      0.00
    3   17    7     -0.56      0.00
    5   17    7      5.00      0.00
    7   17    7      4.64      0.00
    9   17    7     -9.16      0.00
   11   17    7      6.65      0.00
   13   17    7     -9.00      0.00
   15   17    7      6.53      0.00
   17   17    7      3.78      0.00
   19   17    7     -7.81      0.00
   21   17    7      1.09      0.00
  -24   18    7      8.67      0.00
  -22   18    7     -4.06      0.00
  -20   18    7     -6.51      0.00
  -18   18    7      4.00      0.00
  -16   18    7     -4.32      0.00
  -14   18    7      2.10      0.00
  -12   18    7     -2.14      0.00
  -10   18    7     -7.00      0.00
   -8   18    7      2.96      0.00
   -6   18    7      0.53      0.00
   -4   18    7     -0.31      0.00
   -2   18    7      5.49      0.00
    0   18    7      8.21      0.00
    2   18    7      6.32      0.00
    4   18    7      8.01      0.00
    6   18    7     14.99      0.00
    8   18    7     14.36      0.00
   10   18    7     -8.95      0.00
   12   18    7      3.29      0.00
   14   18    7      5.46      0.00
   16   18    7      3.60      0.00
   18   18    7     10.92      0.00
   20   18    7      2.56      0.00
  -21   19    7     -6.06      0.00
  -19   19    7     -1.67      0.00
  -17   19    7      4.29      0.00
  -15   19    7     -0.52      0.00
  -13   19    7      6.76      0.00
  -11   19    7     -7.30      0.00
   -9   19    7      3.24      0.00
   -7   19    7     -2.62      0.00
   -5   19    7     16.11      0.00
   -3   19    7     13.16      0.00
   -1   19    7      8.21      0.00
    1   19    7     -4.09      0.00
    3   19    7     -2.34      0.00
    5   19    7     -2.11      0.00
    7   19    7      1.66      0.00
    9   19    7    -10.41      0.00
   11   19    7      5.45      0.00
   13   19    7      4.29      0.00
   15   19    7     -0.91      0.00
   17   19    7     -5.70      0.00
  -18   20    7      8.31      0.00
  -16   20    7      7.52      0.00
  -14   20    7     -6.15      0.00
  -12   20    7      0.98      0.00
  -10   20    7     -4.77      0.00
   -8   20    7     -1.50      0.00
   -6   20    7     10.34      0.00
   -4   20    7      7.38      0.00
   -2   20    7      6.52      0.00
    0   20    7     -6.79      0.00
    2   20    7      0.90      0.00
    4   20    7     -1.63      0.00
    6   20    7      3.34      0.00
    8   20    7     -4.93      0.00
   10   20    7     -8.02      0.00
   12   20    7     -4.69      0.00
   14   20    7    -10.11      0.00
  -15   21    7     -1.53      0.00
  -13   21    7      2.70      0.00
  -11   21    7     -1.38      0.00
   -9   21    7    -10.47      0.00
   -7   21    7      7.62      0.00
   -5   21    7     -3.69      0.00
   -3   21    7     12.72      0.00
   -1   21    7     -2.13      0.00
    1   21    7     -3.53      0.00
    3   21    7      1.48      0.00
    5   21    7     -4.77      0.00
    7   21    7     -0.36      0.00
    9   21    7      7.49      0.00
   -6   22    7      2.23      0.00
   -4   22    7      1.85      0.00
   -2   22    7     -8.82      0.00
    0   22    7     -1.73      0.00
  -40    0    8      1.76      0.00
  -38    0    8    -45.10      0.00
  -36    0    8     -1.58      0.00
  -34    0    8     -0.34      0.00
  -32    0    8      3.39      0.00
  -30    0    8     -3.02      0.00
  -28    0    8      1.36      0.00
  -26    0    8      1.31      0.00
  -24    0    8     -1.31      0.00
  -22    0    8      6.92      0.00
  -20    0    8     15.03      0.00
  -18    0    8      8.23      0.00
  -16    0    8     16.31      0.00
  -14    0    8     -3.43      0.00
  -12    0    8    -18.08      0.00
  -10    0    8     -5.56      0.00
   -8    0    8      0.68      0.00
   -6    0    8    -21.94      0.00
   -4    0    8     10.87      0.00
   -2    0    8     83.09      0.00
    0    0    8     -8.89      0.00
    2    0    8     87.99      0.00
    4    0    8     50.95      0.00
    6    0    8     22.26      0.00
    8    0    8     28.05      0.00
   10    0    8     13.99      0.00
   12    0    8    -11.21      0.00
   14    0    8    -17.26      0.00
   16    0    8      0.43      0.00
   18    0    8     11.47      0.00
   20    0    8     -2.66      0.00
   22    0    8      4.02      0.00
   24    0    8     -2.91      0.00
   26    0    8      2.09      0.00
   28    0    8     14.37      0.00
   30    0    8     -2.13      0.00
   32    0    8      9.66      0.00
   34    0    8      8.47      0.00
  -41    1    8    -52.78      0.00
  -39    1    8      9.14      0.00
  -37    1    8      1.06      0.00
  -35    1    8      4.08      0.00
  -33    1    8     -1.84      0.00
  -31    1    8     -9.70      0.00
  -29    1    8    -10.92      0.00
  -27    1    8     -1.35      0.00
  -25    1    8     -2.90      0.00
  -23    1    8     -5.10      0.00
  -21    1    8    -15.40      0.00
  -19    1    8     -2.12      0.00
  -17    1    8     -6.48      0.00
  -15    1    8    -13.60      0.00
  -13    1    8      6.49      0.00
  -11    1    8     12.37      0.00
   -9    1    8     -1.60      0.00
   -7    1    8    -14.79      0.00
   -5    1    8    -41.21      0.00
   -3    1    8     62.01      0.00
   -1    1    8     53.75      0.00
    1    1    8     68.14      0.00
    3    1    8    -18.87      0.00
    5    1    8     -8.26      0.00
    7    1    8      9.26      0.00
    9    1    8    -31.15      0.00
   11    1    8     -4.15      0.00
   13    1    8     11.97      0.00
   15    1    8      9.43      0.00
   17    1    8     -3.06      0.00
   19    1    8      2.10      0.00
   21    1    8      0.46      0.00
   23    1    8     -7.28      0.00
   25    1    8      2.06      0.00
   27    1    8      0.99      0.00
   29    1    8     -2.62      0.00
   31    1    8    -13.53      0.00
   33    1    8      4.95      0.00
   35    1    8     -1.31      0.00
  -40    2    8    -19.62      0.00
  -38    2    8     26.03      0.00
  -36    2    8     -3.63      0.00
  -34    2    8      6.19      0.00
  -32    2    8     -8.69      0.00
  -30    2    8     -4.51      0.00
  -28    2    8      3.87      0.00
  -26    2    8     -0.38      0.00
  -24    2    8      6.71      0.00
  -22    2    8      5.02      0.00
  -20    2    8     11.61      0.00
  -18    2    8      4.20      0.00
  -16    2    8     13.52      0.00
  -14    2    8      0.85      0.00
  -12    2    8     22.55      0.00
  -10    2    8     37.02      0.00
   -8    2    8     15.94      0.00
   -6    2    8      6.69      0.00
   -4    2    8    -28.79      0.00
   -2    2    8      8.89      0.00
    0    2    8   -109.20      0.00
    2    2    8     22.25      0.00
    4    2    8     15.69      0.00
    6    2    8     37.05      0.00
    8    2    8     20.53      0.00
   10    2    8     12.45      0.00
   12    2    8      4.26      0.00
   14    2    8    -18.21      0.00
   16    2    8     -5.04      0.00
   18    2    8      0.82      0.00
   20    2    8     -1.46      0.00
   22    2    8    -13.04      0.00
   24    2    8     -7.72      0.00
   26    2    8      8.02      0.00
   28    2    8    -14.47      0.00
   30    2    8     -8.56      0.00
   32    2    8    -20.75      0.00
   34    2    8    -28.93      0.00
   36    2    8    -57.52      0.00
  -41    3    8    -33.93      0.00
  -39    3    8    -14.05      0.00
  -37    3    8      0.72      0.00
  -35    3    8     -0.78      0.00
  -33    3    8      2.57      0.00
  -31    3    8     -2.46      0.00
  -29    3    8      0.99      0.00
  -27    3    8     -0.66      0.00
  -25    3    8     -1.48      0.00
  -23    3    8      1.47      0.00
  -21    3    8      1.05      0.00
  -19    3    8     -5.52      0.00
  -17    3    8      5.20      0.00
  -15    3    8    -11.42      0.00
  -13    3    8    -22.85      0.00
  -11    3    8     -4.25      0.00
   -9    3    8     24.69      0.00
   -7    3    8    -20.37      0.00
   -5    3    8     39.73      0.00
   -3    3    8     35.44      0.00
   -1    3    8    -67.96      0.00
    1    3    8     39.38      0.00
    3    3    8      0.70      0.00
    5    3    8     -7.38      0.00
    7    3    8    -10.03      0.00
    9    3    8     -2.53      0.00
   11    3    8     -4.43      0.00
   13    3    8      8.88      0.00
   15    3    8     15.44      0.00
   17    3    8     -0.60      0.00
   19    3    8     -5.84      0.00
   21    3    8     -3.67      0.00
   23    3    8      1.65      0.00
   25    3    8     -8.02      0.00
   27    3    8     -2.97      0.00
   29    3    8     -1.99      0.00
   31    3    8    -33.44      0.00
   33    3    8    -50.37      0.00
   35    3    8    -54.00      0.00
  -40    4    8     23.14      0.00
  -38    4    8      7.02      0.00
  -36    4    8      0.92      0.00
  -34    4    8     -5.00      0.00
  -32    4    8     -6.69      0.00
  -30    4    8     -0.55      0.00
  -28    4    8      3.39      0.00
  -26    4    8      2.31      0.00
  -24    4    8      3.13      0.00
  -22    4    8     -6.86      0.00
  -20    4    8      1.63      0.00
  -18    4    8     -1.53      0.00
  -16    4    8    -13.33      0.00
  -14    4    8      8.89      0.00
  -12    4    8     -9.08      0.00
  -10    4    8      2.15      0.00
   -8    4    8     26.81      0.00
   -6    4    8     10.00      0.00
   -4    4    8    -42.61      0.00
   -2    4    8     15.38      0.00
    0    4    8    -19.69      0.00
    2    4    8    -32.62      0.00
    4    4    8    -28.39      0.00
    6    4    8     36.65      0.00
    8    4    8      5.94      0.00
   10    4    8      2.64      0.00
   12    4    8     13.04      0.00
   14    4    8     -2.41      0.00
   16    4    8     -7.31      0.00
   18    4    8      5.25      0.00
   20    4    8      7.32      0.00
   22    4    8     -5.39      0.00
   24    4    8     -5.77      0.00
   26    4    8      9.16      0.00
   28    4    8     -0.76      0.00
   30    4    8      8.52      0.00
   32    4    8    -21.44      0.00
   34    4    8     18.23      0.00
  -39    5    8      4.73      0.00
  -37    5    8      1.75      0.00
  -35    5    8      0.95      0.00
  -33    5    8      1.04      0.00
  -31    5    8      4.46      0.00
  -29    5    8      0.34      0.00
  -27    5    8     -2.76      0.00
  -25    5    8     -0.96      0.00
  -23    5    8     -1.12      0.00
  -21    5    8      0.58      0.00
  -19    5    8     -3.98      0.00
  -17    5    8    -15.64      0.00
  -15    5    8     -6.57      0.00
  -13    5    8     -0.45      0.00
  -11    5    8     -3.65      0.00
   -9    5    8      0.48      0.00
   -7    5    8      3.19      0.00
   -5    5    8      5.86      0.00
   -3    5    8     34.63      0.00
   -1    5    8    -23.62      0.00
    1    5    8     -5.69      0.00
    3    5    8     21.95      0.00
    5    5    8     -2.35      0.00
    7    5    8    -15.87      0.00
    9    5    8      6.39      0.00
   11    5    8      4.32      0.00
   13    5    8      5.67      0.00
   15    5    8     10.07      0.00
   17    5    8      2.98      0.00
   19    5    8     -6.60      0.00
   21    5    8      0.19      0.00
   23    5    8     12.30      0.00
   25    5    8      2.64      0.00
   27    5    8      1.88      0.00
   29    5    8     -5.99      0.00
   31    5    8      0.92      0.00
   33    5    8    -11.30      0.00
   35    5    8    -13.92      0.00
  -40    6    8     -9.39      0.00
  -38    6    8     -2.42      0.00
  -36    6    8    -16.06      0.00
  -34    6    8     -6.55      0.00
  -32    6    8     -0.49      0.00
  -30    6    8     -4.14      0.00
  -28    6    8      1.96      0.00
  -26    6    8     -7.96      0.00
  -24    6    8      2.73      0.00
  -22    6    8     -3.34      0.00
  -20    6    8      0.68      0.00
  -18    6    8     -1.88      0.00
  -16    6    8      4.59      0.00
  -14    6    8      6.61      0.00
  -12    6    8      3.82      0.00
  -10    6    8     10.63      0.00
   -8    6    8    -12.29      0.00
   -6    6    8     -3.76      0.00
   -4    6    8      4.17      0.00
   -2    6    8     -8.77      0.00
    0    6    8    -16.40      0.00
    2    6    8     -2.21      0.00
    4    6    8    -23.50      0.00
    6    6    8     31.73      0.00
    8    6    8     12.29      0.00
   10    6    8     -1.30      0.00
   12    6    8      4.29      0.00
   14    6    8      1.10      0.00
   16    6    8      0.63      0.00
   18    6    8      1.38      0.00
   20    6    8      3.91      0.00
   22    6    8      3.45      0.00
   24    6    8     -1.32      0.00
   26    6    8    -13.23      0.00
   28    6    8      5.17      0.00
   30    6    8      4.05      0.00
   32    6    8     -8.11      0.00
   34    6    8    -21.40      0.00
  -39    7    8     19.90      0.00
  -37    7    8     -0.18      0.00
  -35    7    8     -9.15      0.00
  -33    7    8     -2.43      0.00
  -31    7    8      0.51      0.00
  -29    7    8     -2.48      0.00
  -27    7    8      9.49      0.00
  -25    7    8      6.62      0.00
  -23    7    8      4.05      0.00
  -21    7    8      3.09      0.00
  -19    7    8     -1.57      0.00
  -17    7    8     -5.82      0.00
  -15    7    8     -6.63      0.00
  -13    7    8     -4.13      0.00
  -11    7    8      0.07      0.00
   -9    7    8     -1.99      0.00
   -7    7    8      6.82      0.00
   -5    7    8    -21.83      0.00
   -3    7    8      4.36      0.00
   -1    7    8      5.31      0.00
    1    7    8     19.89      0.00
    3    7    8    -16.40      0.00
    5    7    8     21.72      0.00
    7    7    8     -6.34      0.00
    9    7    8      0.83      0.00
   11    7    8     -0.46      0.00
   13    7    8     -8.73      0.00
   15    7    8     -4.73      0.00
   17    7    8     -6.40      0.00
   19    7    8     -8.85      0.00
   21    7    8    -14.39      0.00
   23    7    8      4.80      0.00
   25    7    8      3.15      0.00
   27    7    8     -1.13      0.00
   29    7    8     17.80      0.00
   31    7    8     10.15      0.00
   33    7    8    -26.54      0.00
  -38    8    8     -0.46      0.00
  -36    8    8     -2.29      0.00
  -34    8    8      3.14      0.00
  -32    8    8     -1.71      0.00
  -30    8    8      7.36      0.00
  -28    8    8      5.47      0.00
  -26    8    8     -3.54      0.00
  -24    8    8     -0.64      0.00
  -22    8    8    -11.08      0.00
  -20    8    8     -2.38      0.00
  -18    8    8      0.85      0.00
  -16    8    8      1.58      0.00
  -14    8    8     10.76      0.00
  -12    8    8     31.03      0.00
  -10    8    8      8.06      0.00
   -8    8    8    -20.43      0.00
   -6    8    8     11.49      0.00
   -4    8    8     11.57      0.00
   -2    8    8      0.39      0.00
    0    8    8    -18.80      0.00
    2    8    8     -3.23      0.00
    4    8    8      0.67      0.00
    6    8    8      4.97      0.00
    8    8    8      7.27      0.00
   10    8    8      3.84      0.00
   12    8    8     -6.15      0.00
   14    8    8     -3.27      0.00
   16    8    8     -1.45      0.00
   18    8    8      1.39      0.00
   20    8    8     -1.24      0.00
   22    8    8     15.64      0.00
   24    8    8     -9.22      0.00
   26    8    8      4.08      0.00
   28    8    8      9.14      0.00
   30    8    8      2.50      0.00
   32    8    8     -7.35      0.00
  -37    9    8      2.03      0.00
  -35    9    8      8.37      0.00
  -33    9    8      0.86      0.00
  -31    9    8      3.90      0.00
  -29    9    8      8.10      0.00
  -27    9    8     -5.44      0.00
  -25    9    8     -0.19      0.00
  -23    9    8      4.44      0.00
  -21    9    8     -3.85      0.00
  -19    9    8     10.10      0.00
  -17    9    8     -1.24      0.00
  -15    9    8      9.55      0.00
  -13    9    8     -5.62      0.00
  -11    9    8    -12.32      0.00
   -9    9    8      8.27      0.00
   -7    9    8     -0.83      0.00
   -5    9    8    -26.67      0.00
   -3    9    8     -6.72      0.00
   -1    9    8      8.80      0.00
    1    9    8      3.28      0.00
    3    9    8     -7.29      0.00
    5    9    8     11.40      0.00
    7    9    8      1.97      0.00
    9    9    8      1.48      0.00
   11    9    8      0.16      0.00
   13    9    8     -9.37      0.00
   15    9    8     -8.50      0.00
   17    9    8      6.66      0.00
   19    9    8      7.32      0.00
   21    9    8      8.74      0.00
   23    9    8     -4.53      0.00
   25    9    8      0.10      0.00
   27    9    8      2.05      0.00
   29    9    8      7.50      0.00
   31    9    8      9.06      0.00
   33    9    8     12.26      0.00
  -36   10    8    -14.08      0.00
  -34   10    8     -4.81      0.00
  -32   10    8     -2.45      0.00
  -30   10    8      3.54      0.00
  -28   10    8     -4.94      0.00
  -26   10    8     -3.18      0.00
  -24   10    8     -2.38      0.00
  -22   10    8     -4.32      0.00
  -20   10    8      5.03      0.00
  -18   10    8      5.40      0.00
  -16   10    8     -1.85      0.00
  -14   10    8      2.78      0.00
  -12   10    8      3.76      0.00
  -10   10    8     -9.45      0.00
   -8   10    8     -3.51      0.00
   -6   10    8      8.25      0.00
   -4   10    8     17.68      0.00
   -2   10    8     -0.33      0.00
    0   10    8     -1.53      0.00
    2   10    8     -3.02      0.00
    4   10    8     -0.24      0.00
    6   10    8     -0.58      0.00
    8   10    8     -2.27      0.00
   10   10    8      5.83      0.00
   12   10    8     -9.72      0.00
   14   10    8     -4.89      0.00
   16   10    8     -4.41      0.00
   18   10    8      5.33      0.00
   20   10    8      4.95      0.00
   22   10    8      3.52      0.00
   24   10    8      2.81      0.00
   26   10    8    -32.77      0.00
   28   10    8     13.66      0.00
   30   10    8     24.64      0.00
   32   10    8     10.83      0.00
  -35   11    8     -1.08      0.00
  -33   11    8     -1.29      0.00
  -31   11    8     -5.80      0.00
  -29   11    8    -10.40      0.00
  -27   11    8     -5.14      0.00
  -25   11    8      2.90      0.00
  -23   11    8      9.75      0.00
  -21   11    8      7.98      0.00
  -19   11    8     -3.24      0.00
  -17   11    8      5.74      0.00
  -15   11    8      1.29      0.00
  -13   11    8     -1.11      0.00
  -11   11    8      4.40      0.00
   -9   11    8     -8.34      0.00
   -7   11    8      0.22      0.00
   -5   11    8    -14.33      0.00
   -3   11    8     -6.93      0.00
   -1   11    8     -5.72      0.00
    1   11    8      3.62      0.00
    3   11    8     -0.50      0.00
    5   11    8      2.52      0.00
    7   11    8     -3.10      0.00
    9   11    8     -4.75      0.00
   11   11    8      4.08      0.00
   13   11    8      8.68      0.00
   15   11    8      5.04      0.00
   17   11    8      1.32      0.00
   19   11    8     10.39      0.00
   21   11    8     -0.74      0.00
   23   11    8      4.12      0.00
   25   11    8     -7.74      0.00
   27   11    8     17.12      0.00
   29   11    8    -11.04      0.00
   31   11    8    -10.38      0.00
  -34   12    8     -1.87      0.00
  -32   12    8      9.21      0.00
  -30   12    8     -0.13      0.00
  -28   12    8      7.43      0.00
  -26   12    8     -0.53      0.00
  -24   12    8      6.78      0.00
  -22   12    8     -6.65      0.00
  -20   12    8     -7.02      0.00
  -18   12    8     -1.61      0.00
  -16   12    8      5.26      0.00
  -14   12    8      7.44      0.00
  -12   12    8     -1.82      0.00
  -10   12    8     -0.91      0.00
   -8   12    8     12.56      0.00
   -6   12    8      1.85      0.00
   -4   12    8     -6.36      0.00
   -2   12    8      2.35      0.00
    0   12    8     -5.29      0.00
    2   12    8      2.88      0.00
    4   12    8     -4.09      0.00
    6   12    8     11.23      0.00
    8   12    8      6.90      0.00
   10   12    8      3.85      0.00
   12   12    8    -13.76      0.00
   14   12    8    -13.44      0.00
   16   12    8      3.67      0.00
   18   12    8      3.01      0.00
   20   12    8      1.78      0.00
   22   12    8      0.08      0.00
   24   12    8    -14.09      0.00
   26   12    8     -3.97      0.00
   28   12    8      7.58      0.00
  -33   13    8     -5.18      0.00
  -31   13    8      7.06      0.00
  -29   13    8      4.84      0.00
  -27   13    8      4.55      0.00
  -25   13    8      9.75      0.00
  -23   13    8      6.49      0.00
  -21   13    8      3.36      0.00
  -19   13    8      0.82      0.00
  -17   13    8     -0.57      0.00
  -15   13    8    -14.16      0.00
  -13   13    8     -2.42      0.00
  -11   13    8      6.14      0.00
   -9   13    8     -7.97      0.00
   -7   13    8    -14.42      0.00
   -5   13    8     12.24      0.00
   -3   13    8      3.84      0.00
   -1   13    8      5.96      0.00
    1   13    8      1.54      0.00
    3   13    8     -3.72      0.00
    5   13    8     -6.71      0.00
    7   13    8     -0.49      0.00
    9   13    8     -1.65      0.00
   11   13    8     -0.92      0.00
   13   13    8     -4.96      0.00
   15   13    8     -0.31      0.00
   17   13    8     -6.07      0.00
   19   13    8      3.83      0.00
   21   13    8      7.92      0.00
   23   13    8      4.84      0.00
   25   13    8     -1.59      0.00
   27   13    8     -6.08      0.00
  -32   14    8     -3.71      0.00
  -30   14    8      5.61      0.00
  -28   14    8     -1.86      0.00
  -26   14    8      6.55      0.00
  -24   14    8      2.66      0.00
  -22   14    8     -5.62      0.00
  -20   14    8     -6.92      0.00
  -18   14    8     -5.91      0.00
  -16   14    8      3.65      0.00
  -14   14    8      5.25      0.00
  -12   14    8     -1.04      0.00
  -10   14    8     -7.02      0.00
   -8   14    8      2.36      0.00
   -6   14    8      2.69      0.00
   -4   14    8     -2.65      0.00
   -2   14    8     -5.87      0.00
    0   14    8     -3.75      0.00
    2   14    8     -4.64      0.00
    4   14    8     -8.32      0.00
    6   14    8      1.34      0.00
    8   14    8      5.15      0.00
   10   14    8     -5.22      0.00
   12   14    8      3.38      0.00
   14   14    8      3.33      0.00
   16   14    8      2.61      0.00
   18   14    8      3.75      0.00
   20   14    8      4.21      0.00
   22   14    8     -1.46      0.00
   24   14    8     -2.13      0.00
   26   14    8     -2.20      0.00
  -31   15    8     -8.45      0.00
  -29   15    8      5.00      0.00
  -27   15    8     -1.69      0.00
  -25   15    8     -8.29      0.00
  -23   15    8     -5.24      0.00
  -21   15    8      3.15      0.00
  -19   15    8      6.95      0.00
  -17   15    8     19.03      0.00
  -15   15    8     10.37      0.00
  -13   15    8      4.71      0.00
  -11   15    8      4.23      0.00
   -7   15    8     13.04      0.00
   -5   15    8     -7.68      0.00
   -3   15    8     -4.51      0.00
   -1   15    8    -17.80      0.00
    1   15    8    -13.11      0.00
    3   15    8    -13.36      0.00
    5   15    8     -3.98      0.00
    7   15    8     -4.29      0.00
    9   15    8      2.48      0.00
   11   15    8    -13.31      0.00
   13   15    8      0.86      0.00
   15   15    8     -1.93      0.00
   17   15    8     -0.97      0.00
   19   15    8     10.96      0.00
   21   15    8     10.73      0.00
   23   15    8      9.09      0.00
  -30   16    8     -1.06      0.00
  -28   16    8      7.95      0.00
  -26   16    8      4.74      0.00
  -24   16    8     -6.23      0.00
  -22   16    8     -5.54      0.00
  -20   16    8      9.02      0.00
  -18   16    8     -2.03      0.00
  -16   16    8     -1.25      0.00
  -14   16    8      2.83      0.00
  -12   16    8      3.21      0.00
  -10   16    8    -12.51      0.00
   -8   16    8     -8.63      0.00
   -6   16    8      4.36      0.00
   -4   16    8      6.73      0.00
   -2   16    8     -6.33      0.00
    0   16    8    -10.25      0.00
    2   16    8     -8.17      0.00
    4   16    8     -1.82      0.00
    6   16    8      0.86      0.00
    8   16    8     -2.45      0.00
   10   16    8     -1.94      0.00
   12   16    8      4.87      0.00
   14   16    8      6.37      0.00
   16   16    8     10.27      0.00
   18   16    8     -1.66      0.00
   20   16    8     -0.94      0.00
   22   16    8     12.01      0.00
  -27   17    8      7.33      0.00
  -25   17    8      0.87      0.00
  -23   17    8      3.87      0.00
  -21   17    8      4.91      0.00
  -19   17    8      9.13      0.00
  -17   17    8      0.12      0.00
  -15   17    8     -1.09      0.00
  -13   17    8      2.13      0.00
  -11   17    8    -10.45      0.00
   -9   17    8     -1.93      0.00
   -7   17    8     -7.45      0.00
   -5   17    8     11.18      0.00
   -3   17    8      4.91      0.00
   -1   17    8     12.91      0.00
    1   17    8      4.22      0.00
    3   17    8      0.04      0.00
    5   17    8    -11.80      0.00
    7   17    8      1.09      0.00
    9   17    8      2.88      0.00
   11   17    8    -10.84      0.00
   13   17    8      2.99      0.00
   15   17    8     -2.25      0.00
   17   17    8     -3.13      0.00
   19   17    8      6.88      0.00
   21   17    8     -7.92      0.00
  -24   18    8      1.83      0.00
  -22   18    8     -5.71      0.00
  -20   18    8      5.09      0.00
  -18   18    8     13.31      0.00
  -16   18    8      6.28      0.00
  -14   18    8      4.79      0.00
  -12   18    8      6.64      0.00
  -10   18    8      4.41      0.00
   -8   18    8      7.81      0.00
   -6   18    8     -6.61      0.00
   -4   18    8      1.64      0.00
   -2   18    8      9.66      0.00
    0   18    8      1.35      0.00
    2   18    8      2.81      0.00
    4   18    8      3.16      0.00
    6   18    8     -5.56      0.00
    8   18    8     -4.37      0.00
   10   18    8      3.21      0.00
   12   18    8     15.78      0.00
   14   18    8     -0.89      0.00
   16   18    8     -1.10      0.00
   18   18    8     -0.88      0.00
  -21   19    8      2.87      0.00
  -19   19    8    -10.58      0.00
  -17   19    8      4.00      0.00
  -15   19    8     -4.39      0.00
  -13   19    8     12.64      0.00
  -11   19    8      1.41      0.00
   -9   19    8     -3.69      0.00
   -7   19    8     -6.73      0.00
   -5   19    8     12.10      0.00
   -3   19    8      3.97      0.00
   -1   19    8     -3.37      0.00
    1   19    8      5.56      0.00
    3   19    8      2.30      0.00
    5   19    8     -8.74      0.00
    7   19    8     -1.77      0.00
    9   19    8     -8.86      0.00
   11   19    8      6.00      0.00
   13   19    8     -9.60      0.00
   15   19    8    -12.45      0.00
   17   19    8     -2.84      0.00
  -18   20    8      7.13      0.00
  -16   20    8     11.57      0.00
  -14   20    8      0.98      0.00
  -12   20    8     -1.02      0.00
  -10   20    8     -1.05      0.00
   -8   20    8     -1.54      0.00
   -6   20    8    -15.57      0.00
   -4   20    8     -4.81      0.00
   -2   20    8     -8.83      0.00
    0   20    8      1.25      0.00
    2   20    8      3.05      0.00
    4   20    8      0.35      0.00
    6   20    8      2.37      0.00
    8   20    8     24.00      0.00
   10   20    8      8.18      0.00
   12   20    8     -6.34      0.00
  -13   21    8     -4.34      0.00
  -11   21    8     -0.05      0.00
   -9   21    8     -4.28      0.00
   -7   21    8     -7.83      0.00
   -5   21    8      0.18      0.00
   -3   21    8      3.74      0.00
   -1   21    8      6.37      0.00
    1   21    8      2.24      0.00
    3   21    8      1.98      0.00
    5   21    8     -7.59      0.00
    7   21    8     -4.90      0.00
    9   21    8     -2.89      0.00
   -4   22    8     -7.23      0.00
  -41    1    9    -51.61      0.00
  -39    1    9     33.99      0.00
  -37    1    9    -15.99      0.00
  -35    1    9      1.90      0.00
  -33    1    9     -1.39      0.00
  -31    1    9      2.24      0.00
  -29    1    9      6.13      0.00
  -27    1    9      0.48      0.00
  -25    1    9     -1.31      0.00
  -23    1    9     -3.64      0.00
  -21    1    9     -7.94      0.00
  -19    1    9      4.76      0.00
  -17    1    9     -5.84      0.00
  -15    1    9     -0.41      0.00
  -13    1    9     12.07      0.00
  -11    1    9      9.62      0.00
   -9    1    9      3.83      0.00
   -7    1    9     -0.46      0.00
   -5    1    9    -23.84      0.00
   -3    1    9    -58.15      0.00
   -1    1    9    -30.16      0.00
    1    1    9    -27.37      0.00
    3    1    9     -9.42      0.00
    5    1    9     -0.21      0.00
    7    1    9     -0.02      0.00
    9    1    9     -7.58      0.00
   11    1    9     -6.83      0.00
   13    1    9      4.64      0.00
   15    1    9     -0.07      0.00
   17    1    9     -5.60      0.00
   19    1    9     -5.16      0.00
   21    1    9     -1.04      0.00
   23    1    9     -4.32      0.00
   25    1    9      0.94      0.00
   27    1    9     -3.65      0.00
   29    1    9     -2.66      0.00
   31    1    9    -18.21      0.00
   33    1    9    -61.40      0.00
   35    1    9     -2.61      0.00
  -40    2    9     16.18      0.00
  -38    2    9      9.70      0.00
  -36    2    9     12.22      0.00
  -34    2    9      3.30      0.00
  -32    2    9      2.18      0.00
  -30    2    9     -0.24      0.00
  -28    2    9     -1.40      0.00
  -26    2    9     -1.80      0.00
  -24    2    9     -0.06      0.00
  -22    2    9      8.52      0.00
  -20    2    9     -8.81      0.00
  -18    2    9     -8.13      0.00
  -16    2    9     13.86      0.00
  -14    2    9    -14.03      0.00
  -12    2    9     -4.50      0.00
  -10    2    9     23.40      0.00
   -8    2    9     -5.51      0.00
   -6    2    9      9.08      0.00
   -4    2    9     -2.67      0.00
   -2    2    9    -58.03      0.00
    0    2    9      7.59      0.00
    2    2    9     34.12      0.00
    4    2    9     31.85      0.00
    6    2    9      0.93      0.00
    8    2    9     15.80      0.00
   10    2    9     10.02      0.00
   12    2    9     -1.43      0.00
   14    2    9     -9.68      0.00
   16    2    9     -5.07      0.00
   18    2    9      1.55      0.00
   20    2    9     -7.69      0.00
   22    2    9     -4.90      0.00
   24    2    9      0.98      0.00
   26    2    9     -7.70      0.00
   28    2    9     -0.27      0.00
   30    2    9      0.31      0.00
   32    2    9    -22.27      0.00
   34    2    9    -10.62      0.00
  -41    3    9     34.96      0.00
  -39    3    9    -11.46      0.00
  -37    3    9     13.83      0.00
  -35    3    9     -0.01      0.00
  -33    3    9      6.49      0.00
  -31    3    9      1.83      0.00
  -29    3    9     -1.11      0.00
  -27    3    9     -1.89      0.00
  -25    3    9      0.95      0.00
  -23    3    9     -6.56      0.00
  -21    3    9      2.44      0.00
  -19    3    9      3.15      0.00
  -17    3    9      7.49      0.00
  -15    3    9     15.05      0.00
  -13    3    9     -7.15      0.00
  -11    3    9     -9.20      0.00
   -9    3    9    -31.01      0.00
   -7    3    9     -8.61      0.00
   -5    3    9     23.80      0.00
   -3    3    9    -46.67      0.00
   -1    3    9    -11.71      0.00
    1    3    9      5.60      0.00
    3    3    9    -27.55      0.00
    5    3    9     19.05      0.00
    7    3    9     19.82      0.00
    9    3    9     -5.00      0.00
   11    3    9      4.05      0.00
   13    3    9     14.84      0.00
   15    3    9      3.79      0.00
   17    3    9     -3.02      0.00
   19    3    9      3.12      0.00
   21    3    9     14.89      0.00
   23    3    9     -0.19      0.00
   25    3    9    -26.89      0.00
   27    3    9     -0.87      0.00
   29    3    9      1.41      0.00
   31    3    9    -23.91      0.00
   33    3    9     15.67      0.00
   35    3    9     43.71      0.00
  -40    4    9     -5.61      0.00
  -38    4    9     -7.35      0.00
  -36    4    9    -14.82      0.00
  -34    4    9     -3.89      0.00
  -32    4    9     -1.63      0.00
  -30    4    9     -4.84      0.00
  -28    4    9      0.73      0.00
  -26    4    9     -3.90      0.00
  -24    4    9     -1.67      0.00
  -22    4    9    -10.45      0.00
  -20    4    9    -11.84      0.00
  -18    4    9    -22.20      0.00
  -16    4    9     -4.50      0.00
  -14    4    9     12.16      0.00
  -12    4    9     -5.38      0.00
  -10    4    9      4.12      0.00
   -8    4    9      0.94      0.00
   -6    4    9     10.95      0.00
   -4    4    9    -23.43      0.00
   -2    4    9     18.36      0.00
    0    4    9    -34.10      0.00
    2    4    9      0.05      0.00
    4    4    9     33.89      0.00
    6    4    9      1.05      0.00
    8    4    9      4.68      0.00
   10    4    9      2.56      0.00
   12    4    9      2.05      0.00
   14    4    9    -11.11      0.00
   16    4    9     -2.05      0.00
   18    4    9      1.23      0.00
   20    4    9     -8.16      0.00
   22    4    9      4.81      0.00
   24    4    9     11.77      0.00
   26    4    9     19.12      0.00
   28    4    9    -17.20      0.00
   30    4    9      7.96      0.00
   32    4    9     -7.92      0.00
   34    4    9    -24.67      0.00
  -39    5    9     15.23      0.00
  -37    5    9      0.35      0.00
  -35    5    9      6.85      0.00
  -33    5    9      5.14      0.00
  -31    5    9     -2.71      0.00
  -29    5    9     -0.29      0.00
  -27    5    9     -1.61      0.00
  -25    5    9     -3.73      0.00
  -23    5    9      7.29      0.00
  -21    5    9      3.61      0.00
  -19    5    9     -0.76      0.00
  -17    5    9     18.17      0.00
  -15    5    9      9.70      0.00
  -13    5    9     -1.27      0.00
  -11    5    9      8.96      0.00
   -9    5    9    -26.79      0.00
   -7    5    9     -9.96      0.00
   -5    5    9      4.35      0.00
   -3    5    9     11.91      0.00
   -1    5    9     -2.42      0.00
    1    5    9     10.91      0.00
    3    5    9    -17.85      0.00
    5    5    9      0.19      0.00
    7    5    9     19.10      0.00
    9    5    9      0.21      0.00
   11    5    9      6.94      0.00
   13    5    9      8.93      0.00
   15    5    9     -3.71      0.00
   17    5    9      0.20      0.00
   19    5    9     -7.44      0.00
   21    5    9      4.53      0.00
   23    5    9      6.71      0.00
   25    5    9    -15.42      0.00
   27    5    9      5.07      0.00
   29    5    9    -18.70      0.00
   31    5    9     -1.75      0.00
   33    5    9    -40.14      0.00
   35    5    9     43.50      0.00
  -40    6    9     10.29      0.00
  -38    6    9     -7.43      0.00
  -36    6    9     -9.95      0.00
  -34    6    9     -5.48      0.00
  -32    6    9     -0.98      0.00
  -30    6    9     -2.72      0.00
  -28    6    9      1.00      0.00
  -26    6    9      6.16      0.00
  -24    6    9      4.32      0.00
  -22    6    9      2.10      0.00
  -18    6    9      8.37      0.00
  -16    6    9     11.14      0.00
  -14    6    9      9.77      0.00
  -12    6    9      5.19      0.00
  -10    6    9    -11.19      0.00
   -8    6    9    -26.34      0.00
   -6    6    9     16.23      0.00
   -4    6    9      3.32      0.00
   -2    6    9    -33.73      0.00
    0    6    9     35.64      0.00
    2    6    9      4.71      0.00
    4    6    9     15.06      0.00
    6    6    9     18.13      0.00
    8    6    9    -10.63      0.00
   10    6    9     -9.34      0.00
   12    6    9     -5.92      0.00
   14    6    9     -5.66      0.00
   16    6    9     -4.62      0.00
   18    6    9     -7.11      0.00
   20    6    9      2.07      0.00
   22    6    9      8.26      0.00
   24    6    9     -1.45      0.00
   26    6    9    -12.90      0.00
   28    6    9     13.78      0.00
   30    6    9      7.44      0.00
   32    6    9    -17.99      0.00
   34    6    9     -5.43      0.00
  -39    7    9      1.64      0.00
  -37    7    9      7.22      0.00
  -35    7    9      2.47      0.00
  -33    7    9     -1.87      0.00
  -31    7    9     -0.22      0.00
  -29    7    9     -1.77      0.00
  -27    7    9     -0.98      0.00
  -25    7    9      6.60      0.00
  -23    7    9      2.36      0.00
  -21    7    9      2.11      0.00
  -19    7    9      1.22      0.00
  -17    7    9      1.31      0.00
  -15    7    9      4.66      0.00
  -13    7    9      0.71      0.00
  -11    7    9      1.16      0.00
   -9    7    9      4.38      0.00
   -7    7    9     -7.28      0.00
   -5    7    9     -7.46      0.00
   -3    7    9     14.11      0.00
   -1    7    9      3.94      0.00
    1    7    9     -5.33      0.00
    3    7    9      1.19      0.00
    5    7    9     -0.89      0.00
    7    7    9     -0.79      0.00
    9    7    9      9.73      0.00
   11    7    9      2.85      0.00
   13    7    9     -7.09      0.00
   15    7    9     -0.44      0.00
   17    7    9      6.93      0.00
   19    7    9      8.01      0.00
   21    7    9      3.05      0.00
   23    7    9      3.56      0.00
   25    7    9     15.64      0.00
   27    7    9      0.63      0.00
   29    7    9    -15.09      0.00
   31    7    9      6.37      0.00
   33    7    9      7.52      0.00
  -38    8    9      0.22      0.00
  -36    8    9     -6.15      0.00
  -34    8    9     -2.71      0.00
  -32    8    9     -4.08      0.00
  -30    8    9     -2.82      0.00
  -28    8    9     -2.34      0.00
  -26    8    9     -3.86      0.00
  -24    8    9     -0.97      0.00
  -22    8    9    -10.30      0.00
  -20    8    9     -0.01      0.00
  -18    8    9     -1.50      0.00
  -16    8    9      6.15      0.00
  -14    8    9      0.80      0.00
  -12    8    9     -3.37      0.00
  -10    8    9    -15.36      0.00
   -8    8    9     -7.82      0.00
   -6    8    9     17.80      0.00
   -4    8    9      0.37      0.00
   -2    8    9     -0.64      0.00
    0    8    9     -7.31      0.00
    2    8    9     -2.33      0.00
    4    8    9     -8.41      0.00
    6    8    9      3.24      0.00
    8    8    9      1.72      0.00
   10    8    9     -8.45      0.00
   12    8    9     -2.14      0.00
   14    8    9     -6.74      0.00
   16    8    9     -0.66      0.00
   18    8    9      6.66      0.00
   20    8    9      2.09      0.00
   22    8    9      1.79      0.00
   24    8    9     -1.08      0.00
   26    8    9      3.85      0.00
   28    8    9     -0.65      0.00
   30    8    9     -4.10      0.00
   32    8    9     25.01      0.00
  -35    9    9      8.85      0.00
  -33    9    9     -2.50      0.00
  -31    9    9      6.08      0.00
  -29    9    9     -3.61      0.00
  -27    9    9     -3.94      0.00
  -25    9    9      1.68      0.00
  -23    9    9      7.23      0.00
  -21    9    9      2.23      0.00
  -19    9    9      0.59      0.00
  -17    9    9      2.01      0.00
  -15    9    9      7.30      0.00
  -13    9    9    -11.95      0.00
  -11    9    9     -5.29      0.00
   -9    9    9      1.16      0.00
   -7    9    9    -10.14      0.00
   -5    9    9     -3.86      0.00
   -3    9    9     10.69      0.00
   -1    9    9      6.22      0.00
    1    9    9     17.75      0.00
    3    9    9    -12.11      0.00
    5    9    9      3.62      0.00
    7    9    9     -3.88      0.00
    9    9    9     -5.38      0.00
   11    9    9      6.66      0.00
   13    9    9      5.02      0.00
   15    9    9      0.98      0.00
   17    9    9      3.97      0.00
   19    9    9      2.25      0.00
   21    9    9      5.75      0.00
   23    9    9      3.96      0.00
   25    9    9     -7.39      0.00
   27    9    9      5.05      0.00
   29    9    9     -4.48      0.00
   31    9    9     11.16      0.00
  -36   10    9     -4.16      0.00
  -34   10    9      5.56      0.00
  -32   10    9     -2.37      0.00
  -30   10    9     -5.81      0.00
  -28   10    9     -2.15      0.00
  -26   10    9     -2.41      0.00
  -24   10    9      3.58      0.00
  -22   10    9      3.05      0.00
  -20   10    9     -4.79      0.00
  -18   10    9      1.65      0.00
  -16   10    9     -5.94      0.00
  -14   10    9     -0.91      0.00
  -12   10    9     -5.28      0.00
  -10   10    9     -2.95      0.00
   -8   10    9      8.65      0.00
   -6   10    9      7.35      0.00
   -4   10    9      4.62      0.00
   -2   10    9    -16.83      0.00
    0   10    9    -10.72      0.00
    2   10    9     -2.80      0.00
    4   10    9     -4.42      0.00
    6   10    9     -3.35      0.00
    8   10    9     -5.55      0.00
   10   10    9      5.84      0.00
   12   10    9     -4.20      0.00
   14   10    9      3.76      0.00
   16   10    9      7.23      0.00
   18   10    9      4.79      0.00
   20   10    9      6.93      0.00
   22   10    9     -8.21      0.00
   24   10    9     -0.43      0.00
   26   10    9      9.76      0.00
   28   10    9     -2.81      0.00
   30   10    9    -26.76      0.00
  -35   11    9      8.62      0.00
  -33   11    9     20.26      0.00
  -31   11    9     -2.82      0.00
  -29   11    9      2.22      0.00
  -27   11    9     -4.99      0.00
  -25   11    9      2.66      0.00
  -23   11    9      0.54      0.00
  -21   11    9    -10.97      0.00
  -19   11    9     -9.70      0.00
  -17   11    9     -2.58      0.00
  -15   11    9     -1.99      0.00
  -13   11    9     -0.48      0.00
  -11   11    9     -2.79      0.00
   -9   11    9    -12.17      0.00
   -7   11    9     -1.67      0.00
   -5   11    9     -8.13      0.00
   -3   11    9     16.82      0.00
   -1   11    9      3.00      0.00
    1   11    9     10.44      0.00
    3   11    9    -12.33      0.00
    5   11    9      5.50      0.00
    7   11    9     12.71      0.00
    9   11    9     -0.76      0.00
   11   11    9     -5.58      0.00
   13   11    9     -2.33      0.00
   15   11    9     13.28      0.00
   17   11    9     -5.82      0.00
   19   11    9    -10.61      0.00
   21   11    9     -1.81      0.00
   23   11    9     -5.42      0.00
   25   11    9      3.45      0.00
   27   11    9     12.86      0.00
   29   11    9    -14.62      0.00
  -34   12    9     -3.12      0.00
  -32   12    9      5.69      0.00
  -30   12    9     16.42      0.00
  -28   12    9      0.35      0.00
  -26   12    9     -3.08      0.00
  -24   12    9      4.71      0.00
  -22   12    9     -0.04      0.00
  -20   12    9      2.10      0.00
  -18   12    9     -2.05      0.00
  -16   12    9     -9.90      0.00
  -14   12    9     -1.28      0.00
  -12   12    9     -4.73      0.00
  -10   12    9     12.23      0.00
   -8   12    9      7.01      0.00
   -6   12    9     -6.21      0.00
   -4   12    9      2.23      0.00
   -2   12    9     -3.68      0.00
    0   12    9     -3.41      0.00
    2   12    9      1.42      0.00
    4   12    9      2.46      0.00
    6   12    9     -7.31      0.00
    8   12    9     -6.84      0.00
   10   12    9      4.70      0.00
   12   12    9     -2.55      0.00
   14   12    9     -3.02      0.00
   16   12    9      4.57      0.00
   18   12    9     -6.14      0.00
   20   12    9      7.80      0.00
   22   12    9     -4.58      0.00
   24   12    9      0.85      0.00
   26   12    9     -8.13      0.00
   28   12    9      6.54      0.00
  -33   13    9      1.33      0.00
  -31   13    9     12.02      0.00
  -29   13    9      3.48      0.00
  -27   13    9      1.66      0.00
  -25   13    9     -6.52      0.00
  -23   13    9     -5.33      0.00
  -21   13    9     -4.36      0.00
  -19   13    9     -2.39      0.00
  -17   13    9      0.47      0.00
  -15   13    9      0.72      0.00
  -13   13    9      0.94      0.00
  -11   13    9     -2.23      0.00
   -9   13    9     -4.76      0.00
   -7   13    9     -1.32      0.00
   -5   13    9      3.06      0.00
   -3   13    9      4.87      0.00
   -1   13    9     -4.43      0.00
    1   13    9     -0.83      0.00
    3   13    9     -6.46      0.00
    5   13    9     -7.08      0.00
    7   13    9      7.08      0.00
    9   13    9     -6.64      0.00
   11   13    9      2.05      0.00
   13   13    9      1.41      0.00
   15   13    9      2.27      0.00
   17   13    9     -3.21      0.00
   19   13    9     -9.28      0.00
   21   13    9     -4.55      0.00
   23   13    9     -0.55      0.00
   25   13    9      5.03      0.00
   27   13    9     -2.31      0.00
  -32   14    9     -3.42      0.00
  -30   14    9      6.50      0.00
  -28   14    9      5.73      0.00
  -26   14    9    -13.43      0.00
  -24   14    9     -8.17      0.00
  -22   14    9     -6.46      0.00
  -20   14    9     -2.58      0.00
  -18   14    9     -1.23      0.00
  -16   14    9      1.14      0.00
  -14   14    9     -1.60      0.00
  -12   14    9      1.87      0.00
  -10   14    9      6.09      0.00
   -8   14    9     23.32      0.00
   -6   14    9    -15.00      0.00
   -4   14    9      0.60      0.00
   -2   14    9    -17.48      0.00
    0   14    9     -8.67      0.00
    2   14    9     -2.81      0.00
    4   14    9      8.59      0.00
    6   14    9     -1.52      0.00
    8   14    9     -5.54      0.00
   10   14    9     -2.94      0.00
   12   14    9      5.39      0.00
   14   14    9      2.04      0.00
   16   14    9     -1.80      0.00
   18   14    9     -6.17      0.00
   20   14    9      0.51      0.00
   22   14    9      2.33      0.00
   24   14    9     -3.16      0.00
   26   14    9      4.53      0.00
  -31   15    9      0.85      0.00
  -29   15    9     10.25      0.00
  -27   15    9      0.65      0.00
  -25   15    9      1.56      0.00
  -23   15    9      7.42      0.00
  -21   15    9      8.73      0.00
  -19   15    9     -0.58      0.00
  -17   15    9     -0.68      0.00
  -15   15    9     -1.26      0.00
  -13   15    9      4.49      0.00
  -11   15    9      2.02      0.00
   -9   15    9     -5.68      0.00
   -7   15    9     -4.08      0.00
   -5   15    9      7.97      0.00
   -3   15    9      5.31      0.00
   -1   15    9     -7.17      0.00
    1   15    9     -6.15      0.00
    3   15    9     -1.54      0.00
    5   15    9     -7.31      0.00
    7   15    9     -2.28      0.00
    9   15    9      2.61      0.00
   11   15    9      0.49      0.00
   13   15    9      6.90      0.00
   15   15    9     -2.22      0.00
   17   15    9    -11.06      0.00
   19   15    9     -0.71      0.00
   21   15    9     -1.57      0.00
   23   15    9      2.61      0.00
  -28   16    9      8.17      0.00
  -26   16    9     -1.60      0.00
  -24   16    9     -1.81      0.00
  -22   16    9      6.08      0.00
  -20   16    9     10.36      0.00
  -18   16    9     -7.16      0.00
  -16   16    9     -9.46      0.00
  -14   16    9     -5.38      0.00
  -12   16    9     -2.15      0.00
  -10   16    9      9.15      0.00
   -8   16    9     -2.47      0.00
   -6   16    9     10.07      0.00
   -4   16    9      5.57      0.00
   -2   16    9     19.20      0.00
    0   16    9      8.46      0.00
    2   16    9      8.60      0.00
    4   16    9     -1.61      0.00
    6   16    9      7.71      0.00
    8   16    9      6.31      0.00
   10   16    9    -15.28      0.00
   12   16    9      8.89      0.00
   14   16    9      2.20      0.00
   16   16    9      3.15      0.00
   18   16    9     -0.70      0.00
   20   16    9     -8.80      0.00
   22   16    9     -8.71      0.00
  -27   17    9     -1.80      0.00
  -25   17    9      0.95      0.00
  -23   17    9      3.82      0.00
  -21   17    9     -9.05      0.00
  -19   17    9     -2.12      0.00
  -17   17    9      2.28      0.00
  -15   17    9      2.94      0.00
  -13   17    9      6.54      0.00
  -11   17    9      2.25      0.00
   -9   17    9      3.41      0.00
   -7   17    9    -15.39      0.00
   -5   17    9     -4.63      0.00
   -3   17    9     17.82      0.00
   -1   17    9     11.14      0.00
    1   17    9     13.07      0.00
    3   17    9      1.57      0.00
    5   17    9      5.13      0.00
    7   17    9      3.38      0.00
    9   17    9      4.88      0.00
   11   17    9     11.20      0.00
   13   17    9     -2.20      0.00
   15   17    9      1.22      0.00
   17   17    9    -14.62      0.00
   19   17    9      1.14      0.00
  -24   18    9     -9.94      0.00
  -22   18    9      1.45      0.00
  -20   18    9    -11.69      0.00
  -18   18    9     -0.66      0.00
  -16   18    9     -5.57      0.00
  -14   18    9      5.57      0.00
  -12   18    9     11.07      0.00
  -10   18    9     -0.10      0.00
   -8   18    9     -3.31      0.00
   -6   18    9     -1.33      0.00
   -4   18    9     -0.78      0.00
   -2   18    9     -1.69      0.00
    0   18    9     13.94      0.00
    2   18    9      3.26      0.00
    4   18    9      3.73      0.00
    6   18    9     15.31      0.00
    8   18    9     -0.67      0.00
   10   18    9      1.28      0.00
   12   18    9      3.05      0.00
   14   18    9    -11.89      0.00
   16   18    9      0.22      0.00
   18   18    9     -1.13      0.00
  -21   19    9     -4.90      0.00
  -19   19    9     -5.51      0.00
  -17   19    9     16.66      0.00
  -15   19    9      4.75      0.00
  -13   19    9     -3.68      0.00
  -11   19    9     -1.00      0.00
   -9   19    9    -18.82      0.00
   -7   19    9     -7.98      0.00
   -5   19    9      0.71      0.00
   -3   19    9      1.60      0.00
   -1   19    9      5.34      0.00
    1   19    9      2.07      0.00
    3   19    9      1.50      0.00
    5   19    9     -8.70      0.00
    7   19    9     20.98      0.00
    9   19    9     11.61      0.00
   11   19    9    -19.45      0.00
   13   19    9     -2.75      0.00
   15   19    9     -4.40      0.00
  -18   20    9     -5.34      0.00
  -16   20    9      0.91      0.00
  -14   20    9    -11.14      0.00
  -12   20    9      2.85      0.00
  -10   20    9     -3.35      0.00
   -8   20    9     -3.92      0.00
   -6   20    9     -5.57      0.00
   -4   20    9     -0.52      0.00
   -2   20    9     10.66      0.00
    0   20    9      3.95      0.00
    2   20    9     -1.65      0.00
    4   20    9     -7.25      0.00
    6   20    9     -8.13      0.00
    8   20    9      5.36      0.00
   10   20    9    -10.50      0.00
   12   20    9      9.93      0.00
  -11   21    9     -7.54      0.00
   -9   21    9     -7.55      0.00
   -7   21    9     -1.50      0.00
   -5   21    9      0.41      0.00
   -3   21    9      7.78      0.00
   -1   21    9     -0.12      0.00
    1   21    9     -3.00      0.00
    3   21    9      6.18      0.00
    5   21    9     -3.89      0.00
    7   21    9     -3.76      0.00
  -40    0   10    -20.65      0.00
  -38    0   10    -12.25      0.00
  -36    0   10      2.23      0.00
  -34    0   10     -1.59      0.00
  -32    0   10     -2.40      0.00
  -30    0   10     -1.91      0.00
  -28    0   10     -1.73      0.00
  -26    0   10     -3.06      0.00
  -24    0   10      7.83      0.00
  -22    0   10      4.55      0.00
  -20    0   10      5.13      0.00
  -18    0   10      5.30      0.00
  -16    0   10      5.00      0.00
  -14    0   10    -17.71      0.00
  -12    0   10      7.85      0.00
  -10    0   10      8.88      0.00
   -8    0   10    -33.18      0.00
   -6    0   10    -11.51      0.00
   -4    0   10    -33.64      0.00
   -2    0   10     58.11      0.00
    0    0   10    -32.98      0.00
    2    0   10     77.35      0.00
    4    0   10    -13.45      0.00
    6    0   10    -12.28      0.00
    8    0   10     16.75      0.00
   10    0   10    -35.41      0.00
   12    0   10    -11.33      0.00
   14    0   10      3.92      0.00
   16    0   10      8.37      0.00
   18    0   10     -1.62      0.00
   20    0   10      1.04      0.00
   22    0   10     -4.39      0.00
   24    0   10    -21.06      0.00
   26    0   10     12.94      0.00
   28    0   10     11.90      0.00
   30    0   10     18.82      0.00
   32    0   10    -15.53      0.00
   34    0   10     10.92      0.00
  -41    1   10     35.49      0.00
  -39    1   10     22.24      0.00
  -37    1   10      9.43      0.00
  -35    1   10      6.52      0.00
  -33    1   10      7.53      0.00
  -31    1   10     -3.17      0.00
  -29    1   10     -5.78      0.00
  -27    1   10      4.15      0.00
  -25    1   10     -3.03      0.00
  -23    1   10     -2.61      0.00
  -21    1   10     -4.50      0.00
  -19    1   10      2.38      0.00
  -17    1   10     -2.19      0.00
  -15    1   10      4.77      0.00
  -13    1   10    -13.02      0.00
  -11    1   10    -22.86      0.00
   -9    1   10     11.93      0.00
   -7    1   10     -7.09      0.00
   -5    1   10     -9.93      0.00
   -3    1   10     28.97      0.00
   -1    1   10     70.25      0.00
    1    1   10     23.86      0.00
    3    1   10      4.15      0.00
    5    1   10      6.93      0.00
    7    1   10     10.17      0.00
    9    1   10      0.70      0.00
   11    1   10     14.49      0.00
   13    1   10      0.53      0.00
   15    1   10     -8.89      0.00
   17    1   10     -1.19      0.00
   19    1   10      3.24      0.00
   21    1   10     -3.27      0.00
   23    1   10     -2.31      0.00
   25    1   10    -12.97      0.00
   27    1   10     -2.10      0.00
   29    1   10     -2.24      0.00
   31    1   10    -17.13      0.00
   33    1   10     32.12      0.00
   35    1   10     25.94      0.00
  -40    2   10    -34.12      0.00
  -38    2   10     15.78      0.00
  -36    2   10      3.77      0.00
  -34    2   10     -0.81      0.00
  -32    2   10     -5.81      0.00
  -30    2   10     -1.62      0.00
  -28    2   10     -4.10      0.00
  -26    2   10     -4.57      0.00
  -24    2   10     -3.20      0.00
  -22    2   10      5.88      0.00
  -20    2   10      0.58      0.00
  -18    2   10      1.71      0.00
  -16    2   10     13.64      0.00
  -14    2   10    -13.48      0.00
  -12    2   10     17.46      0.00
  -10    2   10     26.33      0.00
   -8    2   10     14.06      0.00
   -6    2   10      8.96      0.00
   -4    2   10    -24.54      0.00
   -2    2   10     -4.35      0.00
    0    2   10    -31.94      0.00
    2    2   10     44.94      0.00
    4    2   10      0.64      0.00
    6    2   10     18.73      0.00
    8    2   10      9.44      0.00
   10    2   10      1.67      0.00
   12    2   10     -4.61      0.00
   14    2   10      2.00      0.00
   16    2   10      4.61      0.00
   18    2   10     -1.05      0.00
   20    2   10      9.45      0.00
   22    2   10     -1.79      0.00
   24    2   10    -13.71      0.00
   26    2   10    -18.08      0.00
   28    2   10     -3.26      0.00
   30    2   10     23.69      0.00
   32    2   10     16.54      0.00
   34    2   10     22.47      0.00
  -41    3   10    -61.35      0.00
  -39    3   10     18.76      0.00
  -37    3   10     -2.14      0.00
  -35    3   10      3.34      0.00
  -33    3   10     -5.59      0.00
  -31    3   10     -2.16      0.00
  -29    3   10     -4.41      0.00
  -27    3   10     -1.22      0.00
  -25    3   10      1.11      0.00
  -23    3   10      0.50      0.00
  -21    3   10      0.91      0.00
  -19    3   10      3.74      0.00
  -17    3   10      3.82      0.00
  -15    3   10     -6.89      0.00
  -13    3   10    -11.55      0.00
  -11    3   10    -22.68      0.00
   -9    3   10    -21.23      0.00
   -7    3   10     16.90      0.00
   -5    3   10     -7.43      0.00
   -3    3   10     33.76      0.00
   -1    3   10     -5.05      0.00
    1    3   10    -10.13      0.00
    3    3   10     16.05      0.00
    5    3   10    -10.79      0.00
    7    3   10      5.38      0.00
    9    3   10     -1.92      0.00
   11    3   10      9.50      0.00
   13    3   10      8.98      0.00
   15    3   10     -1.28      0.00
   17    3   10      4.41      0.00
   19    3   10     -4.76      0.00
   21    3   10     11.86      0.00
   23    3   10     -0.01      0.00
   25    3   10      1.48      0.00
   27    3   10     -5.60      0.00
   29    3   10    -38.88      0.00
   31    3   10      0.89      0.00
   33    3   10      1.13      0.00
  -40    4   10     -2.91      0.00
  -38    4   10     -2.64      0.00
  -36    4   10     -3.85      0.00
  -34    4   10     -9.13      0.00
  -32    4   10     -4.55      0.00
  -30    4   10     -3.23      0.00
  -28    4   10      6.39      0.00
  -26    4   10     -2.70      0.00
  -24    4   10      3.79      0.00
  -22    4   10      0.60      0.00
  -20    4   10      2.58      0.00
  -16    4   10     -4.14      0.00
  -14    4   10      9.83      0.00
  -12    4   10    -10.17      0.00
  -10    4   10     18.93      0.00
   -8    4   10     20.12      0.00
   -6    4   10    -20.85      0.00
   -4    4   10      2.01      0.00
   -2    4   10     36.92      0.00
    0    4   10    -34.12      0.00
    2    4   10      9.70      0.00
    4    4   10     -3.95      0.00
    6    4   10     20.70      0.00
    8    4   10     -9.60      0.00
   10    4   10     -2.97      0.00
   12    4   10      2.62      0.00
   14    4   10     -8.81      0.00
   16    4   10     -1.77      0.00
   18    4   10      0.63      0.00
   20    4   10     -1.90      0.00
   22    4   10     -1.74      0.00
   24    4   10      6.01      0.00
   26    4   10     -3.66      0.00
   28    4   10      5.57      0.00
   30    4   10     42.76      0.00
   32    4   10    -15.75      0.00
   34    4   10     35.58      0.00
  -39    5   10    -11.39      0.00
  -37    5   10     13.11      0.00
  -35    5   10     -8.24      0.00
  -33    5   10     10.92      0.00
  -31    5   10      0.56      0.00
  -29    5   10      1.01      0.00
  -27    5   10      6.57      0.00
  -25    5   10      5.71      0.00
  -23    5   10      9.46      0.00
  -21    5   10      0.70      0.00
  -17    5   10      5.94      0.00
  -15    5   10     -6.81      0.00
  -13    5   10      3.77      0.00
  -11    5   10     -3.42      0.00
   -9    5   10    -15.48      0.00
   -7    5   10     -6.75      0.00
   -5    5   10     24.04      0.00
   -3    5   10     -2.83      0.00
   -1    5   10      4.01      0.00
    1    5   10     22.09      0.00
    3    5   10     -7.31      0.00
    5    5   10    -15.07      0.00
    7    5   10     -0.77      0.00
    9    5   10      2.35      0.00
   11    5   10     -0.71      0.00
   13    5   10      6.30      0.00
   15    5   10      1.99      0.00
   17    5   10     -0.88      0.00
   19    5   10     -0.90      0.00
   21    5   10      5.25      0.00
   23    5   10      8.36      0.00
   25    5   10    -27.25      0.00
   27    5   10     -1.50      0.00
   29    5   10     -3.23      0.00
   31    5   10      2.41      0.00
   33    5   10    -13.39      0.00
  -40    6   10    -32.32      0.00
  -38    6   10     -4.69      0.00
  -36    6   10     -4.81      0.00
  -34    6   10     -0.13      0.00
  -32    6   10      1.63      0.00
  -30    6   10     -0.87      0.00
  -28    6   10     -2.02      0.00
  -26    6   10      4.03      0.00
  -24    6   10      0.04      0.00
  -22    6   10     -2.07      0.00
  -20    6   10      4.12      0.00
  -18    6   10      0.23      0.00
  -16    6   10     -4.19      0.00
  -14    6   10      5.62      0.00
  -12    6   10     -6.30      0.00
  -10    6   10      2.29      0.00
   -8    6   10      8.07      0.00
   -6    6   10      9.59      0.00
   -4    6   10    -14.55      0.00
   -2    6   10      7.22      0.00
    0    6   10    -13.83      0.00
    2    6   10      5.33      0.00
    4    6   10     -1.13      0.00
    6    6   10     26.83      0.00
    8    6   10     -4.52      0.00
   10    6   10     -2.82      0.00
   12    6   10     -3.01      0.00
   14    6   10     -1.69      0.00
   16    6   10     -0.65      0.00
   18    6   10      7.93      0.00
   20    6   10     -2.58      0.00
   22    6   10    -10.04      0.00
   24    6   10      5.22      0.00
   26    6   10    -19.78      0.00
   28    6   10     11.31      0.00
   30    6   10     -2.29      0.00
   32    6   10     31.64      0.00
  -39    7   10     36.08      0.00
  -37    7   10     -7.20      0.00
  -35    7   10     -1.90      0.00
  -33    7   10     -4.96      0.00
  -31    7   10    -10.88      0.00
  -29    7   10     -2.97      0.00
  -27    7   10      2.94      0.00
  -25    7   10     -1.78      0.00
  -23    7   10      4.68      0.00
  -21    7   10     -1.64      0.00
  -19    7   10      2.75      0.00
  -17    7   10     -0.82      0.00
  -15    7   10     -0.70      0.00
  -13    7   10     -7.83      0.00
  -11    7   10      4.31      0.00
   -9    7   10      9.90      0.00
   -7    7   10    -17.78      0.00
   -5    7   10    -17.55      0.00
   -3    7   10     39.26      0.00
   -1    7   10      0.23      0.00
    1    7   10      0.17      0.00
    3    7   10     -5.05      0.00
    5    7   10    -16.90      0.00
    7    7   10      7.10      0.00
    9    7   10      5.88      0.00
   11    7   10      1.44      0.00
   13    7   10     -0.28      0.00
   15    7   10     -7.21      0.00
   17    7   10      3.88      0.00
   19    7   10    -10.14      0.00
   21    7   10     -5.66      0.00
   23    7   10      7.69      0.00
   25    7   10      1.06      0.00
   27    7   10    -13.00      0.00
   29    7   10     16.05      0.00
   31    7   10     27.78      0.00
   33    7   10     11.05      0.00
  -36    8   10      8.72      0.00
  -34    8   10      4.43      0.00
  -32    8   10      3.51      0.00
  -30    8   10      9.45      0.00
  -28    8   10      4.41      0.00
  -26    8   10     -2.20      0.00
  -24    8   10      1.51      0.00
  -22    8   10     -5.22      0.00
  -20    8   10     -8.04      0.00
  -18    8   10      1.89      0.00
  -16    8   10     -3.19      0.00
  -14    8   10      5.88      0.00
  -12    8   10      8.90      0.00
  -10    8   10     -0.88      0.00
   -8    8   10     13.12      0.00
   -6    8   10      6.56      0.00
   -4    8   10    -16.11      0.00
   -2    8   10     -9.24      0.00
    0    8   10     -4.69      0.00
    2    8   10      4.13      0.00
    4    8   10     -5.72      0.00
    6    8   10     15.56      0.00
    8    8   10     -8.66      0.00
   10    8   10      4.17      0.00
   12    8   10      7.71      0.00
   14    8   10     -2.94      0.00
   16    8   10      1.51      0.00
   18    8   10     -0.42      0.00
   20    8   10     -1.79      0.00
   22    8   10      5.03      0.00
   24    8   10      1.60      0.00
   26    8   10      5.64      0.00
   28    8   10     -9.64      0.00
   30    8   10     -2.61      0.00
   32    8   10     -4.42      0.00
  -35    9   10     -0.65      0.00
  -33    9   10      3.44      0.00
  -31    9   10     -0.18      0.00
  -29    9   10      4.45      0.00
  -27    9   10     -1.20      0.00
  -25    9   10      2.41      0.00
  -23    9   10      4.52      0.00
  -21    9   10     -5.87      0.00
  -19    9   10      1.10      0.00
  -17    9   10      4.59      0.00
  -15    9   10      4.77      0.00
  -13    9   10      0.52      0.00
  -11    9   10      4.68      0.00
   -9    9   10     -0.94      0.00
   -7    9   10    -16.16      0.00
   -5    9   10     -6.01      0.00
   -3    9   10     15.89      0.00
   -1    9   10      8.12      0.00
    1    9   10     -1.19      0.00
    3    9   10    -13.28      0.00
    5    9   10      3.76      0.00
    7    9   10     -2.29      0.00
    9    9   10      8.84      0.00
   11    9   10      5.82      0.00
   13    9   10     -0.51      0.00
   15    9   10      0.45      0.00
   17    9   10    -11.89      0.00
   19    9   10      8.55      0.00
   21    9   10     -4.37      0.00
   23    9   10     -0.39      0.00
   25    9   10     -7.11      0.00
   27    9   10      6.34      0.00
   29    9   10      9.89      0.00
   31    9   10     -4.64      0.00
  -36   10   10      8.90      0.00
  -34   10   10     16.26      0.00
  -32   10   10     -2.82      0.00
  -30   10   10     -3.58      0.00
  -28   10   10      1.64      0.00
  -26   10   10     -2.51      0.00
  -24   10   10     -0.35      0.00
  -22   10   10    -11.06      0.00
  -20   10   10     -2.01      0.00
  -18   10   10      0.51      0.00
  -16   10   10     -8.62      0.00
  -14   10   10     -4.83      0.00
  -12   10   10     -0.51      0.00
  -10   10   10      4.55      0.00
   -8   10   10      9.81      0.00
   -6   10   10      8.06      0.00
   -4   10   10     -1.75      0.00
   -2   10   10     -7.55      0.00
    0   10   10     -7.96      0.00
    2   10   10      8.36      0.00
    4   10   10     -3.95      0.00
    6   10   10     10.15      0.00
    8   10   10      2.77      0.00
   10   10   10     -0.26      0.00
   12   10   10     -7.53      0.00
   14   10   10      3.14      0.00
   16   10   10     -4.01      0.00
   18   10   10     -6.93      0.00
   20   10   10    -10.51      0.00
   22   10   10      3.58      0.00
   24   10   10     -3.28      0.00
   26   10   10     -1.05      0.00
   28   10   10     -6.19      0.00
   30   10   10    -13.66      0.00
  -35   11   10     -7.74      0.00
  -33   11   10     -9.95      0.00
  -31   11   10      4.65      0.00
  -29   11   10      0.57      0.00
  -27   11   10      0.13      0.00
  -25   11   10     -0.44      0.00
  -23   11   10     10.87      0.00
  -21   11   10      0.42      0.00
  -19   11   10      3.28      0.00
  -17   11   10     -0.66      0.00
  -15   11   10      7.56      0.00
  -13   11   10      9.99      0.00
  -11   11   10      1.83      0.00
   -9   11   10     -7.45      0.00
   -7   11   10     -0.31      0.00
   -5   11   10      0.01      0.00
   -3   11   10     11.66      0.00
   -1   11   10      7.84      0.00
    1   11   10     -0.93      0.00
    3   11   10      1.03      0.00
    5   11   10      0.00      0.00
    7   11   10      1.86      0.00
    9   11   10      3.37      0.00
   11   11   10      5.26      0.00
   13   11   10      0.14      0.00
   15   11   10    -13.39      0.00
   17   11   10    -12.91      0.00
   19   11   10     -8.26      0.00
   21   11   10     10.07      0.00
   23   11   10     -2.17      0.00
   25   11   10    -10.55      0.00
   27   11   10    -18.70      0.00
   29   11   10     16.05      0.00
  -34   12   10      5.17      0.00
  -32   12   10      6.24      0.00
  -30   12   10      5.03      0.00
  -28   12   10      1.36      0.00
  -26   12   10     -6.30      0.00
  -24   12   10     -1.21      0.00
  -22   12   10     -8.81      0.00
  -20   12   10     -1.79      0.00
  -18   12   10      2.58      0.00
  -16   12   10      2.66      0.00
  -14   12   10    -11.68      0.00
  -12   12   10      1.60      0.00
  -10   12   10     12.28      0.00
   -8   12   10      4.20      0.00
   -6   12   10     -2.00      0.00
   -4   12   10      1.59      0.00
   -2   12   10     -5.68      0.00
    0   12   10     -6.71      0.00
    2   12   10     -4.60      0.00
    4   12   10     -1.44      0.00
    6   12   10      8.19      0.00
    8   12   10      2.40      0.00
   10   12   10     11.51      0.00
   12   12   10     -3.91      0.00
   14   12   10     -1.83      0.00
   16   12   10      2.56      0.00
   18   12   10     -6.91      0.00
   20   12   10      1.43      0.00
   22   12   10     -0.14      0.00
   24   12   10      0.52      0.00
   26   12   10    -15.21      0.00
   28   12   10      2.28      0.00
  -33   13   10     -4.72      0.00
  -31   13   10     -7.01      0.00
  -29   13   10      4.45      0.00
  -27   13   10     -3.66      0.00
  -25   13   10     -3.13      0.00
  -23   13   10     -4.64      0.00
  -21   13   10     -3.85      0.00
  -19   13   10     -0.69      0.00
  -17   13   10      3.62      0.00
  -15   13   10     -0.67      0.00
  -13   13   10      3.25      0.00
  -11   13   10     -6.11      0.00
   -9   13   10     -6.81      0.00
   -7   13   10      2.16      0.00
   -5   13   10      8.46      0.00
   -3   13   10     -0.35      0.00
   -1   13   10      4.19      0.00
    1   13   10      0.24      0.00
    3   13   10     -1.91      0.00
    5   13   10      1.25      0.00
    7   13   10     -2.51      0.00
    9   13   10      3.59      0.00
   11   13   10      1.93      0.00
   13   13   10      4.37      0.00
   15   13   10    -17.66      0.00
   17   13   10    -19.30      0.00
   19   13   10     -6.42      0.00
   21   13   10     -2.87      0.00
   23   13   10      7.53      0.00
   25   13   10     -8.07      0.00
   27   13   10      0.41      0.00
  -32   14   10     -3.08      0.00
  -30   14   10     -1.40      0.00
  -28   14   10     -0.05      0.00
  -26   14   10      6.32      0.00
  -24   14   10      7.91      0.00
  -22   14   10      5.12      0.00
  -20   14   10     -1.89      0.00
  -18   14   10     -4.44      0.00
  -16   14   10     -3.17      0.00
  -14   14   10     -2.84      0.00
  -12   14   10      9.24      0.00
   -8   14   10      9.28      0.00
   -6   14   10      7.89      0.00
   -4   14   10      7.86      0.00
   -2   14   10      1.87      0.00
    0   14   10     -2.09      0.00
    2   14   10     -3.04      0.00
    4   14   10     -0.72      0.00
    6   14   10     -2.37      0.00
    8   14   10      8.12      0.00
   10   14   10      1.36      0.00
   12   14   10      9.22      0.00
   14   14   10     -2.77      0.00
   16   14   10     -1.69      0.00
   18   14   10     -2.53      0.00
   20   14   10      2.32      0.00
   22   14   10      4.87      0.00
   24   14   10      0.74      0.00
  -31   15   10      0.70      0.00
  -29   15   10    -14.83      0.00
  -27   15   10     -3.17      0.00
  -25   15   10     -2.02      0.00
  -23   15   10      3.93      0.00
  -21   15   10     -3.39      0.00
  -19   15   10      4.69      0.00
  -17   15   10      0.85      0.00
  -15   15   10     -3.95      0.00
  -13   15   10      5.94      0.00
  -11   15   10     17.04      0.00
   -9   15   10     -5.04      0.00
   -7   15   10     -1.83      0.00
   -5   15   10      4.54      0.00
   -3   15   10     17.24      0.00
   -1   15   10     11.39      0.00
    1   15   10      4.66      0.00
    3   15   10      0.99      0.00
    5   15   10     -3.90      0.00
    7   15   10      3.50      0.00
    9   15   10    -10.21      0.00
   11   15   10     -3.88      0.00
   13   15   10      3.08      0.00
   15   15   10     -1.14      0.00
   17   15   10      1.49      0.00
   19   15   10     -7.23      0.00
   21   15   10     -6.47      0.00
   23   15   10      2.00      0.00
  -28   16   10      2.09      0.00
  -26   16   10     -0.92      0.00
  -24   16   10     -9.21      0.00
  -22   16   10     -5.00      0.00
  -20   16   10      2.34      0.00
  -18   16   10     -9.13      0.00
  -16   16   10      2.54      0.00
  -14   16   10     -1.63      0.00
  -12   16   10      2.55      0.00
  -10   16   10      7.10      0.00
   -8   16   10      4.39      0.00
   -6   16   10      0.23      0.00
   -4   16   10      4.31      0.00
   -2   16   10     14.26      0.00
    0   16   10      9.96      0.00
    2   16   10     -6.64      0.00
    4   16   10      0.75      0.00
    6   16   10     -6.66      0.00
    8   16   10     -1.86      0.00
   10   16   10     15.14      0.00
   12   16   10     -4.68      0.00
   14   16   10      7.38      0.00
   16   16   10     -2.02      0.00
   18   16   10     -0.50      0.00
   20   16   10      9.48      0.00
  -27   17   10     -3.00      0.00
  -25   17   10     -1.02      0.00
  -23   17   10     -1.86      0.00
  -21   17   10     -5.70      0.00
  -19   17   10      3.74      0.00
  -17   17   10      9.37      0.00
  -15   17   10      0.66      0.00
  -13   17   10      7.74      0.00
  -11   17   10      4.80      0.00
   -9   17   10      1.59      0.00
   -7   17   10      0.10      0.00
   -5   17   10      2.39      0.00
   -3   17   10     -5.24      0.00
   -1   17   10     -1.75      0.00
    1   17   10     -0.71      0.00
    3   17   10      4.62      0.00
    5   17   10      4.24      0.00
    7   17   10     -5.41      0.00
    9   17   10     -3.68      0.00
   11   17   10     -9.92      0.00
   13   17   10    -10.04      0.00
   15   17   10     -2.17      0.00
   17   17   10     -4.49      0.00
   19   17   10     -0.37      0.00
  -24   18   10     -8.22      0.00
  -22   18   10     -1.41      0.00
  -20   18   10      4.02      0.00
  -18   18   10     11.15      0.00
  -16   18   10      4.13      0.00
  -14   18   10     -1.22      0.00
  -12   18   10      7.77      0.00
  -10   18   10     -8.90      0.00
   -8   18   10     -0.80      0.00
   -6   18   10      3.25      0.00
   -4   18   10      5.56      0.00
   -2   18   10      1.40      0.00
    0   18   10     -4.09      0.00
    2   18   10      1.25      0.00
    4   18   10     -0.14      0.00
    6   18   10     -9.57      0.00
    8   18   10      5.23      0.00
   10   18   10    -18.13      0.00
   12   18   10     -6.64      0.00
   14   18   10     -8.29      0.00
   16   18   10     12.23      0.00
  -21   19   10      3.76      0.00
  -19   19   10     -5.82      0.00
  -17   19   10     -1.99      0.00
  -15   19   10     -0.19      0.00
  -13   19   10     -2.51      0.00
  -11   19   10     -0.92      0.00
   -9   19   10      4.77      0.00
   -7   19   10      2.19      0.00
   -5   19   10      3.10      0.00
   -3   19   10     -0.52      0.00
   -1   19   10     -6.18      0.00
    1   19   10      3.27      0.00
    3   19   10     -6.97      0.00
    5   19   10    -11.55      0.00
    7   19   10      3.56      0.00
    9   19   10     -5.03      0.00
   11   19   10     -8.52      0.00
   13   19   10      3.68      0.00
   15   19   10    -10.12      0.00
  -18   20   10    -13.51      0.00
  -16   20   10     -0.55      0.00
  -14   20   10      1.44      0.00
  -12   20   10      6.66      0.00
  -10   20   10      8.36      0.00
   -8   20   10      2.75      0.00
   -6   20   10     -6.58      0.00
   -4   20   10     -2.26      0.00
   -2   20   10      1.17      0.00
    0   20   10     -3.53      0.00
    2   20   10     -8.26      0.00
    4   20   10     12.01      0.00
    6   20   10    -19.14      0.00
    8   20   10    -11.59      0.00
   10   20   10      1.84      0.00
  -13   21   10     -1.66      0.00
  -11   21   10      3.24      0.00
   -9   21   10      5.10      0.00
   -7   21   10      0.95      0.00
   -5   21   10     -4.71      0.00
   -3   21   10     -3.62      0.00
   -1   21   10      3.49      0.00
    1   21   10      2.42      0.00
    3   21   10      9.64      0.00
    5   21   10      2.25      0.00
  -39    1   11     -8.75      0.00
  -37    1   11      0.20      0.00
  -35    1   11     -1.62      0.00
  -33    1   11     -4.77      0.00
  -31    1   11      4.29      0.00
  -29    1   11      1.62      0.00
  -27    1   11     -2.24      0.00
  -25    1   11     -9.89      0.00
  -23    1   11     -7.17      0.00
  -21    1   11      3.52      0.00
  -19    1   11     -7.19      0.00
  -17    1   11     -0.62      0.00
  -15    1   11      0.13      0.00
  -13    1   11      9.04      0.00
  -11    1   11      2.23      0.00
   -9    1   11     16.27      0.00
   -7    1   11     -0.29      0.00
   -5    1   11    -15.41      0.00
   -3    1   11    -26.31      0.00
   -1    1   11    -18.29      0.00
    1    1   11      6.01      0.00
    3    1   11      7.54      0.00
    5    1   11     14.37      0.00
    7    1   11     -8.61      0.00
    9    1   11      3.78      0.00
   11    1   11      0.64      0.00
   13    1   11     -5.31      0.00
   15    1   11      0.75      0.00
   17    1   11     -9.09      0.00
   19    1   11     -0.08      0.00
   21    1   11     -1.50      0.00
   23    1   11      2.29      0.00
   25    1   11      5.72      0.00
   27    1   11     -3.68      0.00
   29    1   11     14.28      0.00
   31    1   11    -14.79      0.00
   33    1   11     -7.53      0.00
  -40    2   11     21.79      0.00
  -38    2   11     23.05      0.00
  -36    2   11     -7.82      0.00
  -34    2   11     -5.00      0.00
  -32    2   11      5.20      0.00
  -30    2   11     -2.59      0.00
  -28    2   11     -0.99      0.00
  -26    2   11     -6.68      0.00
  -24    2   11      0.69      0.00
  -22    2   11     -4.04      0.00
  -20    2   11    -12.17      0.00
  -18    2   11     -0.79      0.00
  -16    2   11    -15.68      0.00
  -14    2   11    -11.22      0.00
  -12    2   11     12.28      0.00
  -10    2   11     10.30      0.00
   -8    2   11    -24.86      0.00
   -6    2   11    -10.57      0.00
   -4    2   11    -12.19      0.00
   -2    2   11    -23.81      0.00
    0    2   11      3.10      0.00
    2    2   11     -0.86      0.00
    4    2   11      0.69      0.00
    6    2   11      2.75      0.00
    8    2   11      9.77      0.00
   10    2   11      4.97      0.00
   12    2   11      5.78      0.00
   14    2   11     -4.38      0.00
   16    2   11      3.54      0.00
   18    2   11      6.18      0.00
   20    2   11     -6.63      0.00
   22    2   11      8.49      0.00
   24    2   11     -8.85      0.00
   26    2   11    -15.65      0.00
   28    2   11     -6.49      0.00
   30    2   11     30.70      0.00
   32    2   11     -9.21      0.00
   34    2   11    -25.09      0.00
  -41    3   11    -26.93      0.00
  -39    3   11     -7.22      0.00
  -37    3   11     -6.17      0.00
  -35    3   11      8.03      0.00
  -33    3   11     -0.47      0.00
  -31    3   11     -1.00      0.00
  -29    3   11     -2.76      0.00
  -27    3   11      4.76      0.00
  -25    3   11      2.01      0.00
  -23    3   11      2.14      0.00
  -21    3   11      7.87      0.00
  -19    3   11      9.72      0.00
  -17    3   11    -13.32      0.00
  -15    3   11     18.81      0.00
  -13    3   11     -2.44      0.00
  -11    3   11    -11.88      0.00
   -9    3   11     -7.11      0.00
   -7    3   11    -22.55      0.00
   -5    3   11     -5.23      0.00
   -3    3   11      4.86      0.00
   -1    3   11    -12.87      0.00
    1    3   11    -16.74      0.00
    3    3   11     10.01      0.00
    5    3   11     25.41      0.00
    7    3   11      6.98      0.00
    9    3   11     -0.71      0.00
   11    3   11      4.40      0.00
   13    3   11      1.37      0.00
   15    3   11     -5.72      0.00
   17    3   11     -1.12      0.00
   19    3   11     -3.50      0.00
   21    3   11     -6.20      0.00
   23    3   11     -1.33      0.00
   25    3   11      1.99      0.00
   27    3   11      2.30      0.00
   29    3   11    -34.35      0.00
   31    3   11     -8.52      0.00
   33    3   11     21.77      0.00
  -40    4   11    -36.94      0.00
  -38    4   11    -11.20      0.00
  -36    4   11    -14.91      0.00
  -34    4   11      7.46      0.00
  -32    4   11      1.10      0.00
  -30    4   11      2.19      0.00
  -28    4   11      0.05      0.00
  -26    4   11     -4.12      0.00
  -24    4   11     -4.21      0.00
  -22    4   11     -7.11      0.00
  -20    4   11    -13.64      0.00
  -16    4   11      3.92      0.00
  -14    4   11     -3.38      0.00
  -12    4   11    -10.29      0.00
  -10    4   11     21.35      0.00
   -8    4   11    -10.65      0.00
   -6    4   11     15.68      0.00
   -4    4   11     20.85      0.00
   -2    4   11    -17.74      0.00
    0    4   11     -2.51      0.00
    2    4   11    -12.59      0.00
    4    4   11    -14.55      0.00
    6    4   11     -4.18      0.00
    8    4   11     -3.52      0.00
   10    4   11      1.92      0.00
   12    4   11      1.44      0.00
   14    4   11     -5.31      0.00
   16    4   11     -9.86      0.00
   18    4   11     -6.18      0.00
   20    4   11    -16.31      0.00
   22    4   11     -5.23      0.00
   24    4   11      7.02      0.00
   26    4   11     -4.43      0.00
   28    4   11     17.35      0.00
   30    4   11    -10.27      0.00
   32    4   11    -51.31      0.00
   34    4   11    -43.47      0.00
  -39    5   11     -0.43      0.00
  -37    5   11     -3.02      0.00
  -35    5   11     -2.58      0.00
  -33    5   11      8.09      0.00
  -31    5   11     -1.93      0.00
  -29    5   11     -1.09      0.00
  -27    5   11      1.99      0.00
  -25    5   11     -0.49      0.00
  -23    5   11     -0.66      0.00
  -21    5   11      4.74      0.00
  -17    5   11      3.68      0.00
  -15    5   11     -8.14      0.00
  -13    5   11      9.30      0.00
  -11    5   11      0.46      0.00
   -9    5   11    -21.39      0.00
   -7    5   11    -20.65      0.00
   -5    5   11     14.96      0.00
   -3    5   11     -9.01      0.00
   -1    5   11      2.83      0.00
    1    5   11      9.24      0.00
    3    5   11    -15.00      0.00
    5    5   11     22.34      0.00
    7    5   11     12.17      0.00
    9    5   11     -0.58      0.00
   11    5   11      2.85      0.00
   13    5   11     10.56      0.00
   15    5   11     -3.20      0.00
   17    5   11      2.32      0.00
   19    5   11    -14.15      0.00
   21    5   11    -11.20      0.00
   23    5   11      9.09      0.00
   25    5   11    -17.80      0.00
   27    5   11      8.28      0.00
   29    5   11    -15.06      0.00
   31    5   11     20.22      0.00
   33    5   11    -48.56      0.00
  -38    6   11     -4.54      0.00
  -36    6   11      6.18      0.00
  -34    6   11     -9.72      0.00
  -32    6   11     -2.36      0.00
  -30    6   11     -5.25      0.00
  -28    6   11     -4.70      0.00
  -26    6   11    -11.12      0.00
  -24    6   11      0.11      0.00
  -22    6   11      1.73      0.00
  -20    6   11      0.93      0.00
  -18    6   11     -5.85      0.00
  -16    6   11      0.21      0.00
  -14    6   11      3.09      0.00
  -12    6   11    -14.76      0.00
  -10    6   11      4.74      0.00
   -8    6   11     -0.37      0.00
   -6    6   11     -2.35      0.00
   -4    6   11      2.20      0.00
   -2    6   11      2.05      0.00
    0    6   11     -4.07      0.00
    2    6   11      6.41      0.00
    4    6   11     -1.68      0.00
    6    6   11     -1.91      0.00
    8    6   11     -0.22      0.00
   10    6   11      0.71      0.00
   12    6   11     10.02      0.00
   14    6   11     -4.85      0.00
   16    6   11     -7.64      0.00
   18    6   11      0.37      0.00
   20    6   11     -0.96      0.00
   22    6   11     -8.98      0.00
   24    6   11     20.17      0.00
   26    6   11     45.67      0.00
   28    6   11     22.02      0.00
   30    6   11    -29.56      0.00
   32    6   11      6.41      0.00
  -37    7   11     -5.84      0.00
  -35    7   11     -5.17      0.00
  -33    7   11     -1.71      0.00
  -31    7   11     -0.83      0.00
  -29    7   11     -1.41      0.00
  -27    7   11     -3.48      0.00
  -25    7   11      2.20      0.00
  -23    7   11      6.60      0.00
  -21    7   11      0.51      0.00
  -19    7   11      5.78      0.00
  -17    7   11     -3.58      0.00
  -15    7   11      1.09      0.00
  -13    7   11      3.42      0.00
  -11    7   11     16.64      0.00
   -9    7   11     -0.84      0.00
   -7    7   11    -27.59      0.00
   -5    7   11     -3.31      0.00
   -3    7   11      1.55      0.00
   -1    7   11    -19.19      0.00
    1    7   11      1.06      0.00
    3    7   11    -13.90      0.00
    5    7   11     -1.60      0.00
    7    7   11      0.34      0.00
    9    7   11     -2.03      0.00
   11    7   11     -2.22      0.00
   13    7   11     -2.79      0.00
   15    7   11     -1.00      0.00
   17    7   11      1.00      0.00
   19    7   11    -15.43      0.00
   21    7   11     10.71      0.00
   23    7   11     16.75      0.00
   25    7   11     13.63      0.00
   27    7   11    -20.15      0.00
   29    7   11      7.34      0.00
   31    7   11     16.40      0.00
  -36    8   11     -1.28      0.00
  -34    8   11     -2.80      0.00
  -32    8   11      4.26      0.00
  -30    8   11      5.89      0.00
  -28    8   11     -5.90      0.00
  -26    8   11     -2.88      0.00
  -24    8   11     -6.87      0.00
  -22    8   11     -0.75      0.00
  -20    8   11     -6.45      0.00
  -18    8   11     -3.76      0.00
  -16    8   11     -8.46      0.00
  -14    8   11      4.88      0.00
  -12    8   11      3.92      0.00
  -10    8   11     -0.53      0.00
   -8    8   11      4.54      0.00
   -6    8   11      9.44      0.00
   -4    8   11      7.26      0.00
   -2    8   11      3.60      0.00
    0    8   11      9.18      0.00
    2    8   11     -4.81      0.00
    4    8   11     -6.83      0.00
    6    8   11      6.74      0.00
    8    8   11     -0.40      0.00
   10    8   11      5.71      0.00
   12    8   11     -1.21      0.00
   14    8   11     -3.28      0.00
   16    8   11     -9.71      0.00
   18    8   11     -0.94      0.00
   20    8   11      0.89      0.00
   22    8   11    -12.85      0.00
   24    8   11     14.46      0.00
   26    8   11     42.27      0.00
   28    8   11     39.41      0.00
   30    8   11    -15.55      0.00
  -35    9   11     -6.28      0.00
  -33    9   11      4.00      0.00
  -31    9   11    -16.34      0.00
  -29    9   11     -6.35      0.00
  -27    9   11     -0.28      0.00
  -25    9   11      4.80      0.00
  -23    9   11      3.64      0.00
  -21    9   11      5.11      0.00
  -19    9   11      2.26      0.00
  -17    9   11      2.00      0.00
  -15    9   11      3.45      0.00
  -13    9   11      1.63      0.00
  -11    9   11      8.22      0.00
   -9    9   11    -11.74      0.00
   -7    9   11     -3.82      0.00
   -5    9   11      2.88      0.00
   -3    9   11      5.57      0.00
   -1    9   11    -11.16      0.00
    1    9   11      2.92      0.00
    3    9   11    -11.47      0.00
    5    9   11     -8.59      0.00
    7    9   11      1.20      0.00
    9    9   11     -1.20      0.00
   11    9   11     -1.55      0.00
   13    9   11      2.82      0.00
   15    9   11      1.46      0.00
   17    9   11     -7.68      0.00
   19    9   11    -10.50      0.00
   21    9   11      2.39      0.00
   23    9   11    -12.30      0.00
   25    9   11     -2.55      0.00
   27    9   11      8.26      0.00
   29    9   11     -9.92      0.00
   31    9   11      3.31      0.00
  -36   10   11     -2.66      0.00
  -34   10   11     -5.16      0.00
  -32   10   11      1.37      0.00
  -30   10   11      5.10      0.00
  -28   10   11      6.35      0.00
  -26   10   11     -8.47      0.00
  -24   10   11      4.19      0.00
  -22   10   11      2.66      0.00
  -20   10   11      5.81      0.00
  -18   10   11     -5.12      0.00
  -16   10   11     -8.99      0.00
  -14   10   11     -0.64      0.00
  -12   10   11     -0.50      0.00
  -10   10   11     10.07      0.00
   -8   10   11      3.71      0.00
   -6   10   11      3.15      0.00
   -4   10   11     -1.55      0.00
   -2   10   11      0.58      0.00
    0   10   11      0.68      0.00
    2   10   11      0.11      0.00
    4   10   11     -2.05      0.00
    6   10   11      4.14      0.00
    8   10   11      6.26      0.00
   10   10   11     -6.03      0.00
   12   10   11     -7.33      0.00
   14   10   11     -9.18      0.00
   16   10   11      1.62      0.00
   18   10   11      1.34      0.00
   20   10   11      2.94      0.00
   22   10   11      1.58      0.00
   24   10   11      2.56      0.00
   26   10   11    -19.38      0.00
   28   10   11     17.28      0.00
   30   10   11     -2.54      0.00
  -35   11   11     11.23      0.00
  -33   11   11      3.41      0.00
  -31   11   11     -2.22      0.00
  -29   11   11     -5.36      0.00
  -27   11   11     -0.75      0.00
  -25   11   11     -4.15      0.00
  -23   11   11      5.41      0.00
  -21   11   11     -5.22      0.00
  -19   11   11     -4.18      0.00
  -17   11   11      1.71      0.00
  -15   11   11      1.52      0.00
  -13   11   11      5.51      0.00
  -11   11   11     -9.87      0.00
   -9   11   11     -8.70      0.00
   -7   11   11     -0.81      0.00
   -5   11   11      4.94      0.00
   -3   11   11      2.06      0.00
   -1   11   11     -1.35      0.00
    1   11   11     -7.02      0.00
    3   11   11     -6.96      0.00
    5   11   11      2.72      0.00
    7   11   11     -2.48      0.00
    9   11   11      5.11      0.00
   11   11   11      3.72      0.00
   13   11   11     -4.57      0.00
   15   11   11     -2.93      0.00
   17   11   11      0.30      0.00
   19   11   11     -5.23      0.00
   21   11   11      3.88      0.00
   23   11   11    -12.19      0.00
   25   11   11     -8.07      0.00
   27   11   11     12.78      0.00
   29   11   11      7.76      0.00
  -34   12   11    -22.30      0.00
  -32   12   11     -6.74      0.00
  -30   12   11      3.76      0.00
  -28   12   11     -2.97      0.00
  -26   12   11      0.36      0.00
  -24   12   11      1.09      0.00
  -22   12   11      1.06      0.00
  -20   12   11      1.79      0.00
  -18   12   11      3.10      0.00
  -16   12   11      0.33      0.00
  -14   12   11     -4.38      0.00
  -12   12   11     -1.38      0.00
  -10   12   11      5.96      0.00
   -8   12   11      3.24      0.00
   -6   12   11     -0.78      0.00
   -4   12   11      2.77      0.00
   -2   12   11      3.38      0.00
    0   12   11     -6.57      0.00
    2   12   11      6.07      0.00
    4   12   11     -0.77      0.00
    6   12   11     -1.84      0.00
    8   12   11      0.97      0.00
   10   12   11      0.47      0.00
   12   12   11     -3.65      0.00
   14   12   11     -7.98      0.00
   16   12   11      0.53      0.00
   18   12   11     -2.72      0.00
   20   12   11     -7.43      0.00
   22   12   11     -1.93      0.00
   24   12   11     -4.86      0.00
   26   12   11      0.46      0.00
   28   12   11      0.66      0.00
  -33   13   11      2.10      0.00
  -31   13   11    -12.32      0.00
  -29   13   11      1.22      0.00
  -27   13   11      8.77      0.00
  -25   13   11     -5.83      0.00
  -23   13   11      5.21      0.00
  -21   13   11     -1.99      0.00
  -19   13   11     -3.86      0.00
  -17   13   11      0.79      0.00
  -15   13   11      7.23      0.00
  -13   13   11      4.54      0.00
  -11   13   11     -9.13      0.00
   -9   13   11     -1.86      0.00
   -7   13   11     14.53      0.00
   -5   13   11     -3.32      0.00
   -3   13   11      8.59      0.00
   -1   13   11      3.03      0.00
    1   13   11      7.11      0.00
    3   13   11     -6.74      0.00
    5   13   11      1.54      0.00
    7   13   11      2.93      0.00
    9   13   11     -6.47      0.00
   11   13   11      3.49      0.00
   13   13   11     -7.35      0.00
   15   13   11      4.08      0.00
   17   13   11      4.09      0.00
   19   13   11     -4.83      0.00
   21   13   11     -2.71      0.00
   23   13   11     -0.31      0.00
   25   13   11     -0.20      0.00
  -32   14   11      3.12      0.00
  -30   14   11     -3.61      0.00
  -28   14   11      0.34      0.00
  -26   14   11     -4.46      0.00
  -24   14   11      5.27      0.00
  -22   14   11      3.19      0.00
  -20   14   11     -0.02      0.00
  -18   14   11     -2.07      0.00
  -16   14   11     -8.51      0.00
  -14   14   11     -1.12      0.00
  -12   14   11     12.63      0.00
  -10   14   11      8.69      0.00
   -8   14   11      3.60      0.00
   -6   14   11      3.09      0.00
   -4   14   11     10.75      0.00
   -2   14   11      6.94      0.00
    0   14   11     -4.40      0.00
    2   14   11      4.03      0.00
    4   14   11     -4.17      0.00
    6   14   11     -6.02      0.00
    8   14   11     -3.00      0.00
   10   14   11     -6.16      0.00
   12   14   11     -3.33      0.00
   14   14   11      0.46      0.00
   16   14   11     10.53      0.00
   18   14   11     -9.89      0.00
   20   14   11      0.92      0.00
   22   14   11     -5.26      0.00
   24   14   11     -0.74      0.00
  -31   15   11     -2.31      0.00
  -29   15   11      2.84      0.00
  -27   15   11      1.90      0.00
  -25   15   11     -2.11      0.00
  -23   15   11      6.41      0.00
  -21   15   11      2.24      0.00
  -19   15   11     -3.78      0.00
  -17   15   11      1.44      0.00
  -15   15   11      2.38      0.00
  -13   15   11    -12.51      0.00
  -11   15   11     -3.26      0.00
   -9   15   11     -5.77      0.00
   -7   15   11     -1.23      0.00
   -5   15   11     -6.68      0.00
   -3   15   11     19.20      0.00
   -1   15   11     -0.04      0.00
    1   15   11      1.17      0.00
    3   15   11     -6.89      0.00
    5   15   11      0.65      0.00
    7   15   11      1.21      0.00
    9   15   11      3.98      0.00
   11   15   11    -22.67      0.00
   13   15   11      3.60      0.00
   15   15   11      9.29      0.00
   17   15   11     10.15      0.00
   19   15   11      0.75      0.00
   21   15   11      6.99      0.00
  -28   16   11      7.00      0.00
  -26   16   11      2.84      0.00
  -24   16   11      0.29      0.00
  -22   16   11     13.08      0.00
  -20   16   11      1.10      0.00
  -18   16   11     -3.97      0.00
  -16   16   11      1.00      0.00
  -14   16   11     -5.48      0.00
  -12   16   11      2.39      0.00
  -10   16   11      0.56      0.00
   -8   16   11      3.41      0.00
   -6   16   11     -7.81      0.00
   -4   16   11    -11.07      0.00
   -2   16   11     -1.85      0.00
    0   16   11      6.49      0.00
    2   16   11      0.53      0.00
    4   16   11      8.15      0.00
    6   16   11      0.07      0.00
    8   16   11      2.13      0.00
   10   16   11    -11.88      0.00
   12   16   11     -6.19      0.00
   14   16   11      8.65      0.00
   16   16   11      2.47      0.00
   18   16   11      4.37      0.00
   20   16   11      0.63      0.00
  -25   17   11      6.95      0.00
  -23   17   11     -5.19      0.00
  -21   17   11     -2.87      0.00
  -19   17   11      5.12      0.00
  -17   17   11     12.02      0.00
  -15   17   11      6.07      0.00
  -13   17   11      9.00      0.00
  -11   17   11     -5.77      0.00
   -9   17   11     -4.96      0.00
   -7   17   11     -7.70      0.00
   -5   17   11     17.56      0.00
   -3   17   11      2.10      0.00
   -1   17   11      4.62      0.00
    1   17   11     10.77      0.00
    3   17   11     11.64      0.00
    5   17   11    -10.67      0.00
    7   17   11      9.68      0.00
    9   17   11    -11.41      0.00
   11   17   11    -12.79      0.00
   13   17   11     -3.43      0.00
   15   17   11      5.61      0.00
   17   17   11     -1.12      0.00
  -22   18   11     -0.23      0.00
  -20   18   11     -3.45      0.00
  -18   18   11    -17.21      0.00
  -16   18   11     -0.59      0.00
  -14   18   11      1.73      0.00
  -12   18   11      0.42      0.00
  -10   18   11      2.67      0.00
   -8   18   11      3.03      0.00
   -6   18   11     -2.63      0.00
   -4   18   11    -15.44      0.00
   -2   18   11      5.28      0.00
    0   18   11      4.69      0.00
    2   18   11      2.09      0.00
    4   18   11      4.83      0.00
    6   18   11     12.60      0.00
    8   18   11     11.68      0.00
   10   18   11     -8.25      0.00
   12   18   11     -0.62      0.00
   14   18   11     -9.34      0.00
   16   18   11     -2.41      0.00
  -19   19   11     -8.80      0.00
  -17   19   11      3.13      0.00
  -15   19   11      2.28      0.00
  -13   19   11     -5.08      0.00
  -11   19   11      7.38      0.00
   -9   19   11      2.49      0.00
   -7   19   11     -8.81      0.00
   -5   19   11     -9.70      0.00
   -3   19   11      1.93      0.00
   -1   19   11      1.00      0.00
    1   19   11      6.23      0.00
    3   19   11      3.07      0.00
    5   19   11     -8.16      0.00
    7   19   11     -1.97      0.00
    9   19   11      4.05      0.00
   11   19   11      3.31      0.00
   13   19   11     16.76      0.00
  -16   20   11     -8.03      0.00
  -14   20   11     -0.98      0.00
  -12   20   11      5.14      0.00
  -10   20   11      2.92      0.00
   -8   20   11     -0.80      0.00
   -6   20   11     -0.63      0.00
   -4   20   11     -3.82      0.00
   -2   20   11     -2.00      0.00
    0   20   11     -0.65      0.00
    2   20   11      7.81      0.00
    4   20   11     14.78      0.00
    6   20   11    -10.70      0.00
    8   20   11     -0.43      0.00
   10   20   11      6.01      0.00
  -11   21   11      0.36      0.00
   -9   21   11     -0.69      0.00
   -7   21   11     -7.92      0.00
   -5   21   11     -5.41      0.00
   -3   21   11     -1.56      0.00
   -1   21   11      2.23      0.00
    1   21   11      9.80      0.00
    3   21   11      9.71      0.00
  -38    0   12     11.76      0.00
  -36    0   12     11.60      0.00
  -34    0   12     -6.91      0.00
  -32    0   12     -3.05      0.00
  -30    0   12     -4.01      0.00
  -28    0   12    -12.42      0.00
  -26    0   12     -5.05      0.00
  -24    0   12     -7.12      0.00
  -22    0   12     -3.87      0.00
  -20    0   12     -9.58      0.00
  -18    0   12     -1.89      0.00
  -16    0   12     -9.47      0.00
  -14    0   12      5.60      0.00
  -12    0   12      5.88      0.00
  -10    0   12    -27.64      0.00
   -8    0   12     -8.89      0.00
   -6    0   12      3.85      0.00
   -4    0   12      2.99      0.00
   -2    0   12     17.58      0.00
    0    0   12     24.90      0.00
    2    0   12     54.99      0.00
    4    0   12     -8.20      0.00
    6    0   12     -2.56      0.00
    8    0   12      1.76      0.00
   10    0   12     -6.95      0.00
   12    0   12     -1.59      0.00
   14    0   12     -0.53      0.00
   16    0   12     -9.70      0.00
   18    0   12     -7.99      0.00
   20    0   12     -3.55      0.00
   22    0   12     -8.69      0.00
   24    0   12     46.88      0.00
   28    0   12    -10.25      0.00
   30    0   12    -20.47      0.00
   32    0   12    -22.77      0.00
  -39    1   12     29.54      0.00
  -37    1   12     -0.11      0.00
  -35    1   12     -0.84      0.00
  -33    1   12      0.99      0.00
  -31    1   12      0.04      0.00
  -29    1   12      2.05      0.00
  -27    1   12      1.75      0.00
  -25    1   12     -1.35      0.00
  -23    1   12      5.27      0.00
  -21    1   12      4.51      0.00
  -19    1   12      4.92      0.00
  -17    1   12     -0.39      0.00
  -15    1   12     13.05      0.00
  -13    1   12    -11.88      0.00
  -11    1   12      3.55      0.00
   -9    1   12     17.38      0.00
   -7    1   12    -17.12      0.00
   -5    1   12    -26.81      0.00
   -3    1   12      3.75      0.00
   -1    1   12     42.52      0.00
    1    1   12    -19.16      0.00
    3    1   12     40.37      0.00
    5    1   12      5.67      0.00
    7    1   12      9.57      0.00
    9    1   12     13.05      0.00
   11    1   12      8.53      0.00
   13    1   12     -4.49      0.00
   15    1   12      0.59      0.00
   17    1   12     14.74      0.00
   19    1   12     -9.85      0.00
   23    1   12     -8.64      0.00
   25    1   12     -8.83      0.00
   27    1   12     10.89      0.00
   29    1   12    -11.40      0.00
   31    1   12     -9.55      0.00
   33    1   12    -12.14      0.00
  -40    2   12    -36.43      0.00
  -38    2   12     -2.91      0.00
  -36    2   12      3.00      0.00
  -34    2   12      8.43      0.00
  -32    2   12      1.26      0.00
  -30    2   12     -8.03      0.00
  -28    2   12     -0.70      0.00
  -26    2   12     -3.25      0.00
  -24    2   12     -1.98      0.00
  -22    2   12     -4.43      0.00
  -20    2   12      1.31      0.00
  -18    2   12    -10.21      0.00
  -16    2   12      1.24      0.00
  -14    2   12      1.09      0.00
  -12    2   12      9.55      0.00
  -10    2   12      8.58      0.00
   -8    2   12      7.05      0.00
   -6    2   12     14.91      0.00
   -4    2   12    -31.35      0.00
   -2    2   12     22.71      0.00
    0    2   12    -25.04      0.00
    2    2   12     29.39      0.00
    4    2   12      4.67      0.00
    6    2   12     10.54      0.00
    8    2   12     18.62      0.00
   10    2   12     -5.03      0.00
   12    2   12     14.59      0.00
   14    2   12     -0.50      0.00
   16    2   12     -9.82      0.00
   18    2   12     10.40      0.00
   20    2   12     -0.10      0.00
   24    2   12     17.89      0.00
   26    2   12    -18.51      0.00
   28    2   12    -61.83      0.00
   30    2   12    -32.97      0.00
   32    2   12    -32.97      0.00
  -39    3   12    -41.58      0.00
  -37    3   12     10.84      0.00
  -35    3   12      1.69      0.00
  -33    3   12    -10.75      0.00
  -31    3   12     -2.54      0.00
  -29    3   12     -2.90      0.00
  -27    3   12      5.65      0.00
  -25    3   12      2.88      0.00
  -23    3   12      4.41      0.00
  -21    3   12      3.33      0.00
  -19    3   12      1.53      0.00
  -17    3   12     14.09      0.00
  -15    3   12     12.37      0.00
  -13    3   12    -14.68      0.00
  -11    3   12    -25.47      0.00
   -9    3   12     13.30      0.00
   -7    3   12      5.78      0.00
   -5    3   12     23.64      0.00
   -3    3   12     -2.48      0.00
   -1    3   12    -20.17      0.00
    1    3   12     -7.57      0.00
    3    3   12     20.51      0.00
    5    3   12     -2.41      0.00
    7    3   12      4.96      0.00
    9    3   12     -0.94      0.00
   11    3   12      2.78      0.00
   13    3   12      0.07      0.00
   15    3   12     -1.85      0.00
   17    3   12      0.60      0.00
   19    3   12    -14.87      0.00
   21    3   12     -4.20      0.00
   23    3   12     10.82      0.00
   25    3   12      9.50      0.00
   27    3   12    -32.27      0.00
   29    3   12    -49.58      0.00
   31    3   12    -18.19      0.00
   33    3   12    -28.20      0.00
  -40    4   12    -37.31      0.00
  -38    4   12     -2.05      0.00
  -36    4   12     -6.84      0.00
  -34    4   12      4.62      0.00
  -32    4   12      2.18      0.00
  -30    4   12      1.34      0.00
  -28    4   12     -1.23      0.00
  -26    4   12     -4.02      0.00
  -24    4   12     -5.09      0.00
  -22    4   12     -0.95      0.00
  -20    4   12     -1.39      0.00
  -18    4   12     -6.91      0.00
  -16    4   12    -10.28      0.00
  -14    4   12     -8.93      0.00
  -12    4   12      4.02      0.00
  -10    4   12     20.10      0.00
   -8    4   12      7.79      0.00
   -6    4   12     20.34      0.00
   -4    4   12     -7.89      0.00
   -2    4   12     19.00      0.00
    0    4   12      3.08      0.00
    2    4   12     -5.33      0.00
    4    4   12     -9.58      0.00
    6    4   12      4.27      0.00
    8    4   12     -3.55      0.00
   10    4   12     -0.23      0.00
   12    4   12      5.80      0.00
   14    4   12     -3.48      0.00
   16    4   12     -4.73      0.00
   18    4   12     -2.06      0.00
   20    4   12      5.58      0.00
   22    4   12      3.90      0.00
   24    4   12      5.16      0.00
   26    4   12      3.29      0.00
   28    4   12     53.36      0.00
   30    4   12     13.96      0.00
   32    4   12    -30.07      0.00
  -39    5   12     19.40      0.00
  -37    5   12     -0.48      0.00
  -35    5   12     -5.40      0.00
  -33    5   12     -9.14      0.00
  -31    5   12      0.43      0.00
  -29    5   12      1.70      0.00
  -27    5   12      2.85      0.00
  -25    5   12      2.42      0.00
  -23    5   12      0.72      0.00
  -21    5   12     -1.67      0.00
  -17    5   12      0.12      0.00
  -15    5   12     -0.40      0.00
  -13    5   12      8.10      0.00
  -11    5   12     -9.23      0.00
   -9    5   12     -5.95      0.00
   -7    5   12      7.58      0.00
   -5    5   12    -20.46      0.00
   -3    5   12     -1.85      0.00
   -1    5   12      5.27      0.00
    1    5   12      4.36      0.00
    3    5   12     21.61      0.00
    5    5   12     -5.28      0.00
    7    5   12     19.11      0.00
    9    5   12     -2.42      0.00
   11    5   12      5.96      0.00
   13    5   12      6.37      0.00
   15    5   12      2.37      0.00
   17    5   12      6.17      0.00
   19    5   12      9.73      0.00
   21    5   12     19.52      0.00
   23    5   12     18.91      0.00
   25    5   12     33.29      0.00
   27    5   12     -6.59      0.00
   29    5   12    -27.55      0.00
   31    5   12     26.38      0.00
  -38    6   12      8.85      0.00
  -36    6   12      6.44      0.00
  -34    6   12     -3.45      0.00
  -32    6   12      5.24      0.00
  -30    6   12     -8.45      0.00
  -28    6   12     -3.96      0.00
  -26    6   12     -2.81      0.00
  -24    6   12      3.70      0.00
  -22    6   12      7.05      0.00
  -20    6   12     -2.73      0.00
  -18    6   12      0.86      0.00
  -16    6   12      0.15      0.00
  -14    6   12     -0.47      0.00
  -12    6   12     -8.89      0.00
  -10    6   12     10.47      0.00
   -8    6   12      7.84      0.00
   -6    6   12    -12.97      0.00
   -4    6   12     -5.80      0.00
   -2    6   12      8.93      0.00
    0    6   12    -29.80      0.00
    2    6   12      1.26      0.00
    4    6   12    -14.34      0.00
    6    6   12     -1.46      0.00
    8    6   12     -0.79      0.00
   10    6   12     -0.44      0.00
   12    6   12     -8.89      0.00
   14    6   12     -3.18      0.00
   16    6   12      1.86      0.00
   18    6   12      5.38      0.00
   20    6   12      0.97      0.00
   22    6   12      4.57      0.00
   24    6   12      2.49      0.00
   26    6   12    -23.99      0.00
   28    6   12      6.33      0.00
   30    6   12     26.89      0.00
   32    6   12     32.13      0.00
  -37    7   12      4.57      0.00
  -35    7   12     -8.74      0.00
  -33    7   12      1.93      0.00
  -31    7   12     -3.93      0.00
  -29    7   12     -0.45      0.00
  -27    7   12      5.17      0.00
  -25    7   12     -5.20      0.00
  -23    7   12      0.70      0.00
  -21    7   12     -7.30      0.00
  -19    7   12     -3.52      0.00
  -17    7   12      0.10      0.00
  -15    7   12     -6.76      0.00
  -13    7   12     11.45      0.00
  -11    7   12     11.75      0.00
   -9    7   12      1.25      0.00
   -7    7   12     -3.20      0.00
   -5    7   12      8.81      0.00
   -3    7   12     -1.23      0.00
   -1    7   12     13.58      0.00
    1    7   12     14.27      0.00
    3    7   12     -0.59      0.00
    5    7   12     -0.78      0.00
    7    7   12     11.29      0.00
    9    7   12     -3.00      0.00
   11    7   12     -5.70      0.00
   13    7   12      5.86      0.00
   15    7   12     -5.74      0.00
   17    7   12    -12.54      0.00
   19    7   12     -8.47      0.00
   21    7   12     -4.40      0.00
   23    7   12      3.34      0.00
   25    7   12     -0.42      0.00
   27    7   12     15.07      0.00
   29    7   12     55.54      0.00
   31    7   12     -2.58      0.00
  -36    8   12     -2.96      0.00
  -34    8   12      2.23      0.00
  -32    8   12      0.44      0.00
  -30    8   12     -0.60      0.00
  -28    8   12      7.20      0.00
  -26    8   12      3.42      0.00
  -24    8   12     -1.90      0.00
  -22    8   12      2.28      0.00
  -20    8   12     -6.58      0.00
  -18    8   12      1.69      0.00
  -16    8   12      3.67      0.00
  -14    8   12      4.03      0.00
  -12    8   12      4.00      0.00
  -10    8   12      0.17      0.00
   -8    8   12     19.01      0.00
   -6    8   12      2.85      0.00
   -4    8   12    -13.16      0.00
   -2    8   12      6.94      0.00
    0    8   12     -7.05      0.00
    2    8   12      1.29      0.00
    4    8   12    -10.55      0.00
    6    8   12      8.38      0.00
    8    8   12     -2.36      0.00
   10    8   12      6.13      0.00
   12    8   12      4.03      0.00
   14    8   12      2.17      0.00
   16    8   12      1.57      0.00
   18    8   12     10.44      0.00
   20    8   12     -2.53      0.00
   22    8   12     11.66      0.00
   24    8   12     17.61      0.00
   26    8   12     -3.89      0.00
   28    8   12     -8.12      0.00
   30    8   12     -7.50      0.00
  -35    9   12      8.81      0.00
  -33    9   12      0.76      0.00
  -31    9   12     -0.29      0.00
  -29    9   12      5.75      0.00
  -27    9   12      0.77      0.00
  -25    9   12      0.39      0.00
  -23    9   12      1.83      0.00
  -21    9   12     -5.28      0.00
  -19    9   12     -1.14      0.00
  -17    9   12      0.26      0.00
  -15    9   12      1.07      0.00
  -13    9   12      2.31      0.00
  -11    9   12      0.84      0.00
   -9    9   12    -11.57      0.00
   -7    9   12      1.45      0.00
   -3    9   12     -3.34      0.00
   -1    9   12     -3.03      0.00
    1    9   12    -10.64      0.00
    3    9   12      6.29      0.00
    5    9   12     -7.25      0.00
    7    9   12      8.48      0.00
    9    9   12     -5.49      0.00
   11    9   12     -1.23      0.00
   13    9   12     -4.17      0.00
   15    9   12    -11.46      0.00
   17    9   12     -1.86      0.00
   19    9   12     -4.55      0.00
   21    9   12     -2.82      0.00
   23    9   12    -11.07      0.00
   25    9   12    -15.25      0.00
   27    9   12      0.01      0.00
   29    9   12     17.61      0.00
  -34   10   12      4.99      0.00
  -32   10   12      4.10      0.00
  -30   10   12      1.64      0.00
  -28   10   12     -0.09      0.00
  -26   10   12     -4.50      0.00
  -24   10   12     -0.58      0.00
  -22   10   12      0.36      0.00
  -20   10   12     -2.49      0.00
  -18   10   12     -5.68      0.00
  -16   10   12     -0.25      0.00
  -14   10   12     -1.03      0.00
  -12   10   12     -1.29      0.00
  -10   10   12      4.20      0.00
   -8   10   12     -1.24      0.00
   -2   10   12      6.44      0.00
    0   10   12     -0.54      0.00
    2   10   12      1.52      0.00
    4   10   12     -1.18      0.00
    6   10   12      7.19      0.00
    8   10   12      4.07      0.00
   10   10   12      4.10      0.00
   12   10   12      2.71      0.00
   14   10   12      1.41      0.00
   16   10   12      1.87      0.00
   18   10   12      2.83      0.00
   20   10   12     -0.23      0.00
   22   10   12     11.07      0.00
   24   10   12      4.37      0.00
   26   10   12     -0.32      0.00
   28   10   12    -11.27      0.00
  -35   11   12    -29.16      0.00
  -33   11   12      5.78      0.00
  -31   11   12     -3.68      0.00
  -29   11   12     -6.50      0.00
  -27   11   12      3.90      0.00
  -25   11   12      2.63      0.00
  -23   11   12      6.29      0.00
  -21   11   12     -5.24      0.00
  -19   11   12     -1.26      0.00
  -17   11   12     11.72      0.00
  -15   11   12     11.51      0.00
  -13   11   12      4.73      0.00
  -11   11   12     -4.86      0.00
   -9   11   12     -1.24      0.00
   -7   11   12      6.09      0.00
   -5   11   12     -4.56      0.00
   -3   11   12      2.78      0.00
   -1   11   12     -3.58      0.00
    1   11   12     -2.05      0.00
    3   11   12     -4.86      0.00
    5   11   12      0.96      0.00
    7   11   12     -5.19      0.00
    9   11   12     -0.78      0.00
   11   11   12      4.71      0.00
   13   11   12     -9.31      0.00
   15   11   12     -4.32      0.00
   17   11   12     -9.64      0.00
   19   11   12     -7.51      0.00
   21   11   12     -9.21      0.00
   23   11   12      2.46      0.00
   25   11   12     -5.31      0.00
   27   11   12      1.02      0.00
  -34   12   12      3.70      0.00
  -32   12   12     -0.98      0.00
  -30   12   12      5.18      0.00
  -28   12   12      2.20      0.00
  -26   12   12     -5.40      0.00
  -24   12   12      5.42      0.00
  -22   12   12     -0.20      0.00
  -20   12   12     -2.11      0.00
  -18   12   12      4.37      0.00
  -16   12   12     -7.32      0.00
  -14   12   12     -6.28      0.00
  -12   12   12      9.08      0.00
  -10   12   12     -1.74      0.00
   -8   12   12      1.22      0.00
   -6   12   12    -13.50      0.00
   -4   12   12      7.89      0.00
   -2   12   12      1.62      0.00
    0   12   12      5.98      0.00
    2   12   12     -5.80      0.00
    4   12   12     -1.36      0.00
    6   12   12      9.09      0.00
    8   12   12      0.60      0.00
   10   12   12      4.86      0.00
   12   12   12     -1.78      0.00
   14   12   12     19.42      0.00
   16   12   12      4.75      0.00
   18   12   12     -2.22      0.00
   20   12   12     -9.19      0.00
   22   12   12      2.63      0.00
   24   12   12     10.51      0.00
   26   12   12     -0.42      0.00
  -33   13   12      8.58      0.00
  -31   13   12      8.81      0.00
  -29   13   12      2.74      0.00
  -27   13   12      0.99      0.00
  -25   13   12     -3.73      0.00
  -23   13   12      7.32      0.00
  -21   13   12     -3.41      0.00
  -19   13   12     -6.16      0.00
  -17   13   12     -4.61      0.00
  -15   13   12      7.35      0.00
  -13   13   12     -5.87      0.00
  -11   13   12     -8.67      0.00
   -9   13   12     -3.93      0.00
   -7   13   12      3.54      0.00
   -5   13   12     -1.09      0.00
   -3   13   12     -0.30      0.00
   -1   13   12      8.18      0.00
    1   13   12      2.16      0.00
    3   13   12    -13.34      0.00
    5   13   12    -11.04      0.00
    7   13   12      3.38      0.00
    9   13   12      1.89      0.00
   11   13   12     -0.36      0.00
   13   13   12      1.26      0.00
   15   13   12      1.00      0.00
   17   13   12     -1.22      0.00
   19   13   12      1.83      0.00
   21   13   12      1.55      0.00
   23   13   12      0.04      0.00
   25   13   12     -0.72      0.00
  -32   14   12     11.59      0.00
  -30   14   12      6.68      0.00
  -28   14   12     -1.80      0.00
  -26   14   12      7.45      0.00
  -24   14   12     14.08      0.00
  -22   14   12      7.13      0.00
  -20   14   12     -4.91      0.00
  -18   14   12      1.52      0.00
  -16   14   12     -5.36      0.00
  -14   14   12    -16.83      0.00
  -12   14   12      5.54      0.00
  -10   14   12      2.45      0.00
   -8   14   12      3.28      0.00
   -6   14   12      0.74      0.00
   -4   14   12      4.43      0.00
   -2   14   12      4.14      0.00
    0   14   12     -7.76      0.00
    2   14   12     -3.28      0.00
    4   14   12      5.69      0.00
    6   14   12     -0.02      0.00
    8   14   12     -5.00      0.00
   10   14   12    -14.66      0.00
   12   14   12      4.05      0.00
   14   14   12      9.92      0.00
   16   14   12      6.66      0.00
   18   14   12     -0.19      0.00
   20   14   12      4.62      0.00
   22   14   12     -5.66      0.00
   24   14   12      7.00      0.00
  -31   15   12      0.57      0.00
  -29   15   12      3.77      0.00
  -27   15   12      0.99      0.00
  -25   15   12      4.03      0.00
  -23   15   12     -4.80      0.00
  -21   15   12      0.12      0.00
  -19   15   12     -0.68      0.00
  -17   15   12     11.91      0.00
  -15   15   12      7.07      0.00
  -13   15   12     -0.40      0.00
  -11   15   12      0.13      0.00
   -9   15   12     -6.04      0.00
   -7   15   12    -11.04      0.00
   -5   15   12     -7.82      0.00
   -3   15   12     -3.30      0.00
   -1   15   12     10.48      0.00
    3   15   12      0.02      0.00
    5   15   12      6.99      0.00
    7   15   12     -2.65      0.00
    9   15   12      0.00      0.00
   11   15   12     -7.06      0.00
   13   15   12     11.71      0.00
   15   15   12      5.25      0.00
   17   15   12     12.10      0.00
   19   15   12     -2.04      0.00
   21   15   12     -1.19      0.00
  -28   16   12     -1.68      0.00
  -26   16   12      5.74      0.00
  -24   16   12     -4.76      0.00
  -22   16   12      1.85      0.00
  -20   16   12      0.95      0.00
  -18   16   12      6.53      0.00
  -16   16   12      4.93      0.00
  -14   16   12      2.48      0.00
  -12   16   12      0.05      0.00
  -10   16   12      8.96      0.00
   -8   16   12     -4.53      0.00
   -6   16   12     11.11      0.00
   -4   16   12      0.68      0.00
   -2   16   12     11.23      0.00
    0   16   12     -6.70      0.00
    2   16   12     -2.59      0.00
    4   16   12     -3.61      0.00
    6   16   12    -10.34      0.00
    8   16   12      2.45      0.00
   10   16   12      1.80      0.00
   12   16   12      3.91      0.00
   14   16   12    -10.08      0.00
   16   16   12     -4.79      0.00
   18   16   12      6.22      0.00
  -25   17   12      0.59      0.00
  -23   17   12     -7.81      0.00
  -21   17   12     -1.94      0.00
  -19   17   12      7.47      0.00
  -17   17   12     -0.06      0.00
  -15   17   12      7.83      0.00
  -13   17   12      0.48      0.00
  -11   17   12      2.33      0.00
   -9   17   12      7.90      0.00
   -7   17   12     -1.63      0.00
   -5   17   12     -0.93      0.00
   -3   17   12     -2.60      0.00
   -1   17   12      0.45      0.00
    1   17   12      7.87      0.00
    3   17   12     -2.23      0.00
    5   17   12     18.72      0.00
    7   17   12     -0.55      0.00
    9   17   12      1.38      0.00
   11   17   12     -4.03      0.00
   13   17   12     -5.71      0.00
   15   17   12     -6.44      0.00
   17   17   12     -7.06      0.00
  -22   18   12     -5.18      0.00
  -20   18   12      2.54      0.00
  -18   18   12     -5.58      0.00
  -16   18   12     -2.77      0.00
  -14   18   12    -18.86      0.00
  -12   18   12     -3.63      0.00
  -10   18   12    -10.27      0.00
   -8   18   12     -5.76      0.00
   -6   18   12    -22.92      0.00
   -4   18   12      0.99      0.00
   -2   18   12     -2.98      0.00
    0   18   12     -3.32      0.00
    2   18   12     -8.74      0.00
    4   18   12      7.89      0.00
    6   18   12      2.04      0.00
    8   18   12      7.13      0.00
   10   18   12      7.29      0.00
   12   18   12     -2.65      0.00
   14   18   12     -1.97      0.00
  -19   19   12     -8.23      0.00
  -17   19   12      1.25      0.00
  -15   19   12     -1.90      0.00
  -13   19   12     -0.73      0.00
  -11   19   12      5.32      0.00
   -9   19   12      0.31      0.00
   -7   19   12     -4.88      0.00
   -5   19   12      7.71      0.00
   -3   19   12     -8.61      0.00
   -1   19   12      5.12      0.00
    1   19   12      2.85      0.00
    3   19   12      0.54      0.00
    5   19   12    -10.43      0.00
    7   19   12    -10.49      0.00
    9   19   12      4.14      0.00
   11   19   12      4.00      0.00
  -12   20   12     -3.54      0.00
  -10   20   12      2.96      0.00
   -8   20   12     -3.41      0.00
   -6   20   12      0.62      0.00
   -4   20   12     -1.06      0.00
   -2   20   12     -0.87      0.00
    0   20   12     -0.34      0.00
    2   20   12      5.70      0.00
    4   20   12     30.33      0.00
    6   20   12     -1.50      0.00
    8   20   12      3.63      0.00
   -9   21   12     -3.35      0.00
   -7   21   12     -2.67      0.00
   -5   21   12      0.62      0.00
   -3   21   12      1.80      0.00
   -1   21   12      7.31      0.00
    1   21   12     11.13      0.00
  -39    1   13    -20.60      0.00
  -37    1   13    -15.39      0.00
  -35    1   13      7.00      0.00
  -33    1   13      0.27      0.00
  -31    1   13      4.04      0.00
  -29    1   13      4.70      0.00
  -27    1   13     -2.13      0.00
  -25    1   13     -2.85      0.00
  -23    1   13      0.85      0.00
  -21    1   13      0.88      0.00
  -19    1   13     -1.53      0.00
  -17    1   13      0.60      0.00
  -15    1   13      3.42      0.00
  -13    1   13     -8.08      0.00
  -11    1   13     16.01      0.00
   -9    1   13     27.29      0.00
   -7    1   13     -8.80      0.00
   -5    1   13    -28.02      0.00
   -3    1   13     -8.54      0.00
   -1    1   13    -11.17      0.00
    1    1   13      6.84      0.00
    3    1   13      7.39      0.00
    5    1   13     -2.38      0.00
    7    1   13      4.72      0.00
    9    1   13     -6.08      0.00
   11    1   13     -1.14      0.00
   13    1   13      4.84      0.00
   15    1   13     -5.90      0.00
   17    1   13      0.66      0.00
   19    1   13      0.30      0.00
   23    1   13     19.17      0.00
   25    1   13     27.56      0.00
   27    1   13      5.33      0.00
   29    1   13     -9.41      0.00
   31    1   13    -16.18      0.00
   33    1   13     -8.84      0.00
  -38    2   13      2.91      0.00
  -36    2   13     -2.74      0.00
  -34    2   13      0.86      0.00
  -32    2   13     -2.96      0.00
  -30    2   13     -2.02      0.00
  -28    2   13      1.57      0.00
  -26    2   13      4.01      0.00
  -24    2   13     -3.93      0.00
  -22    2   13     -6.74      0.00
  -20    2   13     -3.64      0.00
  -18    2   13      1.67      0.00
  -16    2   13     -9.37      0.00
  -14    2   13     -4.18      0.00
  -12    2   13      3.53      0.00
  -10    2   13     -3.94      0.00
   -8    2   13    -14.92      0.00
   -6    2   13     -1.93      0.00
   -4    2   13     -2.67      0.00
   -2    2   13    -13.94      0.00
    0    2   13      8.52      0.00
    2    2   13     -9.06      0.00
    4    2   13     -3.36      0.00
    6    2   13      8.50      0.00
    8    2   13     -0.72      0.00
   10    2   13      0.80      0.00
   12    2   13     -1.78      0.00
   14    2   13     -6.18      0.00
   16    2   13     -1.54      0.00
   18    2   13      5.46      0.00
   24    2   13    -15.10      0.00
   26    2   13    -29.65      0.00
   28    2   13      8.92      0.00
   30    2   13      3.46      0.00
   32    2   13    -15.31      0.00
  -39    3   13     10.22      0.00
  -37    3   13     21.32      0.00
  -35    3   13     -8.86      0.00
  -33    3   13     -0.87      0.00
  -31    3   13     -2.91      0.00
  -29    3   13     -5.62      0.00
  -27    3   13      2.51      0.00
  -25    3   13     -1.98      0.00
  -23    3   13      2.41      0.00
  -21    3   13      4.08      0.00
  -19    3   13     -3.00      0.00
  -17    3   13     -1.73      0.00
  -15    3   13     -3.87      0.00
  -13    3   13     -5.62      0.00
  -11    3   13     -6.02      0.00
   -9    3   13     12.50      0.00
   -7    3   13    -10.35      0.00
   -5    3   13     -0.16      0.00
   -3    3   13    -22.22      0.00
   -1    3   13     -8.60      0.00
    1    3   13      5.14      0.00
    3    3   13    -11.35      0.00
    5    3   13      6.40      0.00
    7    3   13     -9.52      0.00
    9    3   13     -6.74      0.00
   11    3   13     -0.69      0.00
   13    3   13     -0.80      0.00
   15    3   13      0.18      0.00
   17    3   13    -14.69      0.00
   19    3   13     -3.05      0.00
   21    3   13    -20.90      0.00
   23    3   13    -16.00      0.00
   25    3   13     14.91      0.00
   27    3   13     35.93      0.00
   29    3   13      4.99      0.00
   31    3   13     14.93      0.00
  -38    4   13     -0.30      0.00
  -36    4   13      1.90      0.00
  -34    4   13     -2.31      0.00
  -32    4   13      2.45      0.00
  -30    4   13      4.66      0.00
  -28    4   13      6.46      0.00
  -26    4   13      0.34      0.00
  -24    4   13     -3.87      0.00
  -22    4   13     -8.07      0.00
  -20    4   13    -10.15      0.00
  -18    4   13      1.88      0.00
  -16    4   13     -8.88      0.00
  -14    4   13     -5.91      0.00
  -12    4   13      7.00      0.00
  -10    4   13     17.10      0.00
   -8    4   13     -5.79      0.00
   -6    4   13     -9.17      0.00
   -4    4   13      9.09      0.00
   -2    4   13      9.54      0.00
    0    4   13     -5.65      0.00
    2    4   13     -7.56      0.00
    4    4   13     -4.23      0.00
    6    4   13     10.80      0.00
    8    4   13     12.32      0.00
   10    4   13      4.01      0.00
   12    4   13     -1.88      0.00
   14    4   13     -0.40      0.00
   16    4   13     -7.50      0.00
   18    4   13     14.04      0.00
   20    4   13     -4.47      0.00
   22    4   13    -15.71      0.00
   24    4   13    -18.29      0.00
   26    4   13     16.80      0.00
   28    4   13     12.44      0.00
   30    4   13      1.88      0.00
   32    4   13     19.63      0.00
  -39    5   13     29.92      0.00
  -37    5   13      3.88      0.00
  -35    5   13     -3.00      0.00
  -33    5   13     -4.11      0.00
  -31    5   13     -1.32      0.00
  -29    5   13      1.57      0.00
  -27    5   13     -0.80      0.00
  -25    5   13     -2.78      0.00
  -23    5   13      3.18      0.00
  -21    5   13      5.10      0.00
  -17    5   13      2.02      0.00
  -15    5   13     14.52      0.00
  -13    5   13      3.03      0.00
  -11    5   13    -16.54      0.00
   -9    5   13     -7.87      0.00
   -7    5   13    -18.98      0.00
   -5    5   13     -9.16      0.00
   -3    5   13      7.00      0.00
   -1    5   13    -13.83      0.00
    1    5   13      8.01      0.00
    3    5   13      2.64      0.00
    5    5   13      5.86      0.00
    7    5   13      1.05      0.00
    9    5   13     -9.88      0.00
   11    5   13      3.49      0.00
   13    5   13      8.66      0.00
   15    5   13     -4.02      0.00
   17    5   13      2.64      0.00
   19    5   13    -21.10      0.00
   21    5   13     -5.60      0.00
   23    5   13    -16.95      0.00
   25    5   13    -25.73      0.00
   27    5   13     -3.35      0.00
   29    5   13     17.42      0.00
   31    5   13     -0.90      0.00
  -38    6   13     36.97      0.00
  -36    6   13      7.04      0.00
  -34    6   13      2.19      0.00
  -32    6   13      3.81      0.00
  -30    6   13     -3.33      0.00
  -28    6   13      1.12      0.00
  -26    6   13     -3.78      0.00
  -24    6   13     -0.93      0.00
  -22    6   13      2.46      0.00
  -20    6   13     -0.51      0.00
  -18    6   13      8.62      0.00
  -16    6   13     -0.64      0.00
  -14    6   13     -7.68      0.00
  -12    6   13     -3.83      0.00
  -10    6   13     11.27      0.00
   -8    6   13     -6.34      0.00
   -6    6   13      2.08      0.00
   -4    6   13     19.46      0.00
   -2    6   13     -8.18      0.00
    0    6   13      5.03      0.00
    2    6   13      1.43      0.00
    4    6   13    -11.32      0.00
    6    6   13     12.42      0.00
    8    6   13     -0.66      0.00
   10    6   13     -2.07      0.00
   12    6   13      8.69      0.00
   14    6   13     -5.35      0.00
   16    6   13     -0.33      0.00
   18    6   13      2.20      0.00
   20    6   13    -11.48      0.00
   22    6   13    -23.64      0.00
   24    6   13     -3.10      0.00
   26    6   13      5.79      0.00
   28    6   13     40.90      0.00
   30    6   13     -6.54      0.00
  -37    7   13    -20.72      0.00
  -35    7   13     -6.39      0.00
  -33    7   13     -3.98      0.00
  -31    7   13      1.40      0.00
  -29    7   13      5.83      0.00
  -27    7   13      3.74      0.00
  -25    7   13     -3.16      0.00
  -23    7   13     -6.58      0.00
  -21    7   13     -1.70      0.00
  -19    7   13      2.51      0.00
  -17    7   13      7.09      0.00
  -15    7   13      0.36      0.00
  -13    7   13     12.24      0.00
  -11    7   13      4.64      0.00
   -9    7   13     -2.66      0.00
   -7    7   13    -10.59      0.00
   -5    7   13     -1.36      0.00
   -3    7   13      0.99      0.00
   -1    7   13      2.67      0.00
    1    7   13     12.59      0.00
    3    7   13      0.73      0.00
    5    7   13      2.77      0.00
    7    7   13     -7.58      0.00
    9    7   13     -6.85      0.00
   11    7   13      2.52      0.00
   13    7   13     -1.58      0.00
   15    7   13     -3.51      0.00
   17    7   13     -1.61      0.00
   19    7   13     -7.23      0.00
   21    7   13      4.37      0.00
   23    7   13     18.19      0.00
   25    7   13     -7.27      0.00
   27    7   13     12.14      0.00
   29    7   13      6.11      0.00
  -36    8   13     10.56      0.00
  -34    8   13     -9.28      0.00
  -32    8   13      4.52      0.00
  -30    8   13     -3.24      0.00
  -28    8   13     -3.36      0.00
  -26    8   13     -2.69      0.00
  -24    8   13     -3.30      0.00
  -22    8   13      5.28      0.00
  -20    8   13      0.13      0.00
  -18    8   13     -2.32      0.00
  -16    8   13     -0.38      0.00
  -14    8   13      7.77      0.00
  -12    8   13     -6.41      0.00
  -10    8   13     -1.32      0.00
   -8    8   13      2.22      0.00
   -6    8   13     -2.25      0.00
   -4    8   13      2.42      0.00
   -2    8   13      7.51      0.00
    0    8   13    -12.56      0.00
    2    8   13      1.20      0.00
    4    8   13     -7.76      0.00
    6    8   13     10.49      0.00
    8    8   13      2.66      0.00
   10    8   13      1.91      0.00
   12    8   13     -7.13      0.00
   14    8   13    -12.34      0.00
   16    8   13     -4.76      0.00
   18    8   13     12.77      0.00
   20    8   13    -16.31      0.00
   22    8   13      5.42      0.00
   24    8   13     16.37      0.00
   26    8   13     17.97      0.00
   28    8   13     -8.00      0.00
   30    8   13     -4.50      0.00
  -35    9   13      4.17      0.00
  -33    9   13     -3.45      0.00
  -31    9   13     -1.26      0.00
  -29    9   13     -4.85      0.00
  -27    9   13     -0.09      0.00
  -25    9   13     -2.39      0.00
  -23    9   13      0.89      0.00
  -21    9   13     -0.35      0.00
  -19    9   13      4.58      0.00
  -17    9   13      6.32      0.00
  -15    9   13      2.53      0.00
  -13    9   13      4.77      0.00
  -11    9   13     -1.10      0.00
   -9    9   13     -8.55      0.00
   -7    9   13     -8.87      0.00
   -5    9   13     -7.02      0.00
   -3    9   13      7.19      0.00
   -1    9   13     -1.42      0.00
    1    9   13     16.53      0.00
    3    9   13     -1.61      0.00
    5    9   13     -7.55      0.00
    7    9   13      5.30      0.00
    9    9   13      3.65      0.00
   11    9   13      1.08      0.00
   13    9   13      0.81      0.00
   15    9   13     -0.56      0.00
   17    9   13      0.14      0.00
   19    9   13     -2.82      0.00
   21    9   13     -7.63      0.00
   23    9   13    -36.16      0.00
   25    9   13      9.67      0.00
   27    9   13    -15.59      0.00
   29    9   13      8.09      0.00
  -34   10   13      7.27      0.00
  -32   10   13      1.70      0.00
  -30   10   13     -7.36      0.00
  -28   10   13     -7.15      0.00
  -26   10   13     -3.46      0.00
  -24   10   13     -6.02      0.00
  -22   10   13      7.23      0.00
  -20   10   13      2.99      0.00
  -18   10   13      1.33      0.00
  -16   10   13      1.79      0.00
  -14   10   13     -1.20      0.00
  -12   10   13     -5.87      0.00
  -10   10   13      8.16      0.00
   -8   10   13      1.73      0.00
   -6   10   13     -2.91      0.00
   -4   10   13      9.32      0.00
   -2   10   13      9.49      0.00
    0   10   13     -1.98      0.00
    2   10   13      1.46      0.00
    4   10   13      1.08      0.00
    6   10   13      0.61      0.00
    8   10   13     -6.45      0.00
   10   10   13      2.49      0.00
   12   10   13      0.18      0.00
   14   10   13      1.64      0.00
   16   10   13      4.57      0.00
   18   10   13      7.22      0.00
   20   10   13      1.34      0.00
   22   10   13     15.80      0.00
   24   10   13     -7.55      0.00
   26   10   13    -10.22      0.00
   28   10   13     13.43      0.00
  -35   11   13     -4.76      0.00
  -33   11   13     -4.70      0.00
  -31   11   13     -0.86      0.00
  -29   11   13      5.04      0.00
  -27   11   13     -3.23      0.00
  -25   11   13     -2.98      0.00
  -23   11   13     -1.81      0.00
  -21   11   13    -10.48      0.00
  -19   11   13      3.32      0.00
  -17   11   13     -4.49      0.00
  -15   11   13     -2.56      0.00
  -13   11   13      7.10      0.00
  -11   11   13     -2.26      0.00
   -9   11   13     -3.81      0.00
   -7   11   13    -14.00      0.00
   -5   11   13      0.98      0.00
   -3   11   13      5.23      0.00
   -1   11   13      6.52      0.00
    1   11   13      4.52      0.00
    3   11   13     -3.95      0.00
    5   11   13      0.49      0.00
    7   11   13     -1.38      0.00
    9   11   13      6.42      0.00
   11   11   13     -3.12      0.00
   13   11   13      3.08      0.00
   15   11   13      0.71      0.00
   17   11   13     -4.48      0.00
   19   11   13     -9.98      0.00
   21   11   13     -9.04      0.00
   23   11   13     -5.22      0.00
   25   11   13     -0.34      0.00
   27   11   13     -4.74      0.00
  -34   12   13    -11.65      0.00
  -32   12   13     -0.95      0.00
  -30   12   13     -1.80      0.00
  -28   12   13     -2.52      0.00
  -26   12   13     -1.89      0.00
  -24   12   13      4.22      0.00
  -22   12   13      4.12      0.00
  -20   12   13      5.24      0.00
  -18   12   13     -2.88      0.00
  -16   12   13      0.95      0.00
  -14   12   13     -2.31      0.00
  -12   12   13     -6.65      0.00
  -10   12   13      1.11      0.00
   -8   12   13     -1.13      0.00
   -6   12   13     -1.57      0.00
   -4   12   13      7.23      0.00
   -2   12   13      1.09      0.00
    0   12   13      4.94      0.00
    2   12   13      2.09      0.00
    4   12   13     -7.74      0.00
    6   12   13      6.40      0.00
    8   12   13      8.09      0.00
   10   12   13      2.98      0.00
   12   12   13      1.45      0.00
   14   12   13      3.32      0.00
   16   12   13      1.87      0.00
   18   12   13      6.36      0.00
   20   12   13      2.72      0.00
   22   12   13     -9.03      0.00
   24   12   13      0.00      0.00
   26   12   13     -8.19      0.00
  -33   13   13     -2.64      0.00
  -31   13   13     -1.15      0.00
  -29   13   13      4.89      0.00
  -27   13   13      4.87      0.00
  -25   13   13    -10.29      0.00
  -23   13   13      5.53      0.00
  -21   13   13     -2.92      0.00
  -19   13   13     -2.70      0.00
  -17   13   13      6.82      0.00
  -15   13   13      2.81      0.00
  -13   13   13      2.67      0.00
  -11   13   13      4.90      0.00
   -9   13   13      2.84      0.00
   -7   13   13      9.34      0.00
   -5   13   13     -9.40      0.00
   -3   13   13      4.93      0.00
   -1   13   13     -0.35      0.00
    1   13   13      2.40      0.00
    3   13   13      7.34      0.00
    5   13   13      1.04      0.00
    7   13   13     -8.24      0.00
    9   13   13     -4.55      0.00
   11   13   13      4.56      0.00
   13   13   13     -3.43      0.00
   15   13   13    -10.43      0.00
   17   13   13      6.56      0.00
   19   13   13     -7.10      0.00
   21   13   13      2.75      0.00
   23   13   13      3.22      0.00
   25   13   13     -4.06      0.00
  -32   14   13      1.28      0.00
  -30   14   13     -1.15      0.00
  -28   14   13     -0.58      0.00
  -26   14   13      8.61      0.00
  -24   14   13     -6.88      0.00
  -22   14   13      7.12      0.00
  -20   14   13      5.78      0.00
  -18   14   13     11.55      0.00
  -16   14   13      0.64      0.00
  -14   14   13      8.23      0.00
  -12   14   13      7.37      0.00
  -10   14   13      3.41      0.00
   -8   14   13     -0.33      0.00
   -6   14   13      5.19      0.00
   -4   14   13      1.45      0.00
   -2   14   13     11.42      0.00
    0   14   13     -5.41      0.00
    2   14   13      6.56      0.00
    4   14   13     -6.45      0.00
    6   14   13     -2.56      0.00
    8   14   13      6.25      0.00
   10   14   13     -1.56      0.00
   12   14   13      0.99      0.00
   14   14   13     -6.29      0.00
   16   14   13      0.23      0.00
   18   14   13    -11.12      0.00
   20   14   13     -0.77      0.00
   22   14   13      4.13      0.00
  -29   15   13     -2.69      0.00
  -27   15   13     -1.86      0.00
  -25   15   13     -4.32      0.00
  -23   15   13     -0.60      0.00
  -21   15   13      7.06      0.00
  -19   15   13     -5.23      0.00
  -17   15   13     -2.52      0.00
  -15   15   13      8.62      0.00
  -13   15   13     -7.73      0.00
  -11   15   13      8.56      0.00
   -9   15   13     -3.69      0.00
   -7   15   13     -5.21      0.00
   -5   15   13      3.39      0.00
   -3   15   13     -1.33      0.00
   -1   15   13     -2.50      0.00
    1   15   13     -0.76      0.00
    3   15   13     -1.71      0.00
    5   15   13     -0.21      0.00
    7   15   13     10.48      0.00
    9   15   13     14.08      0.00
   11   15   13     -2.62      0.00
   13   15   13    -13.70      0.00
   15   15   13      5.75      0.00
   17   15   13      9.12      0.00
   19   15   13     -3.25      0.00
   21   15   13      2.67      0.00
  -28   16   13      8.89      0.00
  -26   16   13     -6.15      0.00
  -24   16   13      3.72      0.00
  -22   16   13      5.46      0.00
  -20   16   13     10.70      0.00
  -18   16   13     -3.07      0.00
  -16   16   13      2.20      0.00
  -14   16   13     -3.38      0.00
  -12   16   13      1.48      0.00
  -10   16   13      5.91      0.00
   -8   16   13     -0.37      0.00
   -6   16   13     -2.94      0.00
   -4   16   13    -11.57      0.00
   -2   16   13      2.14      0.00
    0   16   13      0.05      0.00
    2   16   13     -1.35      0.00
    4   16   13      8.80      0.00
    6   16   13     -4.56      0.00
    8   16   13      7.24      0.00
   10   16   13      4.18      0.00
   12   16   13     -5.28      0.00
   14   16   13     -7.28      0.00
   16   16   13    -10.68      0.00
   18   16   13      2.32      0.00
  -25   17   13     -2.26      0.00
  -23   17   13     -1.82      0.00
  -21   17   13      6.94      0.00
  -19   17   13     -2.57      0.00
  -17   17   13    -12.94      0.00
  -15   17   13     -3.63      0.00
  -13   17   13     -0.72      0.00
  -11   17   13     -8.60      0.00
   -9   17   13     -1.11      0.00
   -7   17   13    -15.87      0.00
   -5   17   13    -11.49      0.00
   -3   17   13    -12.13      0.00
   -1   17   13     -0.84      0.00
    1   17   13      9.50      0.00
    3   17   13      0.83      0.00
    5   17   13     17.31      0.00
    7   17   13      7.22      0.00
    9   17   13     14.96      0.00
   11   17   13    -15.60      0.00
   13   17   13      7.54      0.00
   15   17   13      5.20      0.00
  -22   18   13     -1.49      0.00
  -20   18   13     -9.46      0.00
  -18   18   13      1.79      0.00
  -16   18   13      4.46      0.00
  -14   18   13     -2.77      0.00
  -12   18   13     -1.80      0.00
  -10   18   13     -0.53      0.00
   -8   18   13      5.78      0.00
   -6   18   13      1.32      0.00
   -4   18   13     -2.24      0.00
   -2   18   13      0.41      0.00
    0   18   13     -5.77      0.00
    2   18   13      4.14      0.00
    4   18   13     -5.13      0.00
    6   18   13     -7.80      0.00
    8   18   13      5.51      0.00
   10   18   13      5.56      0.00
   12   18   13    -12.55      0.00
   14   18   13     -7.06      0.00
  -19   19   13      2.60      0.00
  -17   19   13     -3.28      0.00
  -15   19   13      6.68      0.00
  -13   19   13     10.20      0.00
  -11   19   13     19.18      0.00
   -9   19   13      6.23      0.00
   -7   19   13     11.53      0.00
   -5   19   13      5.83      0.00
   -3   19   13     -3.82      0.00
   -1   19   13     -2.55      0.00
    1   19   13      6.04      0.00
    3   19   13     19.05      0.00
    5   19   13     -0.22      0.00
    7   19   13     -5.84      0.00
    9   19   13      0.08      0.00
   11   19   13      4.51      0.00
  -14   20   13      3.45      0.00
  -12   20   13     -4.80      0.00
  -10   20   13     -3.46      0.00
   -8   20   13      5.53      0.00
   -6   20   13      2.68      0.00
   -4   20   13      2.63      0.00
   -2   20   13     -3.24      0.00
    0   20   13     -4.25      0.00
    2   20   13    -11.02      0.00
    4   20   13     -1.14      0.00
    6   20   13     10.66      0.00
   -7   21   13     -7.42      0.00
   -5   21   13     -0.96      0.00
   -3   21   13     -1.19      0.00
   -1   21   13    -14.02      0.00
  -38    0   14      2.83      0.00
  -36    0   14     10.02      0.00
  -34    0   14     -3.98      0.00
  -32    0   14     -4.80      0.00
  -30    0   14     -3.28      0.00
  -28    0   14     -2.58      0.00
  -26    0   14     -1.97      0.00
  -24    0   14     -3.29      0.00
  -22    0   14     -3.63      0.00
  -20    0   14     -1.10      0.00
  -18    0   14     -6.81      0.00
  -16    0   14     -3.94      0.00
  -14    0   14      0.90      0.00
  -12    0   14    -13.54      0.00
  -10    0   14     -3.88      0.00
   -8    0   14      7.90      0.00
   -6    0   14     24.51      0.00
   -4    0   14    -11.16      0.00
   -2    0   14     36.39      0.00
    0    0   14     25.86      0.00
    2    0   14      2.18      0.00
    4    0   14     -3.91      0.00
    6    0   14     -3.33      0.00
    8    0   14     -1.43      0.00
   10    0   14    -22.01      0.00
   12    0   14     10.11      0.00
   14    0   14     -5.63      0.00
   16    0   14    -10.91      0.00
   18    0   14     -3.16      0.00
   22    0   14     38.34      0.00
   24    0   14     21.47      0.00
   26    0   14     31.25      0.00
   28    0   14     11.61      0.00
   30    0   14     -4.38      0.00
   32    0   14     -4.27      0.00
  -39    1   14     -5.16      0.00
  -37    1   14      5.93      0.00
  -35    1   14      1.34      0.00
  -33    1   14      1.89      0.00
  -31    1   14      1.94      0.00
  -29    1   14     -5.94      0.00
  -27    1   14     -2.05      0.00
  -25    1   14     -5.46      0.00
  -23    1   14      2.90      0.00
  -21    1   14      0.72      0.00
  -19    1   14      5.10      0.00
  -17    1   14     -2.35      0.00
  -15    1   14     -1.61      0.00
  -13    1   14     -4.16      0.00
  -11    1   14     -7.82      0.00
   -9    1   14     -4.90      0.00
   -7    1   14    -29.40      0.00
   -5    1   14     -1.47      0.00
   -3    1   14     -7.26      0.00
   -1    1   14     18.75      0.00
    1    1   14    -12.69      0.00
    3    1   14     32.87      0.00
    5    1   14     -1.80      0.00
    7    1   14      5.57      0.00
    9    1   14      8.20      0.00
   11    1   14     -8.38      0.00
   13    1   14      4.92      0.00
   15    1   14     -1.52      0.00
   17    1   14     -8.29      0.00
   23    1   14    -15.73      0.00
   25    1   14     82.13      0.00
   27    1   14     54.58      0.00
   29    1   14     19.39      0.00
   31    1   14     -9.62      0.00
  -38    2   14     21.84      0.00
  -36    2   14     -0.28      0.00
  -34    2   14      5.62      0.00
  -32    2   14     -7.95      0.00
  -30    2   14     -5.39      0.00
  -28    2   14     -0.95      0.00
  -26    2   14      4.22      0.00
  -24    2   14     -7.13      0.00
  -22    2   14     -1.23      0.00
  -20    2   14     -2.77      0.00
  -18    2   14     -6.61      0.00
  -16    2   14     -6.04      0.00
  -14    2   14      8.31      0.00
  -12    2   14      0.95      0.00
  -10    2   14     -9.59      0.00
   -8    2   14     27.74      0.00
   -6    2   14      9.11      0.00
   -4    2   14    -15.12      0.00
   -2    2   14      7.36      0.00
    0    2   14     -5.27      0.00
    2    2   14     -2.56      0.00
    4    2   14      8.03      0.00
    6    2   14      0.76      0.00
    8    2   14      3.35      0.00
   10    2   14      1.91      0.00
   12    2   14      7.87      0.00
   14    2   14      3.76      0.00
   16    2   14     -2.51      0.00
   18    2   14      3.10      0.00
   20    2   14    -26.19      0.00
   22    2   14    -13.89      0.00
   24    2   14     15.99      0.00
   26    2   14    -25.84      0.00
   28    2   14    -28.11      0.00
   30    2   14     -5.97      0.00
   32    2   14      6.86      0.00
  -39    3   14      2.05      0.00
  -37    3   14     16.24      0.00
  -35    3   14      2.05      0.00
  -33    3   14     -9.33      0.00
  -31    3   14      2.91      0.00
  -29    3   14     -4.39      0.00
  -27    3   14     -1.78      0.00
  -25    3   14     -0.80      0.00
  -23    3   14      4.29      0.00
  -21    3   14      2.69      0.00
  -19    3   14      9.18      0.00
  -17    3   14      7.66      0.00
  -15    3   14      2.27      0.00
  -13    3   14    -12.29      0.00
  -11    3   14     -5.73      0.00
   -9    3   14     -7.96      0.00
   -7    3   14      7.11      0.00
   -5    3   14      5.70      0.00
   -3    3   14    -28.83      0.00
   -1    3   14     -3.36      0.00
    1    3   14    -12.62      0.00
    3    3   14     26.72      0.00
    5    3   14     -3.75      0.00
    7    3   14     14.57      0.00
    9    3   14      7.53      0.00
   11    3   14      4.97      0.00
   13    3   14      9.13      0.00
   15    3   14      0.24      0.00
   17    3   14     -8.30      0.00
   19    3   14    -31.38      0.00
   21    3   14     -1.33      0.00
   23    3   14    -18.07      0.00
   25    3   14     34.28      0.00
   27    3   14     18.74      0.00
   29    3   14     -0.59      0.00
   31    3   14     24.98      0.00
  -38    4   14    -19.73      0.00
  -36    4   14      1.15      0.00
  -34    4   14      1.89      0.00
  -32    4   14      5.14      0.00
  -30    4   14      1.43      0.00
  -28    4   14      2.33      0.00
  -26    4   14      0.69      0.00
  -24    4   14      1.39      0.00
  -22    4   14      0.97      0.00
  -20    4   14      4.20      0.00
  -18    4   14      0.34      0.00
  -16    4   14      0.68      0.00
  -14    4   14      2.95      0.00
  -12    4   14     -0.03      0.00
  -10    4   14      9.54      0.00
   -8    4   14     12.76      0.00
   -6    4   14      6.21      0.00
   -4    4   14     16.01      0.00
   -2    4   14     31.68      0.00
    0    4   14    -14.20      0.00
    2    4   14      4.05      0.00
    4    4   14      6.49      0.00
    6    4   14      3.17      0.00
    8    4   14      5.97      0.00
   10    4   14      0.63      0.00
   12    4   14      4.79      0.00
   14    4   14     -0.65      0.00
   16    4   14     -2.43      0.00
   18    4   14      2.42      0.00
   20    4   14    -22.15      0.00
   22    4   14     18.10      0.00
   24    4   14      3.35      0.00
   26    4   14      1.94      0.00
   28    4   14     13.66      0.00
   30    4   14     -5.14      0.00
  -39    5   14    -14.40      0.00
  -37    5   14      7.93      0.00
  -35    5   14     -8.51      0.00
  -33    5   14     -2.90      0.00
  -31    5   14      1.15      0.00
  -29    5   14     -0.96      0.00
  -27    5   14     -0.31      0.00
  -25    5   14     -3.48      0.00
  -23    5   14     -1.81      0.00
  -21    5   14      4.93      0.00
  -19    5   14      0.42      0.00
  -17    5   14      2.55      0.00
  -15    5   14      4.66      0.00
  -13    5   14      3.58      0.00
  -11    5   14    -14.33      0.00
   -9    5   14      1.08      0.00
   -7    5   14    -12.71      0.00
   -5    5   14     -5.47      0.00
   -3    5   14    -27.28      0.00
   -1    5   14      7.86      0.00
    1    5   14      5.18      0.00
    3    5   14      9.81      0.00
    5    5   14     -7.31      0.00
    7    5   14      1.63      0.00
    9    5   14     -2.44      0.00
   11    5   14     17.32      0.00
   13    5   14     -0.89      0.00
   15    5   14     -7.89      0.00
   17    5   14      6.48      0.00
   19    5   14      5.26      0.00
   21    5   14     20.89      0.00
   23    5   14     29.70      0.00
   25    5   14     15.52      0.00
   27    5   14     -7.00      0.00
   29    5   14      8.58      0.00
   31    5   14     -1.27      0.00
  -38    6   14    -12.58      0.00
  -36    6   14      2.85      0.00
  -34    6   14      1.06      0.00
  -32    6   14     -2.60      0.00
  -30    6   14     -8.36      0.00
  -28    6   14     -0.99      0.00
  -26    6   14      4.80      0.00
  -24    6   14      2.20      0.00
  -22    6   14      4.45      0.00
  -20    6   14     -5.16      0.00
  -18    6   14      0.95      0.00
  -16    6   14     -0.59      0.00
  -14    6   14     -9.15      0.00
  -12    6   14     -3.39      0.00
  -10    6   14     -4.72      0.00
   -8    6   14      1.78      0.00
   -6    6   14     20.99      0.00
   -4    6   14      9.72      0.00
   -2    6   14      0.84      0.00
    0    6   14    -15.18      0.00
    2    6   14      0.92      0.00
    4    6   14     -1.65      0.00
    6    6   14      0.44      0.00
    8    6   14      6.66      0.00
   10    6   14      3.73      0.00
   12    6   14     -8.32      0.00
   14    6   14      6.51      0.00
   16    6   14     -0.60      0.00
   18    6   14      2.61      0.00
   20    6   14    -11.79      0.00
   22    6   14     20.80      0.00
   24    6   14     24.46      0.00
   26    6   14      2.81      0.00
   28    6   14     -4.71      0.00
   30    6   14     10.98      0.00
  -37    7   14     -3.91      0.00
  -35    7   14     -5.75      0.00
  -33    7   14    -13.56      0.00
  -31    7   14     -5.48      0.00
  -29    7   14     -7.24      0.00
  -27    7   14      3.73      0.00
  -25    7   14     -4.39      0.00
  -23    7   14     -0.70      0.00
  -21    7   14     -3.64      0.00
  -19    7   14    -10.32      0.00
  -17    7   14     -5.34      0.00
  -15    7   14      7.11      0.00
  -13    7   14     11.88      0.00
  -11    7   14     -0.57      0.00
   -9    7   14      1.55      0.00
   -7    7   14      0.20      0.00
   -5    7   14    -18.48      0.00
   -3    7   14      3.12      0.00
   -1    7   14     15.70      0.00
    1    7   14     -7.00      0.00
    3    7   14      4.13      0.00
    5    7   14     -9.92      0.00
    7    7   14      0.95      0.00
    9    7   14      1.22      0.00
   11    7   14     -1.62      0.00
   13    7   14      0.65      0.00
   15    7   14    -32.29      0.00
   17    7   14    -13.38      0.00
   19    7   14     -3.84      0.00
   21    7   14      2.52      0.00
   23    7   14     33.30      0.00
   25    7   14     19.89      0.00
   27    7   14    -27.32      0.00
   29    7   14     15.07      0.00
  -36    8   14      3.39      0.00
  -34    8   14     -1.48      0.00
  -32    8   14      3.76      0.00
  -30    8   14     -5.66      0.00
  -28    8   14     -3.52      0.00
  -26    8   14      0.38      0.00
  -24    8   14      4.34      0.00
  -22    8   14      8.85      0.00
  -20    8   14      1.10      0.00
  -18    8   14      0.66      0.00
  -16    8   14     -1.24      0.00
  -14    8   14     -4.78      0.00
  -12    8   14     -7.41      0.00
  -10    8   14     -4.10      0.00
   -8    8   14      3.07      0.00
   -6    8   14      7.91      0.00
   -4    8   14      2.59      0.00
   -2    8   14     -7.16      0.00
    0    8   14     -5.08      0.00
    2    8   14      0.14      0.00
    4    8   14     -7.07      0.00
    6    8   14      6.21      0.00
    8    8   14      8.86      0.00
   10    8   14     -0.32      0.00
   12    8   14      9.03      0.00
   14    8   14      5.65      0.00
   16    8   14     11.35      0.00
   18    8   14     15.24      0.00
   20    8   14     -9.10      0.00
   22    8   14    -22.74      0.00
   24    8   14     -0.71      0.00
   26    8   14     -4.25      0.00
   28    8   14    -17.13      0.00
  -35    9   14      7.49      0.00
  -33    9   14     -4.41      0.00
  -31    9   14     -5.77      0.00
  -29    9   14     -2.01      0.00
  -27    9   14      0.63      0.00
  -25    9   14     -4.68      0.00
  -23    9   14     -5.58      0.00
  -21    9   14     -3.92      0.00
  -19    9   14      1.36      0.00
  -17    9   14     -3.60      0.00
  -15    9   14      1.93      0.00
  -13    9   14     -4.56      0.00
  -11    9   14      2.45      0.00
   -9    9   14      1.78      0.00
   -7    9   14     -5.33      0.00
   -5    9   14      1.88      0.00
   -3    9   14     -0.02      0.00
   -1    9   14     -1.56      0.00
    1    9   14     -3.92      0.00
    3    9   14      4.51      0.00
    5    9   14    -10.80      0.00
    7    9   14      2.20      0.00
    9    9   14      0.12      0.00
   11    9   14      8.59      0.00
   13    9   14      6.53      0.00
   15    9   14      3.83      0.00
   17    9   14    -13.18      0.00
   19    9   14     21.25      0.00
   21    9   14    -15.51      0.00
   23    9   14     -8.77      0.00
   25    9   14     -7.02      0.00
   27    9   14     -3.67      0.00
  -34   10   14     -4.68      0.00
  -32   10   14      4.02      0.00
  -30   10   14      2.54      0.00
  -28   10   14     -3.53      0.00
  -26   10   14      3.39      0.00
  -24   10   14     -1.40      0.00
  -22   10   14      4.18      0.00
  -20   10   14     -5.04      0.00
  -18   10   14     -6.71      0.00
  -16   10   14     -6.55      0.00
  -14   10   14     -9.60      0.00
  -12   10   14     12.03      0.00
  -10   10   14     -0.75      0.00
   -8   10   14     -6.46      0.00
   -6   10   14     11.13      0.00
   -4   10   14     -6.48      0.00
   -2   10   14      3.36      0.00
    0   10   14      1.67      0.00
    2   10   14     -8.72      0.00
    4   10   14     -2.42      0.00
    6   10   14     -1.76      0.00
    8   10   14     -0.61      0.00
   10   10   14      3.91      0.00
   12   10   14      7.29      0.00
   14   10   14     -0.51      0.00
   16   10   14     -3.03      0.00
   18   10   14     -1.99      0.00
   20   10   14     -6.67      0.00
   22   10   14     -5.57      0.00
   24   10   14    -18.94      0.00
   26   10   14     -6.85      0.00
  -33   11   14     -7.57      0.00
  -31   11   14     -2.99      0.00
  -29   11   14      0.34      0.00
  -27   11   14      1.52      0.00
  -25   11   14      3.17      0.00
  -23   11   14      2.56      0.00
  -21   11   14     -0.80      0.00
  -19   11   14      1.93      0.00
  -17   11   14      0.81      0.00
  -15   11   14      2.79      0.00
  -13   11   14      8.65      0.00
  -11   11   14      7.07      0.00
   -9   11   14      3.36      0.00
   -7   11   14      4.48      0.00
   -5   11   14      0.75      0.00
   -3   11   14     -3.65      0.00
   -1   11   14      3.49      0.00
    1   11   14     -2.05      0.00
    3   11   14     -1.60      0.00
    5   11   14     -4.15      0.00
    7   11   14      9.75      0.00
    9   11   14     -0.40      0.00
   11   11   14     -6.75      0.00
   13   11   14      1.58      0.00
   15   11   14     -0.93      0.00
   17   11   14     -2.97      0.00
   19   11   14     -4.64      0.00
   21   11   14    -18.02      0.00
   23   11   14    -10.34      0.00
   25   11   14      4.91      0.00
  -34   12   14     -8.57      0.00
  -32   12   14     -4.75      0.00
  -30   12   14     -0.85      0.00
  -28   12   14     -3.03      0.00
  -26   12   14     -3.53      0.00
  -24   12   14      6.52      0.00
  -22   12   14      7.47      0.00
  -20   12   14      3.26      0.00
  -18   12   14      3.18      0.00
  -16   12   14      5.17      0.00
  -14   12   14      2.42      0.00
  -12   12   14     -5.68      0.00
  -10   12   14     -0.56      0.00
   -8   12   14      5.20      0.00
   -6   12   14      5.92      0.00
   -4   12   14     -3.34      0.00
   -2   12   14     -7.61      0.00
    0   12   14     -1.81      0.00
    2   12   14     -0.71      0.00
    4   12   14     -4.47      0.00
    6   12   14     -0.79      0.00
    8   12   14      5.14      0.00
   10   12   14     13.23      0.00
   12   12   14      9.91      0.00
   14   12   14     -7.05      0.00
   16   12   14     -4.04      0.00
   18   12   14      6.09      0.00
   20   12   14      5.92      0.00
   22   12   14     -0.49      0.00
   24   12   14     -3.51      0.00
  -33   13   14     15.64      0.00
  -31   13   14     -1.40      0.00
  -29   13   14      1.01      0.00
  -27   13   14      4.28      0.00
  -25   13   14     -5.75      0.00
  -23   13   14      9.05      0.00
  -21   13   14      1.85      0.00
  -19   13   14     -5.13      0.00
  -17   13   14     -3.94      0.00
  -15   13   14     -2.83      0.00
  -13   13   14     -7.03      0.00
  -11   13   14      9.22      0.00
   -9   13   14     -4.96      0.00
   -7   13   14     10.69      0.00
   -5   13   14      1.74      0.00
   -3   13   14     10.52      0.00
   -1   13   14      2.25      0.00
    1   13   14      4.38      0.00
    3   13   14    -14.40      0.00
    5   13   14      1.96      0.00
    7   13   14     -4.66      0.00
    9   13   14     -0.12      0.00
   11   13   14      4.19      0.00
   13   13   14     -0.61      0.00
   15   13   14      6.19      0.00
   17   13   14     -2.23      0.00
   19   13   14      7.92      0.00
   21   13   14     -0.83      0.00
   23   13   14     -1.84      0.00
  -32   14   14     -6.47      0.00
  -30   14   14    -11.17      0.00
  -28   14   14     -8.42      0.00
  -26   14   14      4.83      0.00
  -24   14   14      4.70      0.00
  -22   14   14      2.02      0.00
  -20   14   14     -1.10      0.00
  -18   14   14     -8.15      0.00
  -16   14   14      1.65      0.00
  -14   14   14     -3.10      0.00
  -12   14   14     -0.08      0.00
  -10   14   14    -11.15      0.00
   -8   14   14      5.98      0.00
   -6   14   14      9.01      0.00
   -4   14   14      1.49      0.00
   -2   14   14     -1.98      0.00
    0   14   14     -1.99      0.00
    2   14   14      6.53      0.00
    4   14   14     -0.87      0.00
    6   14   14      5.02      0.00
    8   14   14      6.95      0.00
   10   14   14      2.90      0.00
   12   14   14    -11.97      0.00
   14   14   14      8.89      0.00
   16   14   14      0.88      0.00
   18   14   14      7.37      0.00
   20   14   14      6.39      0.00
   22   14   14     -5.62      0.00
  -29   15   14     -5.27      0.00
  -27   15   14    -11.65      0.00
  -25   15   14     -0.96      0.00
  -23   15   14     -2.01      0.00
  -21   15   14      0.71      0.00
  -19   15   14     -8.25      0.00
  -17   15   14      8.81      0.00
  -15   15   14     -0.73      0.00
  -13   15   14     -1.46      0.00
  -11   15   14      3.44      0.00
   -9   15   14      3.23      0.00
   -7   15   14     -9.41      0.00
   -5   15   14     -5.72      0.00
   -3   15   14    -19.23      0.00
   -1   15   14     11.16      0.00
    1   15   14     -1.46      0.00
    3   15   14      4.85      0.00
    5   15   14      1.16      0.00
    7   15   14     -8.24      0.00
    9   15   14      6.61      0.00
   11   15   14     -1.42      0.00
   13   15   14     11.71      0.00
   15   15   14      3.03      0.00
   17   15   14     13.23      0.00
   19   15   14      7.53      0.00
  -26   16   14     -3.75      0.00
  -24   16   14      3.24      0.00
  -22   16   14      4.44      0.00
  -20   16   14      3.70      0.00
  -18   16   14     -0.88      0.00
  -16   16   14      1.74      0.00
  -14   16   14      5.89      0.00
  -12   16   14     -5.10      0.00
  -10   16   14     -4.37      0.00
   -8   16   14      5.84      0.00
   -6   16   14     -9.39      0.00
   -4   16   14      5.75      0.00
   -2   16   14      5.24      0.00
    0   16   14      3.04      0.00
    2   16   14     -3.87      0.00
    4   16   14     -4.29      0.00
    6   16   14      7.65      0.00
    8   16   14      0.94      0.00
   10   16   14      2.95      0.00
   12   16   14      1.35      0.00
   14   16   14     -8.47      0.00
   16   16   14     -7.45      0.00
   18   16   14      7.25      0.00
  -23   17   14     -6.19      0.00
  -21   17   14     -2.28      0.00
  -19   17   14      6.86      0.00
  -17   17   14      5.41      0.00
  -15   17   14      8.44      0.00
  -13   17   14     -1.70      0.00
  -11   17   14      6.50      0.00
   -9   17   14     12.72      0.00
   -7   17   14     -0.44      0.00
   -5   17   14      1.49      0.00
   -3   17   14     -3.56      0.00
   -1   17   14     -2.19      0.00
    1   17   14      2.22      0.00
    3   17   14    -13.35      0.00
    5   17   14      0.43      0.00
    7   17   14     -1.29      0.00
    9   17   14      7.36      0.00
   11   17   14     -8.69      0.00
   13   17   14     -1.29      0.00
   15   17   14     -2.29      0.00
  -20   18   14      2.62      0.00
  -18   18   14      4.80      0.00
  -16   18   14     -1.05      0.00
  -14   18   14     -2.13      0.00
  -12   18   14      8.98      0.00
  -10   18   14      2.67      0.00
   -8   18   14      9.78      0.00
   -6   18   14      4.36      0.00
   -4   18   14      8.41      0.00
   -2   18   14     -3.64      0.00
    0   18   14      4.90      0.00
    2   18   14      8.55      0.00
    4   18   14     -7.24      0.00
    6   18   14    -11.88      0.00
    8   18   14     -6.26      0.00
   10   18   14      7.08      0.00
   12   18   14     -2.72      0.00
  -17   19   14     -6.05      0.00
  -15   19   14      4.08      0.00
  -13   19   14      6.63      0.00
  -11   19   14     -0.09      0.00
   -9   19   14     -2.69      0.00
   -7   19   14     -4.04      0.00
   -5   19   14      0.31      0.00
   -3   19   14     -4.91      0.00
   -1   19   14     -5.25      0.00
    1   19   14     -1.98      0.00
    3   19   14    -26.61      0.00
    5   19   14     19.45      0.00
    7   19   14      8.78      0.00
    9   19   14      1.45      0.00
  -12   20   14     -6.95      0.00
  -10   20   14      2.54      0.00
   -8   20   14     -5.64      0.00
   -6   20   14     -6.76      0.00
   -4   20   14      0.76      0.00
   -2   20   14     -6.57      0.00
    0   20   14    -14.32      0.00
    2   20   14     -6.70      0.00
    4   20   14      5.77      0.00
    6   20   14      6.99      0.00
  -39    1   15    -14.73      0.00
  -37    1   15      2.48      0.00
  -35    1   15     -0.84      0.00
  -33    1   15      3.93      0.00
  -31    1   15      4.05      0.00
  -29    1   15     -4.57      0.00
  -27    1   15      3.96      0.00
  -25    1   15     -2.70      0.00
  -23    1   15     -1.11      0.00
  -21    1   15     -0.39      0.00
  -19    1   15     -1.58      0.00
  -17    1   15      3.83      0.00
  -15    1   15     -4.85      0.00
  -13    1   15      1.68      0.00
  -11    1   15      1.89      0.00
   -9    1   15     23.13      0.00
   -7    1   15    -13.18      0.00
   -5    1   15    -21.52      0.00
   -3    1   15    -17.14      0.00
   -1    1   15     -5.07      0.00
    1    1   15     25.37      0.00
    3    1   15      5.66      0.00
    5    1   15      0.35      0.00
    7    1   15     -3.55      0.00
    9    1   15     10.39      0.00
   11    1   15      2.72      0.00
   13    1   15      4.60      0.00
   15    1   15     10.29      0.00
   17    1   15     -7.54      0.00
   21    1   15     15.68      0.00
   23    1   15     15.20      0.00
   25    1   15    -13.72      0.00
   27    1   15    -22.50      0.00
   29    1   15      5.30      0.00
   31    1   15      0.78      0.00
  -40    2   15    -12.39      0.00
  -38    2   15      0.92      0.00
  -36    2   15      5.89      0.00
  -34    2   15      1.96      0.00
  -32    2   15      2.90      0.00
  -30    2   15     -0.41      0.00
  -28    2   15      0.94      0.00
  -26    2   15     -0.29      0.00
  -24    2   15      1.27      0.00
  -22    2   15      3.64      0.00
  -20    2   15      3.23      0.00
  -18    2   15      3.45      0.00
  -16    2   15      6.62      0.00
  -14    2   15      2.31      0.00
  -12    2   15      3.06      0.00
  -10    2   15    -18.01      0.00
   -8    2   15     -6.21      0.00
   -6    2   15     -6.89      0.00
   -4    2   15     -2.68      0.00
   -2    2   15     -2.48      0.00
    0    2   15     -3.79      0.00
    2    2   15      2.17      0.00
    4    2   15     -1.40      0.00
    6    2   15      2.85      0.00
    8    2   15      1.65      0.00
   10    2   15     12.06      0.00
   12    2   15     10.13      0.00
   14    2   15     -6.04      0.00
   16    2   15      9.90      0.00
   18    2   15     -5.20      0.00
   20    2   15    -13.13      0.00
   22    2   15     -8.54      0.00
   24    2   15    -59.38      0.00
   26    2   15     -7.83      0.00
   28    2   15    -12.10      0.00
   30    2   15      6.04      0.00
  -39    3   15    -14.79      0.00
  -37    3   15      1.96      0.00
  -35    3   15      3.13      0.00
  -33    3   15     -1.07      0.00
  -31    3   15     -3.28      0.00
  -29    3   15     -6.50      0.00
  -27    3   15     -6.71      0.00
  -25    3   15      0.58      0.00
  -23    3   15      0.74      0.00
  -21    3   15     -4.75      0.00
  -19    3   15      1.33      0.00
  -17    3   15     -0.10      0.00
  -15    3   15     -2.10      0.00
  -13    3   15    -15.70      0.00
  -11    3   15      8.85      0.00
   -9    3   15     18.07      0.00
   -7    3   15     -3.78      0.00
   -5    3   15     -8.87      0.00
   -3    3   15     -2.90      0.00
   -1    3   15      1.99      0.00
    1    3   15     10.74      0.00
    3    3   15      0.53      0.00
    5    3   15      0.98      0.00
    7    3   15      3.48      0.00
    9    3   15      7.30      0.00
   11    3   15      6.96      0.00
   13    3   15      0.26      0.00
   15    3   15     -3.17      0.00
   17    3   15     -1.15      0.00
   19    3   15      4.79      0.00
   21    3   15     20.00      0.00
   23    3   15     -7.01      0.00
   25    3   15    -10.24      0.00
   27    3   15     18.24      0.00
   29    3   15      8.84      0.00
   31    3   15     -5.85      0.00
  -40    4   15    -48.78      0.00
  -38    4   15     -4.53      0.00
  -36    4   15    -11.61      0.00
  -34    4   15     -2.51      0.00
  -32    4   15      1.34      0.00
  -30    4   15      6.63      0.00
  -28    4   15      2.78      0.00
  -26    4   15      3.38      0.00
  -24    4   15     -5.28      0.00
  -22    4   15      0.15      0.00
  -20    4   15     -3.06      0.00
  -18    4   15      0.35      0.00
  -16    4   15     -3.39      0.00
  -14    4   15      2.21      0.00
  -12    4   15      2.23      0.00
  -10    4   15      6.33      0.00
   -8    4   15    -10.22      0.00
   -6    4   15     -3.66      0.00
   -4    4   15     17.23      0.00
   -2    4   15     -3.86      0.00
    0    4   15     -6.34      0.00
    2    4   15      0.57      0.00
    4    4   15    -12.04      0.00
    6    4   15      5.29      0.00
    8    4   15     -0.20      0.00
   10    4   15     -2.17      0.00
   12    4   15     10.10      0.00
   14    4   15     -9.47      0.00
   16    4   15      4.34      0.00
   18    4   15     14.96      0.00
   20    4   15    -21.06      0.00
   22    4   15    -19.00      0.00
   24    4   15     -2.21      0.00
   26    4   15    -25.92      0.00
   28    4   15     15.85      0.00
   30    4   15     -5.91      0.00
  -39    5   15      0.15      0.00
  -37    5   15     20.99      0.00
  -35    5   15      9.06      0.00
  -33    5   15     -5.48      0.00
  -31    5   15     -1.55      0.00
  -29    5   15     -7.11      0.00
  -27    5   15     -2.11      0.00
  -25    5   15     -2.45      0.00
  -23    5   15      1.38      0.00
  -21    5   15      3.40      0.00
  -19    5   15     -5.58      0.00
  -17    5   15     10.81      0.00
  -15    5   15      2.98      0.00
  -13    5   15     -2.41      0.00
  -11    5   15    -17.51      0.00
   -9    5   15      0.70      0.00
   -7    5   15     -8.69      0.00
   -5    5   15      4.13      0.00
   -3    5   15      3.44      0.00
   -1    5   15     -7.43      0.00
    1    5   15     11.50      0.00
    3    5   15     -6.81      0.00
    5    5   15     -2.54      0.00
    7    5   15      2.89      0.00
    9    5   15      6.70      0.00
   11    5   15      3.71      0.00
   13    5   15     -6.17      0.00
   15    5   15    -15.36      0.00
   17    5   15     -4.51      0.00
   19    5   15     -1.68      0.00
   21    5   15    -11.39      0.00
   23    5   15     12.45      0.00
   25    5   15     -3.19      0.00
   27    5   15      1.18      0.00
   29    5   15    -13.70      0.00
  -38    6   15      8.80      0.00
  -36    6   15     13.18      0.00
  -34    6   15      0.85      0.00
  -32    6   15     -0.02      0.00
  -30    6   15     -3.22      0.00
  -28    6   15      2.67      0.00
  -26    6   15      2.17      0.00
  -24    6   15      3.38      0.00
  -22    6   15      1.34      0.00
  -20    6   15     -1.58      0.00
  -18    6   15      0.71      0.00
  -16    6   15     -8.40      0.00
  -14    6   15     -0.65      0.00
  -12    6   15     -7.79      0.00
  -10    6   15      4.19      0.00
   -8    6   15      4.23      0.00
   -6    6   15     -0.22      0.00
   -4    6   15      6.55      0.00
   -2    6   15      8.94      0.00
    0    6   15    -11.04      0.00
    2    6   15     -4.08      0.00
    4    6   15     -2.89      0.00
    6    6   15      0.00      0.00
    8    6   15     -2.55      0.00
   10    6   15     -4.73      0.00
   12    6   15     15.16      0.00
   14    6   15      2.15      0.00
   16    6   15    -22.82      0.00
   18    6   15     10.34      0.00
   20    6   15    -17.02      0.00
   22    6   15    -16.58      0.00
   24    6   15    -17.90      0.00
   26    6   15    -18.31      0.00
   28    6   15     17.71      0.00
  -39    7   15     -5.13      0.00
  -37    7   15      1.77      0.00
  -35    7   15      1.35      0.00
  -33    7   15     -0.15      0.00
  -31    7   15      6.62      0.00
  -29    7   15      2.24      0.00
  -27    7   15     -4.74      0.00
  -25    7   15     -4.64      0.00
  -23    7   15     -5.01      0.00
  -21    7   15      3.75      0.00
  -19    7   15      2.39      0.00
  -17    7   15     -2.47      0.00
  -15    7   15      3.93      0.00
  -13    7   15      4.94      0.00
  -11    7   15      2.21      0.00
   -9    7   15      5.26      0.00
   -7    7   15    -13.30      0.00
   -5    7   15     -5.73      0.00
   -3    7   15      8.16      0.00
   -1    7   15     -0.24      0.00
    1    7   15      5.02      0.00
    3    7   15     -2.50      0.00
    5    7   15    -13.04      0.00
    7    7   15      7.38      0.00
    9    7   15    -11.01      0.00
   11    7   15      7.27      0.00
   13    7   15     -5.53      0.00
   15    7   15    -13.12      0.00
   17    7   15      9.86      0.00
   19    7   15     -4.04      0.00
   21    7   15    -14.39      0.00
   23    7   15    -20.65      0.00
   25    7   15      7.44      0.00
   27    7   15     -7.10      0.00
  -38    8   15     24.06      0.00
  -36    8   15      3.40      0.00
  -34    8   15     -1.44      0.00
  -32    8   15     -2.87      0.00
  -30    8   15      0.87      0.00
  -28    8   15      5.82      0.00
  -26    8   15      7.52      0.00
  -24    8   15      2.53      0.00
  -22    8   15      3.38      0.00
  -20    8   15     -4.13      0.00
  -18    8   15     -0.21      0.00
  -16    8   15      5.13      0.00
  -14    8   15     -9.81      0.00
  -12    8   15      3.05      0.00
  -10    8   15     -0.10      0.00
   -8    8   15      1.87      0.00
   -6    8   15     -2.53      0.00
   -4    8   15      1.73      0.00
   -2    8   15     -3.86      0.00
    0    8   15     -6.47      0.00
    2    8   15     10.03      0.00
    4    8   15     -6.04      0.00
    6    8   15     11.11      0.00
    8    8   15     -1.72      0.00
   10    8   15      7.91      0.00
   12    8   15      7.68      0.00
   14    8   15     18.12      0.00
   16    8   15      9.69      0.00
   18    8   15     18.40      0.00
   20    8   15     -3.49      0.00
   22    8   15    -15.20      0.00
   24    8   15     -5.37      0.00
   26    8   15     -2.14      0.00
   28    8   15      4.50      0.00
  -37    9   15      6.57      0.00
  -35    9   15      1.43      0.00
  -33    9   15      2.39      0.00
  -31    9   15      4.97      0.00
  -29    9   15      3.77      0.00
  -27    9   15      7.68      0.00
  -25    9   15      1.93      0.00
  -23    9   15     -5.42      0.00
  -21    9   15      2.07      0.00
  -19    9   15      3.94      0.00
  -17    9   15     -0.32      0.00
  -15    9   15     -2.17      0.00
  -13    9   15     15.86      0.00
  -11    9   15      3.58      0.00
   -9    9   15      5.53      0.00
   -7    9   15     -3.84      0.00
   -5    9   15    -12.18      0.00
   -3    9   15      1.41      0.00
   -1    9   15      4.36      0.00
    1    9   15      2.25      0.00
    3    9   15      3.19      0.00
    5    9   15     -6.46      0.00
    7    9   15      3.55      0.00
    9    9   15     10.75      0.00
   11    9   15     -2.13      0.00
   13    9   15     -3.44      0.00
   15    9   15     -2.69      0.00
   17    9   15    -22.14      0.00
   19    9   15      9.17      0.00
   21    9   15    -24.32      0.00
   23    9   15    -17.19      0.00
   25    9   15     -7.58      0.00
   27    9   15      2.25      0.00
  -36   10   15     -4.71      0.00
  -34   10   15      4.16      0.00
  -32   10   15     -4.71      0.00
  -30   10   15     -1.61      0.00
  -28   10   15      2.95      0.00
  -26   10   15      2.91      0.00
  -24   10   15     -0.92      0.00
  -22   10   15      3.81      0.00
  -20   10   15     -5.97      0.00
  -18   10   15     -2.06      0.00
  -16   10   15     -2.75      0.00
  -14   10   15      3.23      0.00
  -12   10   15      5.11      0.00
  -10   10   15      3.84      0.00
   -8   10   15      0.49      0.00
   -6   10   15     -2.46      0.00
   -4   10   15     -0.63      0.00
   -2   10   15      1.95      0.00
    0   10   15     -7.39      0.00
    2   10   15      5.27      0.00
    4   10   15     -3.65      0.00
    6   10   15      3.83      0.00
    8   10   15     -3.33      0.00
   10   10   15     -0.49      0.00
   12   10   15      7.99      0.00
   14   10   15      0.86      0.00
   16   10   15      6.46      0.00
   18   10   15     -8.47      0.00
   20   10   15     -0.45      0.00
   22   10   15      1.36      0.00
   24   10   15    -11.87      0.00
   26   10   15      2.75      0.00
  -33   11   15     -2.61      0.00
  -31   11   15     -2.20      0.00
  -29   11   15     -1.99      0.00
  -27   11   15     -2.25      0.00
  -25   11   15     -0.58      0.00
  -23   11   15     -2.25      0.00
  -21   11   15      3.34      0.00
  -19   11   15      7.05      0.00
  -17   11   15      1.93      0.00
  -15   11   15      7.42      0.00
  -13   11   15     -0.10      0.00
  -11   11   15     -1.11      0.00
   -9   11   15      7.70      0.00
   -7   11   15     10.09      0.00
   -5   11   15     -5.65      0.00
   -3   11   15     -0.33      0.00
   -1   11   15     -0.23      0.00
    1   11   15     -1.85      0.00
    3   11   15      3.05      0.00
    5   11   15      0.82      0.00
    7   11   15     17.52      0.00
    9   11   15     12.41      0.00
   11   11   15     11.81      0.00
   13   11   15     -1.94      0.00
   15   11   15     -9.06      0.00
   17   11   15      4.28      0.00
   19   11   15     -1.56      0.00
   21   11   15     12.35      0.00
   23   11   15     -0.74      0.00
   25   11   15      4.87      0.00
  -32   12   15    -12.71      0.00
  -30   12   15     -8.79      0.00
  -28   12   15      5.60      0.00
  -26   12   15     11.01      0.00
  -24   12   15     -2.61      0.00
  -22   12   15      5.30      0.00
  -20   12   15     -9.69      0.00
  -18   12   15     -7.46      0.00
  -16   12   15     -2.08      0.00
  -14   12   15    -12.47      0.00
  -12   12   15     -7.74      0.00
  -10   12   15     -0.37      0.00
   -8   12   15     -7.48      0.00
   -6   12   15      1.87      0.00
   -4   12   15      2.69      0.00
   -2   12   15      3.53      0.00
    0   12   15     -2.05      0.00
    2   12   15      1.76      0.00
    4   12   15      0.58      0.00
    6   12   15      0.86      0.00
    8   12   15      2.67      0.00
   10   12   15     13.82      0.00
   12   12   15     14.34      0.00
   14   12   15     13.04      0.00
   16   12   15     -4.46      0.00
   18   12   15      9.78      0.00
   20   12   15     -5.75      0.00
   22   12   15     -1.44      0.00
   24   12   15     -2.70      0.00
  -31   13   15     -7.06      0.00
  -29   13   15     -0.61      0.00
  -27   13   15     -2.40      0.00
  -25   13   15     -8.03      0.00
  -23   13   15     -4.84      0.00
  -21   13   15     -5.82      0.00
  -19   13   15     -3.96      0.00
  -17   13   15     -3.36      0.00
  -15   13   15      0.01      0.00
  -13   13   15     13.79      0.00
  -11   13   15     -6.28      0.00
   -9   13   15      5.85      0.00
   -7   13   15      3.33      0.00
   -5   13   15     -6.53      0.00
   -3   13   15      4.70      0.00
   -1   13   15      4.39      0.00
    1   13   15     13.31      0.00
    3   13   15      7.12      0.00
    5   13   15      9.78      0.00
    7   13   15     -6.40      0.00
    9   13   15      6.19      0.00
   11   13   15    -12.38      0.00
   13   13   15      1.90      0.00
   15   13   15      7.17      0.00
   17   13   15     -0.91      0.00
   19   13   15     -3.57      0.00
   21   13   15      1.34      0.00
   23   13   15     -4.85      0.00
  -30   14   15     -7.00      0.00
  -28   14   15     -0.93      0.00
  -26   14   15      0.48      0.00
  -24   14   15     -6.13      0.00
  -22   14   15     -5.93      0.00
  -20   14   15      0.11      0.00
  -18   14   15      9.27      0.00
  -16   14   15      2.10      0.00
  -14   14   15      5.75      0.00
  -12   14   15     -7.35      0.00
  -10   14   15      3.55      0.00
   -8   14   15      3.96      0.00
   -6   14   15     -6.21      0.00
   -4   14   15    -12.49      0.00
   -2   14   15     -1.97      0.00
    0   14   15     -9.09      0.00
    2   14   15     -1.04      0.00
    4   14   15    -12.78      0.00
    6   14   15     -1.65      0.00
    8   14   15      3.14      0.00
   10   14   15      4.28      0.00
   12   14   15      2.25      0.00
   14   14   15     -0.23      0.00
   16   14   15     -4.83      0.00
   18   14   15     -5.66      0.00
   20   14   15     -3.18      0.00
  -29   15   15      3.77      0.00
  -27   15   15      2.28      0.00
  -25   15   15     -3.45      0.00
  -23   15   15      0.65      0.00
  -21   15   15     -3.12      0.00
  -19   15   15     -5.45      0.00
  -17   15   15     -2.03      0.00
  -15   15   15      7.02      0.00
  -13   15   15     -4.88      0.00
  -11   15   15      4.71      0.00
   -9   15   15      0.35      0.00
   -7   15   15     -7.84      0.00
   -5   15   15      5.55      0.00
   -3   15   15      1.52      0.00
   -1   15   15      3.16      0.00
    1   15   15     -2.07      0.00
    3   15   15     -3.11      0.00
    5   15   15      4.68      0.00
    7   15   15     -4.76      0.00
    9   15   15      5.30      0.00
   11   15   15     -3.36      0.00
   13   15   15     -1.42      0.00
   15   15   15      0.39      0.00
   17   15   15     12.39      0.00
   19   15   15     -7.45      0.00
  -26   16   15     -4.59      0.00
  -24   16   15     -2.05      0.00
  -22   16   15      6.04      0.00
  -20   16   15     19.28      0.00
  -18   16   15      3.34      0.00
  -16   16   15     -5.10      0.00
  -14   16   15      0.65      0.00
  -12   16   15     -4.05      0.00
  -10   16   15     -2.50      0.00
   -8   16   15      7.46      0.00
   -6   16   15      4.39      0.00
   -4   16   15      5.03      0.00
   -2   16   15      4.79      0.00
    0   16   15     -5.30      0.00
    2   16   15     -2.67      0.00
    4   16   15      0.84      0.00
    6   16   15     12.40      0.00
    8   16   15      1.86      0.00
   10   16   15      4.76      0.00
   12   16   15    -11.73      0.00
   14   16   15     -8.78      0.00
   16   16   15     -9.39      0.00
  -21   17   15     -8.26      0.00
  -19   17   15     -5.97      0.00
  -17   17   15     -6.33      0.00
  -15   17   15     -3.87      0.00
  -13   17   15     -0.82      0.00
  -11   17   15      0.14      0.00
   -9   17   15      0.59      0.00
   -7   17   15     -6.59      0.00
   -5   17   15      1.33      0.00
   -3   17   15    -13.13      0.00
   -1   17   15      2.35      0.00
    1   17   15      2.45      0.00
    3   17   15     -3.14      0.00
    5   17   15    -15.11      0.00
    7   17   15     -6.38      0.00
    9   17   15      0.76      0.00
   11   17   15     -0.73      0.00
   13   17   15     -1.47      0.00
  -20   18   15     -0.58      0.00
  -18   18   15      0.15      0.00
  -16   18   15     -5.77      0.00
  -14   18   15     -3.51      0.00
  -12   18   15      0.72      0.00
  -10   18   15     -6.46      0.00
   -8   18   15      4.67      0.00
   -6   18   15      8.76      0.00
   -4   18   15     -0.32      0.00
   -2   18   15      0.63      0.00
    0   18   15     -5.35      0.00
    2   18   15     -7.05      0.00
    4   18   15     14.41      0.00
    6   18   15      8.50      0.00
    8   18   15     -3.01      0.00
   10   18   15      7.48      0.00
  -15   19   15     -0.29      0.00
  -13   19   15     -1.15      0.00
  -11   19   15      1.45      0.00
   -9   19   15     -0.06      0.00
   -7   19   15     -0.87      0.00
   -5   19   15     -1.48      0.00
   -3   19   15      7.44      0.00
   -1   19   15    -18.24      0.00
    1   19   15    -12.23      0.00
    3   19   15     10.16      0.00
    5   19   15      3.24      0.00
    7   19   15      2.52      0.00
  -10   20   15      1.48      0.00
   -8   20   15      7.04      0.00
   -6   20   15      3.88      0.00
   -4   20   15      2.17      0.00
   -2   20   15      7.37      0.00
    0   20   15     -7.48      0.00
    2   20   15      1.13      0.00
    4   20   15     -3.54      0.00
  -38    0   16     -1.55      0.00
  -36    0   16     -1.52      0.00
  -34    0   16     -7.30      0.00
  -32    0   16      4.15      0.00
  -30    0   16      6.55      0.00
  -28    0   16     -3.04      0.00
  -26    0   16      9.01      0.00
  -24    0   16     -6.94      0.00
  -22    0   16      1.21      0.00
  -20    0   16     -3.72      0.00
  -18    0   16      3.55      0.00
  -16    0   16     -1.66      0.00
  -14    0   16     -6.31      0.00
  -12    0   16     -9.40      0.00
  -10    0   16     -3.29      0.00
   -8    0   16     28.11      0.00
   -6    0   16    -12.76      0.00
   -4    0   16      8.05      0.00
   -2    0   16     15.61      0.00
    0    0   16     34.09      0.00
    2    0   16      9.40      0.00
    4    0   16      9.04      0.00
    6    0   16    -13.69      0.00
    8    0   16      7.74      0.00
   10    0   16      7.78      0.00
   12    0   16     -2.72      0.00
   14    0   16     29.07      0.00
   16    0   16    -12.89      0.00
   18    0   16    -14.05      0.00
   20    0   16     10.66      0.00
   22    0   16    -61.76      0.00
   24    0   16    -55.61      0.00
   26    0   16     -9.86      0.00
   28    0   16     13.17      0.00
   30    0   16     10.31      0.00
  -39    1   16     -7.83      0.00
  -37    1   16      6.01      0.00
  -35    1   16      6.23      0.00
  -33    1   16      4.22      0.00
  -31    1   16     -6.13      0.00
  -29    1   16     -4.25      0.00
  -27    1   16     -0.22      0.00
  -25    1   16      2.48      0.00
  -23    1   16     -2.18      0.00
  -21    1   16      2.93      0.00
  -19    1   16      3.14      0.00
  -17    1   16     -0.87      0.00
  -15    1   16      4.06      0.00
  -13    1   16      7.96      0.00
  -11    1   16    -11.15      0.00
   -9    1   16    -23.45      0.00
   -7    1   16    -15.90      0.00
   -5    1   16     15.05      0.00
   -3    1   16    -10.69      0.00
   -1    1   16     22.96      0.00
    1    1   16     -9.06      0.00
    3    1   16     12.14      0.00
    5    1   16     -1.24      0.00
    7    1   16      9.00      0.00
    9    1   16      8.73      0.00
   11    1   16    -10.37      0.00
   13    1   16     -8.29      0.00
   15    1   16      0.43      0.00
   17    1   16     29.03      0.00
   19    1   16     -2.55      0.00
   21    1   16    -26.19      0.00
   23    1   16    -47.10      0.00
   25    1   16      7.98      0.00
   27    1   16     -4.01      0.00
   29    1   16    -19.57      0.00
  -40    2   16     -2.97      0.00
  -38    2   16    -16.57      0.00
  -36    2   16      2.13      0.00
  -34    2   16     -2.60      0.00
  -32    2   16      1.08      0.00
  -30    2   16      9.35      0.00
  -28    2   16     -1.03      0.00
  -26    2   16     -1.79      0.00
  -24    2   16     -1.40      0.00
  -22    2   16     -0.31      0.00
  -20    2   16      2.54      0.00
  -18    2   16      0.81      0.00
  -16    2   16      5.44      0.00
  -14    2   16      5.93      0.00
  -12    2   16      8.28      0.00
  -10    2   16      6.36      0.00
   -8    2   16      8.83      0.00
   -6    2   16     11.47      0.00
   -4    2   16     -0.57      0.00
   -2    2   16     14.00      0.00
    0    2   16     -4.33      0.00
    2    2   16     -5.01      0.00
    4    2   16     11.02      0.00
    6    2   16     -5.20      0.00
    8    2   16     13.33      0.00
   10    2   16      9.90      0.00
   12    2   16      6.10      0.00
   14    2   16      9.24      0.00
   16    2   16      8.25      0.00
   18    2   16     14.77      0.00
   20    2   16    -56.96      0.00
   22    2   16    -29.27      0.00
   24    2   16    -72.84      0.00
   26    2   16      3.20      0.00
   28    2   16     -8.19      0.00
   30    2   16     -6.33      0.00
  -39    3   16     -1.12      0.00
  -37    3   16      2.52      0.00
  -35    3   16    -11.18      0.00
  -33    3   16    -10.42      0.00
  -31    3   16     -2.26      0.00
  -29    3   16    -14.27      0.00
  -27    3   16     -0.23      0.00
  -25    3   16      1.43      0.00
  -23    3   16     -0.14      0.00
  -21    3   16      2.41      0.00
  -19    3   16      8.24      0.00
  -17    3   16     -2.67      0.00
  -15    3   16     -4.59      0.00
  -13    3   16     -2.44      0.00
  -11    3   16     -2.27      0.00
   -9    3   16     11.47      0.00
   -7    3   16     11.93      0.00
   -5    3   16      5.64      0.00
   -3    3   16    -25.49      0.00
   -1    3   16      2.77      0.00
    1    3   16    -11.46      0.00
    3    3   16      7.17      0.00
    5    3   16      4.12      0.00
    7    3   16     13.39      0.00
    9    3   16     -8.75      0.00
   11    3   16     -7.65      0.00
   13    3   16      5.24      0.00
   15    3   16      8.36      0.00
   17    3   16      4.02      0.00
   19    3   16    -23.31      0.00
   21    3   16    -81.66      0.00
   23    3   16    -21.26      0.00
   25    3   16     11.20      0.00
   27    3   16     -0.32      0.00
   29    3   16     -0.28      0.00
  -40    4   16      3.37      0.00
  -38    4   16      1.24      0.00
  -36    4   16     12.23      0.00
  -34    4   16     12.35      0.00
  -32    4   16      6.88      0.00
  -30    4   16      7.47      0.00
  -28    4   16     -0.41      0.00
  -26    4   16      0.58      0.00
  -24    4   16     -0.61      0.00
  -22    4   16      5.53      0.00
  -20    4   16     -2.89      0.00
  -18    4   16     -1.21      0.00
  -16    4   16      3.06      0.00
  -14    4   16      6.47      0.00
  -12    4   16      2.65      0.00
  -10    4   16      0.23      0.00
   -8    4   16      2.64      0.00
   -6    4   16     11.25      0.00
   -4    4   16     27.07      0.00
   -2    4   16     -2.44      0.00
    0    4   16      2.26      0.00
    2    4   16     -5.54      0.00
    4    4   16      5.57      0.00
    6    4   16    -11.39      0.00
    8    4   16      0.14      0.00
   10    4   16    -15.64      0.00
   12    4   16      1.18      0.00
   14    4   16     -9.73      0.00
   16    4   16     -9.47      0.00
   18    4   16     -0.17      0.00
   20    4   16    -39.90      0.00
   22    4   16     -1.28      0.00
   24    4   16     -2.56      0.00
   26    4   16     -6.27      0.00
   28    4   16     -5.34      0.00
   30    4   16      4.12      0.00
  -39    5   16      3.59      0.00
  -37    5   16     10.05      0.00
  -35    5   16     18.59      0.00
  -33    5   16      0.56      0.00
  -31    5   16      9.79      0.00
  -29    5   16     -5.78      0.00
  -27    5   16     -6.09      0.00
  -25    5   16     -1.54      0.00
  -23    5   16      2.33      0.00
  -21    5   16      6.36      0.00
  -19    5   16      1.20      0.00
  -17    5   16      1.53      0.00
  -15    5   16      7.75      0.00
  -13    5   16      1.34      0.00
  -11    5   16      1.48      0.00
   -9    5   16      4.57      0.00
   -7    5   16      5.72      0.00
   -5    5   16     -8.58      0.00
   -3    5   16     -2.36      0.00
   -1    5   16     16.36      0.00
    1    5   16    -15.87      0.00
    3    5   16      6.11      0.00
    5    5   16     -6.22      0.00
    7    5   16     -4.17      0.00
    9    5   16      3.70      0.00
   11    5   16      1.32      0.00
   13    5   16      0.09      0.00
   15    5   16      3.52      0.00
   17    5   16      9.35      0.00
   19    5   16     40.77      0.00
   21    5   16     -4.86      0.00
   23    5   16    -15.73      0.00
   25    5   16     17.83      0.00
   27    5   16      6.31      0.00
   29    5   16      0.41      0.00
  -38    6   16     -8.13      0.00
  -36    6   16      0.91      0.00
  -34    6   16      4.57      0.00
  -32    6   16     -8.08      0.00
  -30    6   16     -1.57      0.00
  -28    6   16     -1.58      0.00
  -26    6   16      2.50      0.00
  -24    6   16     -2.71      0.00
  -22    6   16      2.00      0.00
  -20    6   16      3.19      0.00
  -18    6   16     -0.77      0.00
  -16    6   16     -5.37      0.00
  -14    6   16     -4.74      0.00
  -12    6   16     -1.65      0.00
  -10    6   16     -2.05      0.00
   -8    6   16     13.57      0.00
   -6    6   16      8.23      0.00
   -4    6   16      1.90      0.00
   -2    6   16     -0.78      0.00
    0    6   16     -7.37      0.00
    2    6   16      3.10      0.00
    4    6   16      3.91      0.00
    6    6   16    -10.29      0.00
    8    6   16    -15.94      0.00
   10    6   16     -0.14      0.00
   12    6   16     20.87      0.00
   14    6   16     31.78      0.00
   16    6   16     -0.36      0.00
   18    6   16     -0.49      0.00
   20    6   16     -0.07      0.00
   22    6   16    -11.87      0.00
   24    6   16     12.09      0.00
   26    6   16     13.01      0.00
   28    6   16     -5.34      0.00
  -39    7   16     10.75      0.00
  -37    7   16     -2.41      0.00
  -35    7   16     -6.90      0.00
  -33    7   16     -7.85      0.00
  -31    7   16     -2.10      0.00
  -29    7   16      3.06      0.00
  -27    7   16     -1.87      0.00
  -25    7   16     -0.46      0.00
  -23    7   16      2.39      0.00
  -21    7   16     -2.73      0.00
  -19    7   16     -4.86      0.00
  -17    7   16      6.91      0.00
  -15    7   16      4.09      0.00
  -13    7   16     12.55      0.00
  -11    7   16      6.44      0.00
   -9    7   16      2.72      0.00
   -7    7   16     -6.96      0.00
   -5    7   16      6.70      0.00
   -3    7   16      0.95      0.00
   -1    7   16      6.56      0.00
    1    7   16     -1.64      0.00
    3    7   16     -0.66      0.00
    5    7   16     -9.13      0.00
    7    7   16      5.66      0.00
    9    7   16     -2.29      0.00
   11    7   16      7.83      0.00
   13    7   16     21.04      0.00
   15    7   16      9.77      0.00
   17    7   16      6.72      0.00
   19    7   16     13.66      0.00
   21    7   16      1.55      0.00
   23    7   16     15.79      0.00
   25    7   16      3.03      0.00
   27    7   16      1.80      0.00
  -38    8   16      0.32      0.00
  -36    8   16      8.49      0.00
  -34    8   16      7.27      0.00
  -32    8   16     -1.09      0.00
  -30    8   16     -5.06      0.00
  -28    8   16     -0.95      0.00
  -26    8   16      9.11      0.00
  -24    8   16     -0.03      0.00
  -22    8   16      3.11      0.00
  -20    8   16      1.30      0.00
  -18    8   16      3.83      0.00
  -16    8   16     -8.75      0.00
  -14    8   16      3.47      0.00
  -12    8   16      3.85      0.00
  -10    8   16     -4.81      0.00
   -8    8   16      4.36      0.00
   -6    8   16      4.91      0.00
   -4    8   16     -7.75      0.00
   -2    8   16      2.77      0.00
    0    8   16      2.44      0.00
    2    8   16     -2.04      0.00
    4    8   16      7.61      0.00
    6    8   16     -5.20      0.00
    8    8   16      1.88      0.00
   10    8   16     -2.18      0.00
   12    8   16      3.78      0.00
   14    8   16     31.96      0.00
   16    8   16     -9.79      0.00
   18    8   16      5.78      0.00
   20    8   16      4.21      0.00
   22    8   16     -8.75      0.00
   24    8   16      9.57      0.00
   26    8   16     21.92      0.00
  -37    9   16      2.38      0.00
  -35    9   16      8.34      0.00
  -33    9   16      1.88      0.00
  -31    9   16      4.17      0.00
  -29    9   16     -5.85      0.00
  -27    9   16     -5.67      0.00
  -25    9   16     -7.94      0.00
  -23    9   16     -7.87      0.00
  -21    9   16      1.73      0.00
  -19    9   16      0.40      0.00
  -17    9   16      0.17      0.00
  -15    9   16      3.86      0.00
  -13    9   16     -1.56      0.00
  -11    9   16     11.20      0.00
   -9    9   16      2.02      0.00
   -7    9   16      4.16      0.00
   -5    9   16     10.08      0.00
   -3    9   16     -0.01      0.00
   -1    9   16    -11.29      0.00
    1    9   16     -3.21      0.00
    3    9   16      2.08      0.00
    5    9   16     -4.02      0.00
    7    9   16      0.46      0.00
    9    9   16     -2.17      0.00
   11    9   16      3.21      0.00
   13    9   16      1.28      0.00
   15    9   16    -11.65      0.00
   17    9   16     -8.33      0.00
   19    9   16     17.43      0.00
   21    9   16      6.15      0.00
   23    9   16     -4.35      0.00
   25    9   16      1.71      0.00
  -36   10   16     -1.42      0.00
  -34   10   16      3.38      0.00
  -32   10   16      0.04      0.00
  -30   10   16     -6.10      0.00
  -28   10   16     -4.73      0.00
  -26   10   16     -6.06      0.00
  -24   10   16     -1.58      0.00
  -22   10   16      3.65      0.00
  -20   10   16     -2.30      0.00
  -18   10   16     -0.57      0.00
  -16   10   16      0.53      0.00
  -14   10   16      0.50      0.00
  -12   10   16      8.28      0.00
  -10   10   16     -5.82      0.00
   -8   10   16      4.44      0.00
   -6   10   16      4.28      0.00
   -4   10   16      3.93      0.00
   -2   10   16      9.68      0.00
    0   10   16      0.18      0.00
    2   10   16     -5.98      0.00
    4   10   16     -0.41      0.00
    6   10   16      2.45      0.00
    8   10   16      1.47      0.00
   10   10   16      9.58      0.00
   12   10   16      7.26      0.00
   14   10   16     -5.74      0.00
   16   10   16      4.39      0.00
   18   10   16    -13.95      0.00
   20   10   16     21.78      0.00
   22   10   16     -0.37      0.00
   24   10   16     -3.73      0.00
  -33   11   16     -1.35      0.00
  -31   11   16     -3.42      0.00
  -29   11   16     -4.36      0.00
  -27   11   16      1.74      0.00
  -25   11   16      0.91      0.00
  -23   11   16      1.15      0.00
  -21   11   16     -0.65      0.00
  -19   11   16      1.55      0.00
  -17   11   16     -7.14      0.00
  -15   11   16      3.08      0.00
  -13   11   16     -2.68      0.00
  -11   11   16      8.70      0.00
   -9   11   16     -1.48      0.00
   -7   11   16     -0.95      0.00
   -5   11   16      7.74      0.00
   -3   11   16      2.82      0.00
   -1   11   16     -5.56      0.00
    1   11   16      1.49      0.00
    3   11   16     -3.92      0.00
    5   11   16      1.79      0.00
    7   11   16      1.99      0.00
    9   11   16     -0.19      0.00
   11   11   16     -2.69      0.00
   13   11   16      4.87      0.00
   15   11   16     -4.82      0.00
   17   11   16      3.33      0.00
   19   11   16     10.19      0.00
   21   11   16      3.08      0.00
   23   11   16      9.51      0.00
  -32   12   16      8.46      0.00
  -30   12   16      3.89      0.00
  -28   12   16     -4.99      0.00
  -26   12   16     -5.31      0.00
  -24   12   16     -0.87      0.00
  -22   12   16      0.71      0.00
  -20   12   16     -0.87      0.00
  -18   12   16      0.96      0.00
  -16   12   16      4.19      0.00
  -14   12   16     -0.35      0.00
  -12   12   16     -5.82      0.00
  -10   12   16     -4.57      0.00
   -8   12   16     -8.89      0.00
   -6   12   16     -2.56      0.00
   -4   12   16      0.90      0.00
   -2   12   16      0.63      0.00
    0   12   16      7.62      0.00
    2   12   16      1.78      0.00
    4   12   16      8.99      0.00
    6   12   16    -14.50      0.00
    8   12   16     -1.55      0.00
   10   12   16    -12.19      0.00
   12   12   16      0.57      0.00
   14   12   16      4.00      0.00
   16   12   16     -8.62      0.00
   18   12   16      1.40      0.00
   20   12   16      6.57      0.00
   22   12   16     -0.77      0.00
  -31   13   16     13.00      0.00
  -29   13   16      5.50      0.00
  -27   13   16     -7.70      0.00
  -25   13   16     -0.99      0.00
  -23   13   16     -0.60      0.00
  -21   13   16     -5.07      0.00
  -19   13   16      1.18      0.00
  -17   13   16     -6.15      0.00
  -15   13   16      2.27      0.00
  -13   13   16      6.88      0.00
  -11   13   16     -4.39      0.00
   -9   13   16      4.84      0.00
   -7   13   16     -1.84      0.00
   -5   13   16      4.82      0.00
   -3   13   16     -3.69      0.00
   -1   13   16     -0.05      0.00
    1   13   16     -9.59      0.00
    3   13   16     -5.71      0.00
    5   13   16     -0.98      0.00
    7   13   16     -5.13      0.00
    9   13   16     -5.52      0.00
   11   13   16     -8.44      0.00
   13   13   16     -6.33      0.00
   15   13   16      0.85      0.00
   17   13   16    -12.51      0.00
   19   13   16      7.35      0.00
   21   13   16      8.11      0.00
  -30   14   16      2.68      0.00
  -28   14   16     -7.01      0.00
  -26   14   16     -1.81      0.00
  -24   14   16     -2.63      0.00
  -22   14   16      2.43      0.00
  -20   14   16      2.68      0.00
  -18   14   16      3.26      0.00
  -16   14   16      7.55      0.00
  -14   14   16     -6.20      0.00
  -12   14   16     -6.35      0.00
  -10   14   16     -2.62      0.00
   -8   14   16     -0.55      0.00
   -6   14   16      4.19      0.00
   -4   14   16     14.00      0.00
   -2   14   16     -4.44      0.00
    0   14   16     -7.29      0.00
    2   14   16      0.60      0.00
    4   14   16    -13.60      0.00
    6   14   16      7.71      0.00
    8   14   16    -14.95      0.00
   10   14   16     -1.84      0.00
   12   14   16     -9.20      0.00
   14   14   16     -2.97      0.00
   16   14   16      6.73      0.00
   18   14   16     -2.87      0.00
   20   14   16      2.88      0.00
  -27   15   16    -10.66      0.00
  -25   15   16     -5.09      0.00
  -23   15   16      7.87      0.00
  -21   15   16     10.86      0.00
  -19   15   16     -0.31      0.00
  -17   15   16    -10.52      0.00
  -15   15   16      7.83      0.00
  -13   15   16      2.09      0.00
  -11   15   16      2.69      0.00
   -9   15   16    -23.42      0.00
   -7   15   16     11.12      0.00
   -5   15   16     -2.05      0.00
   -1   15   16     -0.61      0.00
    1   15   16     12.56      0.00
    3   15   16     15.77      0.00
    5   15   16     11.54      0.00
    7   15   16     -7.08      0.00
    9   15   16     -1.58      0.00
   11   15   16     -1.29      0.00
   13   15   16      0.04      0.00
   15   15   16     -2.15      0.00
   17   15   16     -7.70      0.00
  -24   16   16     -2.11      0.00
  -22   16   16     -2.53      0.00
  -20   16   16      1.91      0.00
  -18   16   16      3.13      0.00
  -16   16   16      2.68      0.00
  -14   16   16     -0.66      0.00
  -12   16   16     -4.99      0.00
  -10   16   16     -5.00      0.00
   -8   16   16      6.48      0.00
   -6   16   16     -4.81      0.00
   -4   16   16      3.79      0.00
   -2   16   16      5.09      0.00
    0   16   16     -6.35      0.00
    2   16   16     -9.90      0.00
    4   16   16    -18.07      0.00
    6   16   16      2.00      0.00
    8   16   16     -1.11      0.00
   10   16   16      8.95      0.00
   12   16   16     -9.43      0.00
   14   16   16     -0.66      0.00
   16   16   16     -5.22      0.00
  -21   17   16     -3.90      0.00
  -19   17   16     -3.02      0.00
  -17   17   16      2.61      0.00
  -15   17   16     -5.54      0.00
  -13   17   16      8.17      0.00
  -11   17   16      4.63      0.00
   -9   17   16      0.59      0.00
   -7   17   16     -5.87      0.00
   -5   17   16     -1.64      0.00
   -3   17   16     -7.37      0.00
   -1   17   16     -3.71      0.00
    1   17   16      9.73      0.00
    3   17   16     -9.14      0.00
    5   17   16    -11.10      0.00
    7   17   16     -3.78      0.00
    9   17   16      1.72      0.00
   11   17   16     14.70      0.00
  -18   18   16     -3.76      0.00
  -16   18   16      6.62      0.00
  -14   18   16     -4.70      0.00
  -12   18   16     -5.90      0.00
  -10   18   16     -3.74      0.00
   -8   18   16      8.26      0.00
   -6   18   16     -0.65      0.00
   -4   18   16     11.91      0.00
   -2   18   16     -0.86      0.00
    0   18   16     -0.84      0.00
    2   18   16     19.48      0.00
    4   18   16     -8.12      0.00
    6   18   16     -4.42      0.00
    8   18   16      2.31      0.00
   10   18   16      6.22      0.00
  -15   19   16      1.66      0.00
  -13   19   16    -11.94      0.00
  -11   19   16      3.07      0.00
   -9   19   16      3.03      0.00
   -7   19   16     -3.74      0.00
   -5   19   16     -0.45      0.00
   -3   19   16     -5.17      0.00
   -1   19   16      1.77      0.00
    1   19   16     -3.97      0.00
    3   19   16    -11.78      0.00
    5   19   16     -5.71      0.00
    7   19   16     -4.35      0.00
   -8   20   16     -3.75      0.00
   -6   20   16     -0.61      0.00
   -4   20   16     14.45      0.00
   -2   20   16      5.80      0.00
    0   20   16     17.78      0.00
  -39    1   17     -9.92      0.00
  -37    1   17     -7.59      0.00
  -35    1   17      1.62      0.00
  -33    1   17      5.86      0.00
  -31    1   17      4.30      0.00
  -29    1   17      9.87      0.00
  -27    1   17     -7.89      0.00
  -25    1   17      1.50      0.00
  -23    1   17     -0.06      0.00
  -21    1   17      0.70      0.00
  -19    1   17      1.62      0.00
  -17    1   17     -2.37      0.00
  -15    1   17      5.91      0.00
  -13    1   17      3.55      0.00
  -11    1   17     16.58      0.00
   -9    1   17      1.17      0.00
   -7    1   17     -3.86      0.00
   -5    1   17    -20.94      0.00
   -3    1   17     -2.67      0.00
   -1    1   17      1.08      0.00
    1    1   17      2.87      0.00
    3    1   17      3.27      0.00
    5    1   17      0.86      0.00
    7    1   17     -0.12      0.00
    9    1   17     -6.46      0.00
   11    1   17     -0.66      0.00
   13    1   17      5.48      0.00
   15    1   17      4.37      0.00
   17    1   17     51.22      0.00
   19    1   17    -14.35      0.00
   21    1   17     21.60      0.00
   23    1   17     -8.12      0.00
   25    1   17      9.30      0.00
   27    1   17      7.29      0.00
   29    1   17     -1.27      0.00
  -40    2   17      3.59      0.00
  -38    2   17     -3.42      0.00
  -36    2   17     -1.85      0.00
  -34    2   17     -2.26      0.00
  -32    2   17     -0.92      0.00
  -30    2   17     -2.84      0.00
  -28    2   17     -5.24      0.00
  -26    2   17      2.16      0.00
  -24    2   17      1.97      0.00
  -22    2   17      4.24      0.00
  -20    2   17      3.44      0.00
  -18    2   17      4.04      0.00
  -16    2   17      4.12      0.00
  -14    2   17      4.26      0.00
  -12    2   17     -9.41      0.00
  -10    2   17     -9.37      0.00
   -8    2   17      4.50      0.00
   -6    2   17     -3.55      0.00
   -4    2   17     -6.93      0.00
   -2    2   17    -19.90      0.00
    0    2   17     -5.45      0.00
    2    2   17     13.65      0.00
    4    2   17      3.01      0.00
    6    2   17      7.71      0.00
    8    2   17    -14.84      0.00
   10    2   17     -0.38      0.00
   12    2   17      5.31      0.00
   14    2   17      8.63      0.00
   16    2   17      0.96      0.00
   18    2   17    -19.15      0.00
   20    2   17    -54.83      0.00
   22    2   17     -9.35      0.00
   24    2   17      5.41      0.00
   26    2   17    -25.73      0.00
   28    2   17      9.67      0.00
  -39    3   17      3.33      0.00
  -37    3   17     19.34      0.00
  -35    3   17      5.70      0.00
  -33    3   17      2.50      0.00
  -31    3   17      2.81      0.00
  -29    3   17     -7.97      0.00
  -27    3   17     -0.05      0.00
  -25    3   17     -5.08      0.00
  -23    3   17     -4.08      0.00
  -21    3   17     -4.48      0.00
  -19    3   17     -5.46      0.00
  -17    3   17      1.22      0.00
  -15    3   17     -5.30      0.00
  -13    3   17     -4.24      0.00
  -11    3   17      4.74      0.00
   -9    3   17     16.42      0.00
   -7    3   17     -6.75      0.00
   -5    3   17     -0.77      0.00
   -3    3   17     -3.57      0.00
   -1    3   17      2.46      0.00
    1    3   17      5.63      0.00
    3    3   17      6.40      0.00
    5    3   17      0.43      0.00
    7    3   17     -0.86      0.00
    9    3   17    -22.69      0.00
   11    3   17     -1.06      0.00
   13    3   17     14.91      0.00
   15    3   17      0.36      0.00
   17    3   17      2.98      0.00
   19    3   17     59.97      0.00
   21    3   17      0.20      0.00
   23    3   17     10.65      0.00
   25    3   17    -14.93      0.00
   27    3   17      9.03      0.00
   29    3   17     10.45      0.00
  -40    4   17     -8.11      0.00
  -38    4   17    -13.33      0.00
  -36    4   17     11.82      0.00
  -34    4   17     10.60      0.00
  -32    4   17     13.05      0.00
  -30    4   17     11.40      0.00
  -28    4   17      2.29      0.00
  -26    4   17     -2.05      0.00
  -24    4   17      0.94      0.00
  -22    4   17     -2.17      0.00
  -20    4   17     -5.10      0.00
  -18    4   17     -2.40      0.00
  -16    4   17      7.64      0.00
  -14    4   17      8.34      0.00
  -12    4   17     -0.45      0.00
  -10    4   17    -10.24      0.00
   -8    4   17     -0.51      0.00
   -6    4   17     -6.95      0.00
   -4    4   17      5.25      0.00
   -2    4   17      3.94      0.00
    0    4   17     -7.28      0.00
    2    4   17     10.18      0.00
    4    4   17     -1.49      0.00
    6    4   17     -9.40      0.00
    8    4   17      2.79      0.00
   10    4   17      0.62      0.00
   12    4   17     -1.10      0.00
   14    4   17     -0.95      0.00
   16    4   17     -9.26      0.00
   18    4   17     46.44      0.00
   20    4   17     39.38      0.00
   22    4   17      4.24      0.00
   24    4   17      2.35      0.00
   26    4   17      6.89      0.00
   28    4   17     -7.01      0.00
  -39    5   17      1.44      0.00
  -37    5   17      3.24      0.00
  -35    5   17      1.95      0.00
  -33    5   17    -17.72      0.00
  -31    5   17     -6.67      0.00
  -29    5   17      6.26      0.00
  -27    5   17     -2.44      0.00
  -25    5   17     -7.18      0.00
  -23    5   17     -2.89      0.00
  -21    5   17     -1.32      0.00
  -19    5   17      5.04      0.00
  -17    5   17      5.78      0.00
  -15    5   17      0.13      0.00
  -13    5   17     -5.51      0.00
  -11    5   17    -10.48      0.00
   -9    5   17     10.33      0.00
   -7    5   17      0.61      0.00
   -5    5   17     -6.96      0.00
   -3    5   17      5.46      0.00
   -1    5   17      0.79      0.00
    1    5   17      2.78      0.00
    3    5   17      3.95      0.00
    5    5   17     -0.53      0.00
    7    5   17     -3.76      0.00
    9    5   17      1.86      0.00
   11    5   17      6.32      0.00
   13    5   17     33.02      0.00
   15    5   17     11.72      0.00
   17    5   17      8.55      0.00
   19    5   17     27.50      0.00
   21    5   17      9.73      0.00
   23    5   17     -2.21      0.00
   25    5   17      5.14      0.00
   27    5   17     -6.51      0.00
  -38    6   17     -3.13      0.00
  -36    6   17    -12.04      0.00
  -34    6   17     -1.91      0.00
  -32    6   17    -11.30      0.00
  -30    6   17      1.74      0.00
  -28    6   17      6.64      0.00
  -26    6   17      5.93      0.00
  -24    6   17      3.24      0.00
  -22    6   17     -4.63      0.00
  -20    6   17     -4.37      0.00
  -18    6   17     -0.22      0.00
  -16    6   17     -0.23      0.00
  -14    6   17     -4.29      0.00
  -12    6   17      1.09      0.00
  -10    6   17     -3.35      0.00
   -8    6   17     -0.42      0.00
   -6    6   17    -13.26      0.00
   -4    6   17      0.12      0.00
   -2    6   17      3.45      0.00
    0    6   17     -2.36      0.00
    2    6   17     12.97      0.00
    4    6   17     -6.67      0.00
    6    6   17      2.29      0.00
    8    6   17     -3.70      0.00
   10    6   17     10.67      0.00
   12    6   17     51.60      0.00
   14    6   17      2.52      0.00
   16    6   17    -11.23      0.00
   18    6   17     -4.30      0.00
   20    6   17      8.53      0.00
   22    6   17     -6.87      0.00
   24    6   17     -2.60      0.00
   26    6   17    -14.59      0.00
  -39    7   17     -8.92      0.00
  -37    7   17      3.48      0.00
  -35    7   17      1.65      0.00
  -33    7   17      3.33      0.00
  -31    7   17      3.82      0.00
  -29    7   17     -3.17      0.00
  -27    7   17      1.44      0.00
  -25    7   17     -1.10      0.00
  -23    7   17     -5.37      0.00
  -21    7   17      6.47      0.00
  -19    7   17      0.51      0.00
  -17    7   17     -1.48      0.00
  -15    7   17      3.39      0.00
  -13    7   17      8.15      0.00
  -11    7   17     -1.59      0.00
   -9    7   17     -1.27      0.00
   -7    7   17     -1.84      0.00
   -5    7   17     -2.71      0.00
   -3    7   17      2.24      0.00
   -1    7   17      6.50      0.00
    1    7   17      2.84      0.00
    3    7   17     -0.39      0.00
    5    7   17      1.13      0.00
    7    7   17      8.59      0.00
    9    7   17     -4.53      0.00
   11    7   17    -19.76      0.00
   13    7   17     -9.53      0.00
   15    7   17      4.85      0.00
   17    7   17     -4.66      0.00
   19    7   17      8.47      0.00
   21    7   17      0.02      0.00
   23    7   17      8.35      0.00
   25    7   17      4.21      0.00
  -38    8   17      1.74      0.00
  -36    8   17      4.30      0.00
  -34    8   17      2.25      0.00
  -32    8   17      0.19      0.00
  -30    8   17     -2.50      0.00
  -28    8   17      8.82      0.00
  -26    8   17      4.32      0.00
  -24    8   17     -5.39      0.00
  -22    8   17      0.62      0.00
  -20    8   17      2.84      0.00
  -18    8   17      4.98      0.00
  -16    8   17     -4.47      0.00
  -14    8   17      1.16      0.00
  -12    8   17     -1.60      0.00
  -10    8   17     -7.61      0.00
   -8    8   17      0.11      0.00
   -6    8   17     -6.70      0.00
   -4    8   17     -1.05      0.00
   -2    8   17      0.42      0.00
    0    8   17     -5.98      0.00
    2    8   17      9.84      0.00
    4    8   17     12.71      0.00
    6    8   17     -6.53      0.00
    8    8   17     -2.00      0.00
   10    8   17      1.19      0.00
   12    8   17     -4.86      0.00
   14    8   17    -10.61      0.00
   16    8   17    -11.51      0.00
   18    8   17     -2.08      0.00
   20    8   17      0.16      0.00
   22    8   17      4.31      0.00
   24    8   17      6.51      0.00
   26    8   17     -2.42      0.00
  -37    9   17     -0.06      0.00
  -35    9   17     -1.44      0.00
  -33    9   17      4.75      0.00
  -31    9   17     -6.53      0.00
  -29    9   17      0.64      0.00
  -27    9   17     -2.11      0.00
  -25    9   17      2.62      0.00
  -23    9   17      3.23      0.00
  -21    9   17      2.54      0.00
  -19    9   17     -1.30      0.00
  -17    9   17      3.31      0.00
  -15    9   17      7.41      0.00
  -13    9   17      4.43      0.00
  -11    9   17      7.44      0.00
   -9    9   17     10.24      0.00
   -7    9   17     -0.11      0.00
   -5    9   17     -0.80      0.00
   -3    9   17      5.83      0.00
   -1    9   17      6.05      0.00
    1    9   17      6.56      0.00
    3    9   17      2.39      0.00
    5    9   17    -15.32      0.00
    7    9   17     12.20      0.00
    9    9   17      4.29      0.00
   11    9   17      2.41      0.00
   13    9   17    -12.63      0.00
   15    9   17     -2.36      0.00
   17    9   17     -3.44      0.00
   19    9   17     -5.20      0.00
   21    9   17     -3.98      0.00
   23    9   17    -11.38      0.00
   25    9   17      4.78      0.00
  -34   10   17     -1.65      0.00
  -32   10   17     -1.38      0.00
  -30   10   17     -2.73      0.00
  -28   10   17     -5.91      0.00
  -26   10   17      3.53      0.00
  -24   10   17      0.47      0.00
  -22   10   17      1.63      0.00
  -20   10   17      5.12      0.00
  -18   10   17     -4.24      0.00
  -16   10   17      0.44      0.00
  -14   10   17     -0.96      0.00
  -12   10   17      3.72      0.00
  -10   10   17     -6.54      0.00
   -8   10   17     -8.42      0.00
   -6   10   17     -0.26      0.00
   -4   10   17     -3.05      0.00
   -2   10   17      2.83      0.00
    0   10   17     -1.77      0.00
    2   10   17     -0.11      0.00
    4   10   17      0.56      0.00
    6   10   17     -4.26      0.00
    8   10   17     -6.01      0.00
   10   10   17      1.64      0.00
   12   10   17      7.41      0.00
   14   10   17      3.40      0.00
   16   10   17      6.86      0.00
   18   10   17     -1.34      0.00
   20   10   17      3.86      0.00
   22   10   17     19.40      0.00
   24   10   17     -8.54      0.00
  -33   11   17      8.33      0.00
  -31   11   17     -4.66      0.00
  -29   11   17     -4.92      0.00
  -27   11   17      1.39      0.00
  -25   11   17      9.27      0.00
  -23   11   17     -1.70      0.00
  -21   11   17      4.40      0.00
  -19   11   17      1.84      0.00
  -17   11   17     -0.97      0.00
  -15   11   17     -2.89      0.00
  -13   11   17     -2.19      0.00
  -11   11   17     -0.71      0.00
   -9   11   17      7.40      0.00
   -7   11   17     -0.29      0.00
   -5   11   17    -10.29      0.00
   -3   11   17     -2.05      0.00
   -1   11   17     -3.20      0.00
    1   11   17    -10.21      0.00
    3   11   17      3.06      0.00
    5   11   17    -16.28      0.00
    7   11   17      4.40      0.00
    9   11   17     -0.09      0.00
   11   11   17     -2.19      0.00
   13   11   17      6.11      0.00
   15   11   17      6.77      0.00
   17   11   17     -0.52      0.00
   19   11   17      2.66      0.00
   21   11   17      2.58      0.00
   23   11   17      2.04      0.00
  -30   12   17     -1.48      0.00
  -28   12   17     -2.00      0.00
  -26   12   17      3.61      0.00
  -24   12   17      4.80      0.00
  -22   12   17     -4.02      0.00
  -20   12   17     -0.19      0.00
  -18   12   17     10.57      0.00
  -16   12   17     -1.96      0.00
  -14   12   17     -2.29      0.00
  -12   12   17     -5.98      0.00
  -10   12   17      0.29      0.00
   -8   12   17     -0.92      0.00
   -6   12   17     -1.47      0.00
   -4   12   17     -5.89      0.00
   -2   12   17      5.71      0.00
    0   12   17      3.42      0.00
    2   12   17      6.47      0.00
    4   12   17     -6.83      0.00
    6   12   17     -2.26      0.00
    8   12   17     -8.32      0.00
   10   12   17     14.96      0.00
   12   12   17     12.19      0.00
   14   12   17     15.62      0.00
   16   12   17     -4.01      0.00
   18   12   17      5.75      0.00
   20   12   17     -0.65      0.00
   22   12   17     -3.41      0.00
  -29   13   17    -16.79      0.00
  -27   13   17     -5.21      0.00
  -25   13   17     -4.32      0.00
  -23   13   17     -0.99      0.00
  -21   13   17      6.76      0.00
  -19   13   17     -2.51      0.00
  -17   13   17     -3.39      0.00
  -15   13   17      5.61      0.00
  -13   13   17      7.86      0.00
  -11   13   17      4.40      0.00
   -9   13   17      2.73      0.00
   -7   13   17     -6.74      0.00
   -5   13   17      0.73      0.00
   -3   13   17     -4.43      0.00
   -1   13   17     -1.96      0.00
    1   13   17     -9.64      0.00
    3   13   17    -11.17      0.00
    5   13   17      8.53      0.00
    7   13   17     -0.87      0.00
    9   13   17      0.48      0.00
   11   13   17    -13.37      0.00
   13   13   17     -2.40      0.00
   15   13   17     14.36      0.00
   17   13   17      3.01      0.00
   19   13   17     -6.38      0.00
   21   13   17      0.58      0.00
  -28   14   17     -6.46      0.00
  -26   14   17      1.59      0.00
  -24   14   17      1.98      0.00
  -22   14   17      7.59      0.00
  -20   14   17     -1.89      0.00
  -18   14   17     -0.22      0.00
  -16   14   17      3.14      0.00
  -14   14   17      0.77      0.00
  -12   14   17     -3.19      0.00
  -10   14   17    -19.50      0.00
   -8   14   17     12.62      0.00
   -6   14   17     -2.21      0.00
   -4   14   17     -2.65      0.00
   -2   14   17      1.28      0.00
    0   14   17      3.52      0.00
    2   14   17     11.65      0.00
    4   14   17    -12.04      0.00
    6   14   17      1.05      0.00
    8   14   17     -6.85      0.00
   10   14   17     12.36      0.00
   12   14   17      6.40      0.00
   14   14   17      3.65      0.00
   16   14   17     -1.17      0.00
   18   14   17     11.77      0.00
  -25   15   17      3.38      0.00
  -23   15   17      3.73      0.00
  -21   15   17     -3.80      0.00
  -19   15   17     -0.70      0.00
  -17   15   17     -2.03      0.00
  -15   15   17     -4.23      0.00
  -13   15   17      0.93      0.00
  -11   15   17      0.82      0.00
   -9   15   17     -5.02      0.00
   -7   15   17     -2.86      0.00
   -5   15   17     -3.25      0.00
   -3   15   17     -1.17      0.00
   -1   15   17     -2.71      0.00
    1   15   17    -13.49      0.00
    3   15   17     -5.53      0.00
    5   15   17     -4.38      0.00
    7   15   17      9.16      0.00
    9   15   17      2.33      0.00
   11   15   17      5.80      0.00
   13   15   17     -5.30      0.00
   15   15   17      2.99      0.00
   17   15   17      8.57      0.00
  -24   16   17     10.45      0.00
  -22   16   17      1.24      0.00
  -20   16   17     -4.17      0.00
  -18   16   17      6.76      0.00
  -16   16   17     -1.96      0.00
  -14   16   17     10.22      0.00
  -12   16   17      1.06      0.00
  -10   16   17      3.17      0.00
   -8   16   17     -1.52      0.00
   -6   16   17     -0.41      0.00
   -4   16   17      4.97      0.00
   -2   16   17      6.93      0.00
    0   16   17      0.08      0.00
    2   16   17    -15.30      0.00
    4   16   17     -9.27      0.00
    6   16   17      2.39      0.00
    8   16   17      2.31      0.00
   10   16   17     16.24      0.00
   12   16   17     -2.06      0.00
   14   16   17     -5.05      0.00
  -21   17   17     -1.49      0.00
  -19   17   17     -0.02      0.00
  -17   17   17     -0.36      0.00
  -15   17   17     -5.49      0.00
  -13   17   17    -14.80      0.00
  -11   17   17     -0.68      0.00
   -9   17   17     -7.21      0.00
   -7   17   17      0.34      0.00
   -5   17   17      4.46      0.00
   -3   17   17     -9.79      0.00
   -1   17   17     12.21      0.00
    1   17   17     12.46      0.00
    3   17   17     -3.03      0.00
    5   17   17    -10.15      0.00
    7   17   17     -3.93      0.00
    9   17   17      4.69      0.00
  -18   18   17      7.64      0.00
  -16   18   17      2.73      0.00
  -14   18   17     -3.92      0.00
  -12   18   17     -2.79      0.00
  -10   18   17     -5.03      0.00
   -8   18   17      5.95      0.00
   -6   18   17     -0.82      0.00
   -4   18   17      1.79      0.00
   -2   18   17     19.16      0.00
    0   18   17     -7.83      0.00
    2   18   17      9.96      0.00
    4   18   17     12.92      0.00
    8   18   17     -8.29      0.00
  -13   19   17      0.68      0.00
  -11   19   17     -0.66      0.00
   -9   19   17      1.60      0.00
   -7   19   17     -4.20      0.00
   -5   19   17     14.23      0.00
   -3   19   17      4.62      0.00
   -1   19   17      5.53      0.00
    1   19   17     -5.87      0.00
    3   19   17     -0.80      0.00
    5   19   17      7.70      0.00
  -40    0   18     -4.91      0.00
  -38    0   18     -3.11      0.00
  -36    0   18      2.01      0.00
  -34    0   18     -1.55      0.00
  -32    0   18      0.75      0.00
  -30    0   18      4.07      0.00
  -28    0   18    -11.17      0.00
  -26    0   18      7.69      0.00
  -24    0   18      8.33      0.00
  -22    0   18     -3.50      0.00
  -20    0   18      2.16      0.00
  -18    0   18     -1.38      0.00
  -16    0   18     -7.85      0.00
  -14    0   18     -8.78      0.00
  -12    0   18      6.64      0.00
  -10    0   18     -1.30      0.00
   -8    0   18     -4.71      0.00
   -6    0   18    -21.18      0.00
   -4    0   18      1.08      0.00
   -2    0   18      6.75      0.00
    0    0   18     26.54      0.00
    2    0   18     -5.53      0.00
    4    0   18      6.03      0.00
    6    0   18     -6.73      0.00
    8    0   18      6.82      0.00
   10    0   18     -6.59      0.00
   12    0   18      7.22      0.00
   14    0   18     -2.66      0.00
   16    0   18     23.25      0.00
   18    0   18     41.56      0.00
   20    0   18     23.62      0.00
   22    0   18     -2.45      0.00
   24    0   18     -6.19      0.00
   26    0   18     25.32      0.00
   28    0   18      1.45      0.00
  -39    1   18      0.44      0.00
  -37    1   18      2.81      0.00
  -35    1   18      6.15      0.00
  -33    1   18     -5.88      0.00
  -31    1   18     -0.72      0.00
  -29    1   18      5.80      0.00
  -27    1   18      4.68      0.00
  -25    1   18      5.18      0.00
  -23    1   18      2.04      0.00
  -21    1   18      3.12      0.00
  -19    1   18      2.83      0.00
  -17    1   18     -3.31      0.00
  -15    1   18      9.98      0.00
  -13    1   18      1.32      0.00
  -11    1   18     -8.82      0.00
   -9    1   18    -11.13      0.00
   -7    1   18     -0.85      0.00
   -5    1   18     10.89      0.00
   -3    1   18     -7.75      0.00
   -1    1   18      8.75      0.00
    1    1   18     -1.06      0.00
    3    1   18     16.38      0.00
    5    1   18      7.41      0.00
    7    1   18    -15.39      0.00
    9    1   18     -3.00      0.00
   11    1   18    -15.77      0.00
   13    1   18     -3.39      0.00
   15    1   18     30.04      0.00
   17    1   18     26.35      0.00
   19    1   18     14.92      0.00
   21    1   18      8.87      0.00
   23    1   18      8.42      0.00
   25    1   18    -29.86      0.00
   27    1   18     -4.77      0.00
  -40    2   18      1.78      0.00
  -38    2   18      7.83      0.00
  -36    2   18      5.30      0.00
  -34    2   18     -1.80      0.00
  -32    2   18     -1.14      0.00
  -30    2   18     -6.02      0.00
  -28    2   18     -8.90      0.00
  -26    2   18      2.19      0.00
  -24    2   18     -1.66      0.00
  -22    2   18     -3.02      0.00
  -20    2   18      5.00      0.00
  -18    2   18      6.00      0.00
  -16    2   18      1.04      0.00
  -14    2   18      2.34      0.00
  -12    2   18      2.18      0.00
  -10    2   18    -11.04      0.00
   -8    2   18      0.75      0.00
   -6    2   18     -2.42      0.00
   -4    2   18     13.65      0.00
   -2    2   18     -0.72      0.00
    0    2   18     13.97      0.00
    2    2   18     -6.92      0.00
    4    2   18      1.67      0.00
    6    2   18      0.48      0.00
    8    2   18     16.64      0.00
   10    2   18     14.95      0.00
   12    2   18      3.24      0.00
   14    2   18     -4.51      0.00
   16    2   18    -49.10      0.00
   18    2   18     60.76      0.00
   20    2   18     23.61      0.00
   22    2   18      4.09      0.00
   24    2   18    -31.70      0.00
   26    2   18      7.75      0.00
   28    2   18      1.52      0.00
  -39    3   18      4.16      0.00
  -37    3   18     -0.31      0.00
  -35    3   18      4.11      0.00
  -33    3   18      3.54      0.00
  -31    3   18      3.18      0.00
  -29    3   18      3.91      0.00
  -27    3   18      0.18      0.00
  -25    3   18      3.75      0.00
  -23    3   18     -3.83      0.00
  -21    3   18      0.70      0.00
  -19    3   18     -1.84      0.00
  -17    3   18      2.40      0.00
  -15    3   18     -2.01      0.00
  -13    3   18      2.31      0.00
  -11    3   18      4.49      0.00
   -9    3   18     14.32      0.00
   -7    3   18      8.15      0.00
   -5    3   18     -1.54      0.00
   -3    3   18     -9.52      0.00
   -1    3   18      6.50      0.00
    1    3   18     -7.56      0.00
    3    3   18     10.06      0.00
    5    3   18      3.02      0.00
    7    3   18      3.23      0.00
    9    3   18     -2.66      0.00
   11    3   18     -9.26      0.00
   13    3   18     -3.29      0.00
   15    3   18     -0.50      0.00
   17    3   18     10.77      0.00
   19    3   18     64.86      0.00
   21    3   18     -5.60      0.00
   23    3   18    -15.48      0.00
   25    3   18      9.89      0.00
   27    3   18     -9.06      0.00
  -40    4   18      7.65      0.00
  -38    4   18    -12.93      0.00
  -36    4   18      3.53      0.00
  -34    4   18      2.39      0.00
  -32    4   18     -8.37      0.00
  -30    4   18     16.32      0.00
  -28    4   18     -4.29      0.00
  -26    4   18    -11.40      0.00
  -24    4   18      1.26      0.00
  -22    4   18     -2.15      0.00
  -20    4   18     -2.84      0.00
  -18    4   18      1.24      0.00
  -16    4   18     -0.68      0.00
  -14    4   18     -0.22      0.00
  -12    4   18     -6.88      0.00
  -10    4   18    -13.59      0.00
   -8    4   18     -6.80      0.00
   -6    4   18      0.05      0.00
   -4    4   18      8.31      0.00
   -2    4   18      3.65      0.00
    0    4   18      8.24      0.00
    2    4   18    -10.03      0.00
    4    4   18     -2.58      0.00
    6    4   18     -9.93      0.00
    8    4   18     16.13      0.00
   10    4   18     -4.47      0.00
   12    4   18    -17.74      0.00
   14    4   18    -13.94      0.00
   16    4   18     -0.21      0.00
   18    4   18      2.21      0.00
   20    4   18     16.66      0.00
   22    4   18      6.66      0.00
   24    4   18     -2.32      0.00
   26    4   18      5.31      0.00
   28    4   18     -2.52      0.00
  -39    5   18     -4.18      0.00
  -37    5   18     -0.76      0.00
  -35    5   18      4.46      0.00
  -33    5   18      2.94      0.00
  -31    5   18      5.75      0.00
  -29    5   18      4.62      0.00
  -27    5   18      3.85      0.00
  -25    5   18      3.21      0.00
  -23    5   18      0.52      0.00
  -21    5   18      3.37      0.00
  -19    5   18      3.05      0.00
  -17    5   18      3.75      0.00
  -15    5   18      2.35      0.00
  -13    5   18      7.39      0.00
  -11    5   18      9.22      0.00
   -9    5   18      5.49      0.00
   -7    5   18      1.18      0.00
   -5    5   18     -0.47      0.00
   -3    5   18     -0.29      0.00
   -1    5   18      6.95      0.00
    1    5   18     -9.49      0.00
    3    5   18      3.34      0.00
    5    5   18     13.78      0.00
    7    5   18     -2.61      0.00
    9    5   18     -1.84      0.00
   11    5   18     12.91      0.00
   13    5   18     -9.20      0.00
   15    5   18      4.74      0.00
   17    5   18     -8.32      0.00
   19    5   18     11.84      0.00
   21    5   18      2.06      0.00
   23    5   18     -7.30      0.00
   25    5   18    -17.00      0.00
   27    5   18      3.64      0.00
  -38    6   18     -4.46      0.00
  -36    6   18     -6.35      0.00
  -34    6   18     12.43      0.00
  -32    6   18      0.79      0.00
  -30    6   18      0.60      0.00
  -28    6   18      4.10      0.00
  -26    6   18      2.89      0.00
  -24    6   18     -7.53      0.00
  -22    6   18      1.03      0.00
  -20    6   18      1.01      0.00
  -18    6   18     -3.27      0.00
  -16    6   18     -5.19      0.00
  -14    6   18     -2.68      0.00
  -12    6   18     -3.28      0.00
  -10    6   18     -8.32      0.00
   -8    6   18     -3.91      0.00
   -6    6   18     -3.12      0.00
   -4    6   18      1.60      0.00
   -2    6   18     -0.95      0.00
    0    6   18     11.29      0.00
    2    6   18     -2.27      0.00
    4    6   18      1.74      0.00
    6    6   18     -7.96      0.00
    8    6   18      3.90      0.00
   10    6   18    -13.72      0.00
   12    6   18    -13.73      0.00
   14    6   18     16.09      0.00
   16    6   18     -6.17      0.00
   18    6   18     -6.58      0.00
   20    6   18      4.86      0.00
   22    6   18      7.68      0.00
   24    6   18      4.60      0.00
   26    6   18      2.13      0.00
  -39    7   18      5.72      0.00
  -37    7   18      1.27      0.00
  -35    7   18      2.97      0.00
  -33    7   18      6.40      0.00
  -31    7   18      8.84      0.00
  -29    7   18      3.11      0.00
  -27    7   18     -3.38      0.00
  -25    7   18     -1.81      0.00
  -23    7   18     -0.06      0.00
  -21    7   18      4.20      0.00
  -19    7   18     -2.63      0.00
  -17    7   18     -2.04      0.00
  -15    7   18      4.35      0.00
  -13    7   18      3.73      0.00
  -11    7   18      3.48      0.00
   -9    7   18     -9.91      0.00
   -7    7   18      2.15      0.00
   -5    7   18      6.39      0.00
   -3    7   18     -0.85      0.00
   -1    7   18      2.69      0.00
    1    7   18     -8.05      0.00
    3    7   18      4.80      0.00
    5    7   18      9.41      0.00
    7    7   18     -3.85      0.00
    9    7   18    -16.69      0.00
   11    7   18    -35.19      0.00
   13    7   18    -15.86      0.00
   15    7   18      8.24      0.00
   17    7   18     -7.84      0.00
   19    7   18     -8.07      0.00
   21    7   18      7.92      0.00
   23    7   18      0.17      0.00
   25    7   18     -4.61      0.00
  -38    8   18      5.83      0.00
  -36    8   18     -0.03      0.00
  -34    8   18      5.16      0.00
  -32    8   18     -3.00      0.00
  -30    8   18      2.49      0.00
  -28    8   18     -1.64      0.00
  -26    8   18     -0.84      0.00
  -24    8   18      0.89      0.00
  -22    8   18     -3.26      0.00
  -20    8   18      0.02      0.00
  -18    8   18      0.24      0.00
  -16    8   18      6.20      0.00
  -14    8   18     -5.55      0.00
  -12    8   18     -3.76      0.00
  -10    8   18     -3.62      0.00
   -8    8   18     -0.99      0.00
   -6    8   18     -1.29      0.00
   -4    8   18     10.41      0.00
   -2    8   18      3.51      0.00
    0    8   18      3.85      0.00
    2    8   18      1.87      0.00
    4    8   18     -7.71      0.00
    6    8   18     -7.41      0.00
    8    8   18      1.36      0.00
   10    8   18     -1.33      0.00
   12    8   18     -0.34      0.00
   14    8   18     12.72      0.00
   16    8   18      7.92      0.00
   18    8   18     -7.16      0.00
   20    8   18      9.67      0.00
   22    8   18     -4.70      0.00
   24    8   18      7.74      0.00
  -37    9   18      4.22      0.00
  -35    9   18     -0.32      0.00
  -33    9   18      5.13      0.00
  -31    9   18      0.55      0.00
  -29    9   18    -10.23      0.00
  -27    9   18     -9.76      0.00
  -25    9   18      0.35      0.00
  -23    9   18      0.73      0.00
  -21    9   18      6.54      0.00
  -19    9   18     -0.36      0.00
  -17    9   18      0.48      0.00
  -15    9   18     -9.27      0.00
  -13    9   18      7.61      0.00
  -11    9   18     11.39      0.00
   -9    9   18      3.23      0.00
   -7    9   18      2.76      0.00
   -5    9   18     -4.11      0.00
   -3    9   18     -7.70      0.00
   -1    9   18      4.39      0.00
    1    9   18     -3.26      0.00
    3    9   18     -6.46      0.00
    5    9   18      5.21      0.00
    7    9   18      5.85      0.00
    9    9   18     -5.65      0.00
   11    9   18     -0.45      0.00
   13    9   18     -2.17      0.00
   15    9   18     12.11      0.00
   17    9   18      7.74      0.00
   19    9   18      6.73      0.00
   21    9   18      4.33      0.00
   23    9   18    -13.61      0.00
  -34   10   18     -5.18      0.00
  -32   10   18     -2.86      0.00
  -30   10   18      3.74      0.00
  -28   10   18     -7.19      0.00
  -26   10   18      4.28      0.00
  -24   10   18     -3.28      0.00
  -22   10   18      1.53      0.00
  -20   10   18     -7.76      0.00
  -18   10   18      0.42      0.00
  -16   10   18     -7.28      0.00
  -14   10   18     -2.40      0.00
  -12   10   18    -11.28      0.00
  -10   10   18     -4.35      0.00
   -8   10   18    -10.32      0.00
   -6   10   18     -3.84      0.00
   -4   10   18      3.13      0.00
   -2   10   18      1.56      0.00
    0   10   18    -15.36      0.00
    2   10   18     -5.26      0.00
    4   10   18     -7.22      0.00
    6   10   18     -6.36      0.00
    8   10   18      1.95      0.00
   10   10   18      6.09      0.00
   12   10   18     10.68      0.00
   14   10   18      2.14      0.00
   16   10   18    -12.49      0.00
   18   10   18     -3.06      0.00
   20   10   18     10.32      0.00
   22   10   18     -2.55      0.00
  -33   11   18     -3.74      0.00
  -31   11   18     -3.82      0.00
  -29   11   18     -2.89      0.00
  -27   11   18      1.77      0.00
  -25   11   18      4.96      0.00
  -23   11   18      1.61      0.00
  -21   11   18     -0.20      0.00
  -19   11   18     10.00      0.00
  -17   11   18     -5.42      0.00
  -15   11   18      0.48      0.00
  -13   11   18     -7.84      0.00
  -11   11   18     13.39      0.00
   -9   11   18      5.17      0.00
   -7   11   18     -1.50      0.00
   -5   11   18     -4.16      0.00
   -3   11   18      3.71      0.00
   -1   11   18      3.58      0.00
    1   11   18     -6.78      0.00
    3   11   18     -8.85      0.00
    5   11   18      7.57      0.00
    7   11   18     -0.42      0.00
    9   11   18     14.22      0.00
   11   11   18      1.42      0.00
   13   11   18     12.33      0.00
   15   11   18      2.36      0.00
   17   11   18     -3.06      0.00
   19   11   18      2.91      0.00
   21   11   18     -8.82      0.00
  -30   12   18     -5.16      0.00
  -28   12   18     -4.85      0.00
  -26   12   18     -5.69      0.00
  -24   12   18     -0.52      0.00
  -22   12   18     10.43      0.00
  -20   12   18     -5.04      0.00
  -18   12   18      1.16      0.00
  -16   12   18      1.73      0.00
  -14   12   18      2.85      0.00
  -12   12   18      9.47      0.00
  -10   12   18     -8.41      0.00
   -8   12   18    -12.87      0.00
   -6   12   18     -6.49      0.00
   -4   12   18      5.60      0.00
   -2   12   18     11.53      0.00
    0   12   18      4.58      0.00
    2   12   18      0.50      0.00
    4   12   18      9.94      0.00
    6   12   18      4.89      0.00
    8   12   18     -1.54      0.00
   10   12   18     -1.67      0.00
   12   12   18     -8.41      0.00
   14   12   18     -5.19      0.00
   16   12   18      2.53      0.00
   18   12   18     -2.99      0.00
   20   12   18      2.06      0.00
  -27   13   18     -1.84      0.00
  -25   13   18     -3.36      0.00
  -23   13   18     -0.63      0.00
  -21   13   18     -9.20      0.00
  -19   13   18    -10.32      0.00
  -17   13   18     -8.88      0.00
  -15   13   18      0.52      0.00
  -13   13   18    -10.47      0.00
  -11   13   18    -11.89      0.00
   -9   13   18      1.30      0.00
   -7   13   18     10.96      0.00
   -5   13   18      5.01      0.00
   -3   13   18      8.86      0.00
   -1   13   18     -4.54      0.00
    1   13   18      0.75      0.00
    3   13   18    -16.77      0.00
    5   13   18     13.05      0.00
    7   13   18      4.92      0.00
    9   13   18     -1.21      0.00
   11   13   18     -5.42      0.00
   13   13   18     -1.91      0.00
   15   13   18     -4.21      0.00
   17   13   18      0.59      0.00
   19   13   18      2.63      0.00
  -26   14   18      2.30      0.00
  -24   14   18      8.98      0.00
  -22   14   18      2.00      0.00
  -20   14   18      7.94      0.00
  -18   14   18      4.26      0.00
  -16   14   18     -9.65      0.00
  -14   14   18     -3.27      0.00
  -12   14   18      1.83      0.00
  -10   14   18      3.08      0.00
   -8   14   18     -1.14      0.00
   -4   14   18      9.49      0.00
   -2   14   18      0.72      0.00
    0   14   18     -4.89      0.00
    2   14   18      3.99      0.00
    4   14   18    -10.12      0.00
    6   14   18      1.23      0.00
    8   14   18     -1.00      0.00
   10   14   18     11.93      0.00
   12   14   18     -2.58      0.00
   14   14   18     -1.25      0.00
   16   14   18      2.70      0.00
   18   14   18     -4.12      0.00
  -25   15   18      3.74      0.00
  -23   15   18      1.34      0.00
  -21   15   18      2.26      0.00
  -19   15   18      1.17      0.00
  -17   15   18      9.78      0.00
  -15   15   18      8.72      0.00
  -13   15   18     13.52      0.00
  -11   15   18      3.16      0.00
   -9   15   18     -9.61      0.00
   -7   15   18      6.83      0.00
   -5   15   18     -0.62      0.00
   -3   15   18      5.84      0.00
   -1   15   18     17.10      0.00
    1   15   18    -12.84      0.00
    3   15   18     16.58      0.00
    5   15   18     -3.62      0.00
    7   15   18     17.95      0.00
    9   15   18      0.50      0.00
   11   15   18     -1.68      0.00
   13   15   18    -11.26      0.00
   15   15   18      2.13      0.00
  -24   16   18     -7.20      0.00
  -22   16   18      3.33      0.00
  -20   16   18      1.87      0.00
  -18   16   18      3.55      0.00
  -16   16   18      1.53      0.00
  -14   16   18     -3.94      0.00
  -12   16   18      2.92      0.00
  -10   16   18      9.03      0.00
   -8   16   18      4.26      0.00
   -6   16   18      2.58      0.00
   -4   16   18      2.21      0.00
   -2   16   18     10.61      0.00
    0   16   18      4.39      0.00
    2   16   18      8.94      0.00
    4   16   18     -9.85      0.00
    6   16   18     -0.44      0.00
    8   16   18     -0.33      0.00
   10   16   18      1.26      0.00
   12   16   18     13.71      0.00
  -21   17   18      4.83      0.00
  -19   17   18      4.90      0.00
  -17   17   18     -5.67      0.00
  -15   17   18      9.83      0.00
  -13   17   18      0.62      0.00
  -11   17   18      4.73      0.00
   -9   17   18     -7.54      0.00
   -7   17   18      0.55      0.00
   -5   17   18     -0.96      0.00
   -3   17   18      3.90      0.00
   -1   17   18      5.83      0.00
    1   17   18     25.82      0.00
    3   17   18      9.88      0.00
    5   17   18    -13.91      0.00
    7   17   18     -9.36      0.00
    9   17   18     -9.47      0.00
  -18   18   18     -3.89      0.00
  -16   18   18     10.01      0.00
  -14   18   18      9.98      0.00
  -12   18   18      0.28      0.00
  -10   18   18      3.90      0.00
   -8   18   18      4.30      0.00
   -6   18   18     -9.32      0.00
   -4   18   18      5.65      0.00
   -2   18   18     -7.78      0.00
    0   18   18      1.96      0.00
    2   18   18     13.67      0.00
    4   18   18      8.28      0.00
    6   18   18     -0.56      0.00
  -13   19   18      4.90      0.00
  -11   19   18      3.44      0.00
   -9   19   18      0.79      0.00
   -7   19   18      4.09      0.00
   -5   19   18      1.51      0.00
   -3   19   18      1.70      0.00
   -1   19   18     -2.86      0.00
    1   19   18      1.45      0.00
    3   19   18     -2.70      0.00
  -39    1   19    -13.30      0.00
  -37    1   19     -4.64      0.00
  -35    1   19     -3.60      0.00
  -33    1   19      0.45      0.00
  -31    1   19      2.76      0.00
  -29    1   19     -1.41      0.00
  -27    1   19      2.25      0.00
  -25    1   19     -3.95      0.00
  -23    1   19     -1.80      0.00
  -21    1   19      3.85      0.00
  -19    1   19     -4.29      0.00
  -17    1   19      1.99      0.00
  -15    1   19      4.75      0.00
  -13    1   19      9.02      0.00
  -11    1   19      1.50      0.00
   -9    1   19     -4.39      0.00
   -7    1   19     -5.54      0.00
   -5    1   19      3.84      0.00
   -3    1   19      4.13      0.00
   -1    1   19     -0.13      0.00
    1    1   19     -1.27      0.00
    3    1   19     -1.02      0.00
    5    1   19     -2.69      0.00
    7    1   19      6.16      0.00
    9    1   19      6.72      0.00
   11    1   19     -0.23      0.00
   13    1   19     -5.67      0.00
   15    1   19    -38.87      0.00
   17    1   19    -24.81      0.00
   19    1   19     15.73      0.00
   21    1   19     -1.77      0.00
   23    1   19      3.33      0.00
   25    1   19      6.19      0.00
   27    1   19      1.41      0.00
  -40    2   19     12.33      0.00
  -38    2   19      2.26      0.00
  -36    2   19      3.82      0.00
  -34    2   19      2.12      0.00
  -32    2   19     -5.02      0.00
  -30    2   19     -4.90      0.00
  -28    2   19     -3.77      0.00
  -26    2   19     -0.42      0.00
  -24    2   19     -0.84      0.00
  -22    2   19      2.62      0.00
  -20    2   19      3.46      0.00
  -18    2   19      7.08      0.00
  -16    2   19      3.93      0.00
  -14    2   19     -0.24      0.00
  -12    2   19    -12.55      0.00
  -10    2   19     -4.21      0.00
   -8    2   19      9.89      0.00
   -6    2   19     -9.08      0.00
   -4    2   19    -12.00      0.00
   -2    2   19     -5.55      0.00
    0    2   19     -1.19      0.00
    2    2   19      2.49      0.00
    4    2   19      4.11      0.00
    6    2   19     13.26      0.00
    8    2   19      2.10      0.00
   10    2   19      3.25      0.00
   12    2   19     -8.09      0.00
   14    2   19    -14.95      0.00
   16    2   19    -19.81      0.00
   18    2   19     19.53      0.00
   20    2   19     12.01      0.00
   22    2   19    -20.29      0.00
   24    2   19     -2.40      0.00
   26    2   19      4.77      0.00
  -39    3   19     -4.38      0.00
  -37    3   19     -2.14      0.00
  -35    3   19      2.89      0.00
  -33    3   19      0.13      0.00
  -31    3   19      3.18      0.00
  -29    3   19      3.12      0.00
  -27    3   19    -11.45      0.00
  -25    3   19      1.86      0.00
  -23    3   19      4.42      0.00
  -21    3   19    -16.02      0.00
  -19    3   19     -7.04      0.00
  -17    3   19     -6.26      0.00
  -15    3   19     -2.64      0.00
  -13    3   19      7.25      0.00
  -11    3   19      9.36      0.00
   -9    3   19     -0.27      0.00
   -7    3   19      1.78      0.00
   -5    3   19     -4.42      0.00
   -3    3   19      5.44      0.00
   -1    3   19     -1.25      0.00
    1    3   19     -6.00      0.00
    3    3   19      1.95      0.00
    5    3   19     -0.01      0.00
    7    3   19      8.73      0.00
    9    3   19      3.79      0.00
   11    3   19     -3.99      0.00
   13    3   19      4.80      0.00
   15    3   19     22.51      0.00
   17    3   19     -2.63      0.00
   19    3   19     12.77      0.00
   21    3   19     10.70      0.00
   23    3   19     16.22      0.00
   25    3   19     -2.57      0.00
  -40    4   19    -12.26      0.00
  -38    4   19      1.99      0.00
  -36    4   19      0.40      0.00
  -34    4   19      5.29      0.00
  -32    4   19      2.57      0.00
  -30    4   19      6.73      0.00
  -28    4   19      3.77      0.00
  -26    4   19      3.78      0.00
  -24    4   19     -4.42      0.00
  -22    4   19     -0.27      0.00
  -20    4   19     -0.85      0.00
  -18    4   19     -4.76      0.00
  -16    4   19     11.32      0.00
  -14    4   19     10.33      0.00
  -12    4   19      2.23      0.00
  -10    4   19     -9.45      0.00
   -8    4   19      1.04      0.00
   -6    4   19     -3.65      0.00
   -4    4   19      5.67      0.00
   -2    4   19      2.03      0.00
    0    4   19     -0.72      0.00
    2    4   19      6.16      0.00
    4    4   19      3.14      0.00
    6    4   19      5.69      0.00
    8    4   19     13.55      0.00
   10    4   19     -9.14      0.00
   12    4   19    -16.68      0.00
   14    4   19     -7.87      0.00
   16    4   19      7.31      0.00
   18    4   19    -11.16      0.00
   20    4   19     26.72      0.00
   22    4   19      4.88      0.00
   24    4   19     -0.67      0.00
   26    4   19    -13.22      0.00
  -39    5   19      2.61      0.00
  -37    5   19      0.97      0.00
  -35    5   19     -0.52      0.00
  -33    5   19     -2.45      0.00
  -31    5   19     -5.20      0.00
  -29    5   19     -2.92      0.00
  -27    5   19      8.90      0.00
  -25    5   19     -3.73      0.00
  -23    5   19     -5.21      0.00
  -21    5   19     -0.69      0.00
  -19    5   19     -4.10      0.00
  -17    5   19      0.14      0.00
  -15    5   19     -3.60      0.00
  -13    5   19     -0.86      0.00
  -11    5   19      5.72      0.00
   -9    5   19      5.85      0.00
   -7    5   19      2.65      0.00
   -5    5   19     -0.85      0.00
   -3    5   19      1.58      0.00
   -1    5   19      1.76      0.00
    1    5   19     -4.39      0.00
    3    5   19      0.27      0.00
    5    5   19      1.81      0.00
    7    5   19      7.43      0.00
    9    5   19      1.66      0.00
   11    5   19     19.19      0.00
   13    5   19     42.02      0.00
   15    5   19     16.67      0.00
   17    5   19    -17.60      0.00
   19    5   19      2.39      0.00
   21    5   19     10.28      0.00
   23    5   19    -12.75      0.00
   25    5   19     11.32      0.00
  -38    6   19     -0.09      0.00
  -36    6   19     -2.96      0.00
  -34    6   19     -0.97      0.00
  -32    6   19     -3.35      0.00
  -30    6   19     -5.41      0.00
  -28    6   19     -2.34      0.00
  -26    6   19     -0.82      0.00
  -24    6   19     -1.39      0.00
  -22    6   19      1.23      0.00
  -20    6   19     -6.62      0.00
  -18    6   19      0.73      0.00
  -16    6   19      0.99      0.00
  -14    6   19      2.91      0.00
  -12    6   19     -3.70      0.00
  -10    6   19    -11.56      0.00
   -8    6   19      0.65      0.00
   -6    6   19     -5.12      0.00
   -4    6   19     -1.26      0.00
   -2    6   19      8.34      0.00
    0    6   19      4.20      0.00
    2    6   19      8.85      0.00
    4    6   19      0.55      0.00
    6    6   19      0.59      0.00
    8    6   19      1.89      0.00
   10    6   19     -6.04      0.00
   12    6   19      4.03      0.00
   14    6   19      9.47      0.00
   16    6   19     -3.17      0.00
   18    6   19      4.77      0.00
   20    6   19     -3.90      0.00
   22    6   19      6.39      0.00
   24    6   19      6.48      0.00
  -37    7   19      6.87      0.00
  -35    7   19      2.65      0.00
  -33    7   19      5.57      0.00
  -31    7   19     -3.25      0.00
  -29    7   19     -8.35      0.00
  -27    7   19     -6.65      0.00
  -25    7   19     -4.09      0.00
  -23    7   19     -5.98      0.00
  -21    7   19     -2.04      0.00
  -19    7   19     -5.52      0.00
  -17    7   19     -1.37      0.00
  -15    7   19     -3.18      0.00
  -13    7   19     -3.04      0.00
  -11    7   19     -0.01      0.00
   -9    7   19      9.51      0.00
   -7    7   19      5.18      0.00
   -5    7   19     -0.93      0.00
   -3    7   19     -6.60      0.00
   -1    7   19      0.95      0.00
    1    7   19     -5.68      0.00
    3    7   19      4.49      0.00
    5    7   19      0.43      0.00
    7    7   19      4.69      0.00
    9    7   19     -4.54      0.00
   11    7   19     -7.04      0.00
   13    7   19     18.77      0.00
   15    7   19     12.26      0.00
   17    7   19      3.57      0.00
   19    7   19     -2.00      0.00
   21    7   19      2.75      0.00
   23    7   19     -4.33      0.00
  -36    8   19      3.37      0.00
  -34    8   19     -4.69      0.00
  -32    8   19     -6.07      0.00
  -30    8   19     -5.20      0.00
  -28    8   19     -1.14      0.00
  -26    8   19      1.08      0.00
  -24    8   19      5.41      0.00
  -22    8   19      3.05      0.00
  -20    8   19      3.97      0.00
  -18    8   19      5.71      0.00
  -16    8   19     -0.73      0.00
  -14    8   19      3.63      0.00
  -12    8   19      1.64      0.00
  -10    8   19     -0.36      0.00
   -8    8   19      2.64      0.00
   -6    8   19     -7.39      0.00
   -4    8   19     -4.11      0.00
   -2    8   19      1.84      0.00
    0    8   19      2.08      0.00
    2    8   19     13.23      0.00
    4    8   19      5.14      0.00
    6    8   19      3.37      0.00
    8    8   19      5.48      0.00
   10    8   19     17.75      0.00
   12    8   19      3.97      0.00
   14    8   19     -2.45      0.00
   16    8   19     14.49      0.00
   18    8   19     13.78      0.00
   20    8   19      1.00      0.00
   22    8   19     -8.17      0.00
  -35    9   19     -3.94      0.00
  -33    9   19     -8.27      0.00
  -31    9   19      0.54      0.00
  -29    9   19      0.41      0.00
  -27    9   19      0.00      0.00
  -25    9   19      2.10      0.00
  -23    9   19     -4.55      0.00
  -21    9   19     -8.40      0.00
  -19    9   19     -3.23      0.00
  -17    9   19     -5.49      0.00
  -15    9   19     -4.20      0.00
  -13    9   19     -2.50      0.00
  -11    9   19      7.10      0.00
   -9    9   19     -1.38      0.00
   -7    9   19      1.66      0.00
   -5    9   19    -11.86      0.00
   -3    9   19     -3.46      0.00
   -1    9   19     -3.05      0.00
    1    9   19     -4.14      0.00
    3    9   19      5.28      0.00
    5    9   19      2.65      0.00
    7    9   19     -3.42      0.00
    9    9   19      4.17      0.00
   11    9   19     17.58      0.00
   13    9   19      5.27      0.00
   15    9   19     -3.94      0.00
   17    9   19     -3.31      0.00
   19    9   19     -4.77      0.00
   21    9   19    -25.47      0.00
   23    9   19     -3.22      0.00
  -34   10   19      2.06      0.00
  -32   10   19      3.28      0.00
  -30   10   19    -14.06      0.00
  -28   10   19      1.20      0.00
  -26   10   19     -1.41      0.00
  -24   10   19      2.88      0.00
  -22   10   19     -3.63      0.00
  -20   10   19      4.44      0.00
  -18   10   19     -2.20      0.00
  -16   10   19      5.62      0.00
  -14   10   19     -5.63      0.00
  -12   10   19      7.85      0.00
  -10   10   19     -3.57      0.00
   -8   10   19      2.12      0.00
   -6   10   19      2.86      0.00
   -4   10   19      1.59      0.00
   -2   10   19     -1.31      0.00
    0   10   19      1.76      0.00
    2   10   19      7.23      0.00
    4   10   19      4.99      0.00
    6   10   19    -10.52      0.00
    8   10   19     15.63      0.00
   10   10   19      6.93      0.00
   12   10   19     10.88      0.00
   14   10   19     -1.49      0.00
   16   10   19     -1.25      0.00
   18   10   19      2.75      0.00
   20   10   19      0.79      0.00
   22   10   19      2.00      0.00
  -33   11   19      3.91      0.00
  -31   11   19      0.08      0.00
  -29   11   19     -0.21      0.00
  -27   11   19     -4.90      0.00
  -25   11   19     -2.89      0.00
  -23   11   19      1.73      0.00
  -21   11   19     -5.01      0.00
  -19   11   19     -0.66      0.00
  -17   11   19      3.74      0.00
  -15   11   19     -5.01      0.00
  -13   11   19     10.19      0.00
  -11   11   19     -1.32      0.00
   -9   11   19     10.02      0.00
   -7   11   19     -0.95      0.00
   -5   11   19     -2.69      0.00
   -3   11   19      2.41      0.00
   -1   11   19      4.41      0.00
    1   11   19     -4.25      0.00
    3   11   19     19.77      0.00
    5   11   19      2.72      0.00
    7   11   19      4.81      0.00
    9   11   19     -6.32      0.00
   11   11   19     -9.22      0.00
   13   11   19     -2.44      0.00
   15   11   19      6.37      0.00
   17   11   19      2.24      0.00
   19   11   19     -0.95      0.00
   21   11   19     -0.89      0.00
  -28   12   19     -5.60      0.00
  -26   12   19      0.94      0.00
  -24   12   19     -5.77      0.00
  -22   12   19     -1.43      0.00
  -20   12   19     -0.50      0.00
  -18   12   19      4.62      0.00
  -16   12   19     -5.06      0.00
  -14   12   19     -4.44      0.00
  -12   12   19    -11.09      0.00
  -10   12   19      2.03      0.00
   -8   12   19      5.40      0.00
   -6   12   19      8.72      0.00
   -4   12   19      0.88      0.00
   -2   12   19      5.76      0.00
    0   12   19     23.64      0.00
    2   12   19     -4.78      0.00
    4   12   19      3.47      0.00
    6   12   19      3.17      0.00
    8   12   19     -1.35      0.00
   10   12   19      6.54      0.00
   12   12   19      6.80      0.00
   14   12   19     -1.01      0.00
   16   12   19      4.38      0.00
   18   12   19     -8.02      0.00
   20   12   19     -4.47      0.00
  -27   13   19    -11.13      0.00
  -25   13   19      1.96      0.00
  -23   13   19      1.84      0.00
  -21   13   19      3.86      0.00
  -19   13   19      0.16      0.00
  -17   13   19     -3.86      0.00
  -15   13   19      3.27      0.00
  -13   13   19     -4.17      0.00
  -11   13   19      4.92      0.00
   -9   13   19     -3.40      0.00
   -7   13   19      5.35      0.00
   -5   13   19    -11.07      0.00
   -3   13   19    -11.61      0.00
   -1   13   19     -7.74      0.00
    1   13   19      6.19      0.00
    3   13   19     -4.53      0.00
    5   13   19     -8.21      0.00
    7   13   19     14.74      0.00
    9   13   19     -4.84      0.00
   11   13   19     -0.52      0.00
   13   13   19     -1.51      0.00
   15   13   19      0.64      0.00
   17   13   19     -8.97      0.00
   19   13   19      0.75      0.00
  -26   14   19     -1.63      0.00
  -24   14   19     -0.68      0.00
  -22   14   19      2.87      0.00
  -20   14   19      7.60      0.00
  -18   14   19     13.88      0.00
  -16   14   19      1.68      0.00
  -14   14   19     13.18      0.00
  -12   14   19      4.33      0.00
  -10   14   19      3.75      0.00
   -8   14   19     10.21      0.00
   -6   14   19     -5.98      0.00
   -4   14   19      2.89      0.00
   -2   14   19     17.72      0.00
    0   14   19     -7.64      0.00
    2   14   19     14.83      0.00
    4   14   19    -15.74      0.00
    6   14   19      7.92      0.00
    8   14   19     -0.50      0.00
   10   14   19      7.43      0.00
   12   14   19     -9.51      0.00
   14   14   19      6.96      0.00
   16   14   19    -14.72      0.00
  -25   15   19     -5.19      0.00
  -23   15   19      4.75      0.00
  -21   15   19     -2.17      0.00
  -19   15   19    -12.96      0.00
  -17   15   19      2.31      0.00
  -15   15   19     -3.45      0.00
  -13   15   19      3.93      0.00
  -11   15   19      1.37      0.00
   -9   15   19     -7.88      0.00
   -7   15   19      0.14      0.00
   -5   15   19     -5.87      0.00
   -3   15   19     -6.74      0.00
   -1   15   19     12.30      0.00
    1   15   19     -0.14      0.00
    3   15   19      6.87      0.00
    5   15   19      5.77      0.00
    7   15   19     -1.06      0.00
    9   15   19     -7.39      0.00
   11   15   19      7.85      0.00
   13   15   19     -6.78      0.00
  -24   16   19     -0.88      0.00
  -22   16   19      4.33      0.00
  -20   16   19      3.50      0.00
  -18   16   19     -5.98      0.00
  -16   16   19     -0.57      0.00
  -14   16   19      9.53      0.00
  -12   16   19      2.11      0.00
  -10   16   19      2.12      0.00
   -8   16   19     -4.04      0.00
   -6   16   19      4.23      0.00
   -4   16   19      6.89      0.00
   -2   16   19     -6.28      0.00
    0   16   19     21.99      0.00
    2   16   19      1.52      0.00
    4   16   19     -2.77      0.00
    6   16   19     -1.55      0.00
    8   16   19      3.01      0.00
   10   16   19     -5.50      0.00
  -21   17   19     -0.98      0.00
  -19   17   19     -7.87      0.00
  -17   17   19      7.10      0.00
  -15   17   19      1.69      0.00
  -13   17   19     -2.48      0.00
  -11   17   19     -1.61      0.00
   -9   17   19     -6.69      0.00
   -7   17   19    -11.21      0.00
   -5   17   19     -7.69      0.00
   -3   17   19    -13.28      0.00
   -1   17   19      8.73      0.00
    1   17   19     -1.92      0.00
    3   17   19     12.05      0.00
    7   17   19     -5.81      0.00
  -16   18   19     -5.26      0.00
  -14   18   19     -0.61      0.00
  -12   18   19     -2.52      0.00
  -10   18   19     -2.90      0.00
   -8   18   19      6.76      0.00
   -6   18   19     -5.07      0.00
   -4   18   19      5.47      0.00
   -2   18   19     -3.37      0.00
    0   18   19     -5.36      0.00
    2   18   19      1.70      0.00
    4   18   19     13.43      0.00
  -11   19   19      4.66      0.00
   -9   19   19     -1.42      0.00
   -7   19   19     12.10      0.00
   -5   19   19      1.77      0.00
   -3   19   19     -2.64      0.00
   -1   19   19      5.18      0.00
  -38    0   20     -1.27      0.00
  -36    0   20     -5.30      0.00
  -34    0   20     -4.62      0.00
  -32    0   20     -1.91      0.00
  -30    0   20     -6.01      0.00
  -28    0   20     -0.99      0.00
  -26    0   20      7.47      0.00
  -24    0   20     -2.25      0.00
  -22    0   20     -1.58      0.00
  -20    0   20     -2.39      0.00
  -18    0   20     -1.62      0.00
  -16    0   20    -17.12      0.00
  -14    0   20     -2.92      0.00
  -12    0   20      5.82      0.00
  -10    0   20    -14.46      0.00
   -8    0   20    -13.35      0.00
   -6    0   20    -14.82      0.00
   -4    0   20      5.78      0.00
   -2    0   20      8.29      0.00
    0    0   20      8.18      0.00
    2    0   20    -13.16      0.00
    4    0   20      7.45      0.00
    6    0   20      2.59      0.00
    8    0   20     -1.79      0.00
   10    0   20     18.83      0.00
   12    0   20    -16.91      0.00
   14    0   20    -25.70      0.00
   16    0   20    -71.10      0.00
   18    0   20      8.90      0.00
   20    0   20     -7.16      0.00
   22    0   20      1.40      0.00
   24    0   20      7.08      0.00
   26    0   20      9.02      0.00
  -39    1   20      3.67      0.00
  -37    1   20      5.13      0.00
  -35    1   20     13.46      0.00
  -33    1   20      1.46      0.00
  -31    1   20     -2.09      0.00
  -29    1   20      3.40      0.00
  -27    1   20    -10.89      0.00
  -25    1   20      0.50      0.00
  -23    1   20      0.97      0.00
  -21    1   20      0.36      0.00
  -19    1   20      2.26      0.00
  -17    1   20      0.86      0.00
  -15    1   20      5.02      0.00
  -13    1   20     -0.60      0.00
  -11    1   20      0.09      0.00
   -9    1   20     -5.29      0.00
   -7    1   20     -4.57      0.00
   -5    1   20     -3.12      0.00
   -3    1   20     -3.76      0.00
   -1    1   20      1.53      0.00
    1    1   20      7.02      0.00
    3    1   20      3.38      0.00
    5    1   20     -0.61      0.00
    7    1   20     -5.23      0.00
    9    1   20     10.31      0.00
   11    1   20     -7.63      0.00
   13    1   20     -6.79      0.00
   15    1   20      7.56      0.00
   17    1   20    -22.94      0.00
   19    1   20     15.75      0.00
   21    1   20      1.64      0.00
   23    1   20      7.03      0.00
   25    1   20      0.52      0.00
  -40    2   20      5.54      0.00
  -38    2   20     -2.34      0.00
  -36    2   20      3.14      0.00
  -34    2   20      2.90      0.00
  -32    2   20     -6.84      0.00
  -30    2   20     -1.90      0.00
  -28    2   20     -9.88      0.00
  -26    2   20      1.57      0.00
  -24    2   20      4.58      0.00
  -22    2   20     -7.85      0.00
  -20    2   20      5.06      0.00
  -18    2   20      3.49      0.00
  -16    2   20     -2.50      0.00
  -14    2   20     -1.71      0.00
  -12    2   20      0.40      0.00
  -10    2   20     -4.79      0.00
   -8    2   20      5.42      0.00
   -6    2   20     -5.75      0.00
   -4    2   20      9.30      0.00
   -2    2   20     -4.21      0.00
    0    2   20     10.29      0.00
    2    2   20    -14.20      0.00
    4    2   20      8.35      0.00
    6    2   20      9.49      0.00
    8    2   20     23.17      0.00
   10    2   20     15.12      0.00
   12    2   20      5.58      0.00
   14    2   20     12.99      0.00
   16    2   20     26.74      0.00
   18    2   20      6.44      0.00
   20    2   20     17.65      0.00
   22    2   20      6.00      0.00
   24    2   20    -12.59      0.00
   26    2   20     -0.74      0.00
  -39    3   20      5.94      0.00
  -37    3   20     -3.27      0.00
  -35    3   20     -2.33      0.00
  -33    3   20      7.21      0.00
  -31    3   20      6.02      0.00
  -29    3   20      3.90      0.00
  -27    3   20      1.41      0.00
  -25    3   20     -3.43      0.00
  -23    3   20      0.44      0.00
  -21    3   20    -10.99      0.00
  -19    3   20     -3.93      0.00
  -17    3   20     -6.19      0.00
  -15    3   20      3.06      0.00
  -13    3   20      8.95      0.00
  -11    3   20     14.33      0.00
   -9    3   20      3.40      0.00
   -7    3   20      2.41      0.00
   -5    3   20     -3.29      0.00
   -3    3   20     -2.37      0.00
   -1    3   20      4.75      0.00
    1    3   20      6.02      0.00
    3    3   20      3.01      0.00
    5    3   20     -4.81      0.00
    7    3   20     -2.73      0.00
    9    3   20      3.71      0.00
   11    3   20      4.62      0.00
   13    3   20      0.36      0.00
   15    3   20     17.92      0.00
   17    3   20    -46.14      0.00
   19    3   20     13.75      0.00
   21    3   20      7.12      0.00
   23    3   20      8.05      0.00
   25    3   20    -14.16      0.00
  -40    4   20      2.09      0.00
  -38    4   20     -4.58      0.00
  -36    4   20     -3.91      0.00
  -34    4   20      0.95      0.00
  -32    4   20     -4.40      0.00
  -30    4   20     -0.34      0.00
  -28    4   20      1.17      0.00
  -26    4   20     -4.16      0.00
  -24    4   20     -4.37      0.00
  -22    4   20      3.09      0.00
  -20    4   20      1.61      0.00
  -18    4   20     -4.26      0.00
  -16    4   20     -1.74      0.00
  -14    4   20     -8.96      0.00
  -12    4   20     -5.97      0.00
  -10    4   20     -6.45      0.00
   -8    4   20     -2.50      0.00
   -6    4   20      3.07      0.00
   -4    4   20      6.47      0.00
   -2    4   20     -6.32      0.00
    0    4   20      9.80      0.00
    2    4   20    -12.44      0.00
    4    4   20     -0.01      0.00
    6    4   20      8.33      0.00
    8    4   20      3.18      0.00
   10    4   20     -1.94      0.00
   12    4   20     10.88      0.00
   14    4   20     -5.56      0.00
   16    4   20     -9.22      0.00
   18    4   20    -12.95      0.00
   20    4   20     -5.76      0.00
   22    4   20    -10.61      0.00
   24    4   20     -1.19      0.00
  -39    5   20     -0.97      0.00
  -37    5   20      2.37      0.00
  -35    5   20     -0.37      0.00
  -33    5   20      6.34      0.00
  -31    5   20     -5.27      0.00
  -29    5   20      1.06      0.00
  -27    5   20     -2.48      0.00
  -25    5   20     -0.66      0.00
  -23    5   20      2.10      0.00
  -21    5   20     -3.27      0.00
  -19    5   20     -0.70      0.00
  -17    5   20      3.30      0.00
  -15    5   20     -4.50      0.00
  -13    5   20     -1.62      0.00
  -11    5   20      2.23      0.00
   -9    5   20      2.61      0.00
   -7    5   20      4.58      0.00
   -5    5   20     -2.30      0.00
   -3    5   20      4.28      0.00
   -1    5   20      3.75      0.00
    1    5   20      1.16      0.00
    3    5   20      1.28      0.00
    5    5   20      2.52      0.00
    7    5   20    -16.57      0.00
    9    5   20     10.56      0.00
   11    5   20      5.42      0.00
   13    5   20      1.94      0.00
   15    5   20     -3.16      0.00
   17    5   20     -2.42      0.00
   19    5   20      8.85      0.00
   21    5   20     -0.03      0.00
   23    5   20     -3.76      0.00
  -38    6   20     -7.64      0.00
  -36    6   20     -6.55      0.00
  -34    6   20      8.11      0.00
  -32    6   20     -3.63      0.00
  -30    6   20      5.97      0.00
  -28    6   20     -3.12      0.00
  -26    6   20     -7.61      0.00
  -24    6   20      4.75      0.00
  -22    6   20      0.44      0.00
  -20    6   20      0.52      0.00
  -18    6   20     -5.87      0.00
  -16    6   20     -2.37      0.00
  -14    6   20     -4.20      0.00
  -12    6   20     -9.94      0.00
  -10    6   20      3.66      0.00
   -8    6   20      0.26      0.00
   -6    6   20     -8.45      0.00
   -4    6   20    -10.20      0.00
   -2    6   20     -3.59      0.00
    0    6   20      9.46      0.00
    2    6   20     -1.92      0.00
    4    6   20     -2.98      0.00
    6    6   20      4.63      0.00
    8    6   20      5.95      0.00
   10    6   20    -13.45      0.00
   12    6   20     -3.33      0.00
   14    6   20     -5.70      0.00
   16    6   20      8.72      0.00
   18    6   20      2.69      0.00
   20    6   20      1.85      0.00
   22    6   20     12.76      0.00
  -37    7   20      5.89      0.00
  -35    7   20     -4.58      0.00
  -33    7   20     -1.79      0.00
  -31    7   20      2.97      0.00
  -29    7   20      4.13      0.00
  -27    7   20     -0.67      0.00
  -25    7   20      6.09      0.00
  -23    7   20      0.17      0.00
  -21    7   20      3.17      0.00
  -19    7   20     -2.31      0.00
  -17    7   20      0.77      0.00
  -15    7   20     -0.34      0.00
  -13    7   20      0.94      0.00
  -11    7   20     -2.87      0.00
   -9    7   20     -8.82      0.00
   -7    7   20      0.16      0.00
   -5    7   20      1.44      0.00
   -3    7   20      0.50      0.00
   -1    7   20     -0.45      0.00
    1    7   20     -1.85      0.00
    3    7   20      3.09      0.00
    5    7   20      5.59      0.00
    7    7   20     -3.06      0.00
    9    7   20      2.80      0.00
   11    7   20     -9.26      0.00
   13    7   20    -14.04      0.00
   15    7   20     11.53      0.00
   17    7   20      6.04      0.00
   19    7   20     -0.45      0.00
   21    7   20     -3.95      0.00
   23    7   20     -8.20      0.00
  -36    8   20     -2.23      0.00
  -34    8   20     -9.97      0.00
  -32    8   20     -1.04      0.00
  -30    8   20      9.50      0.00
  -28    8   20     -1.79      0.00
  -26    8   20      5.47      0.00
  -24    8   20      0.49      0.00
  -22    8   20      2.16      0.00
  -20    8   20     -2.62      0.00
  -18    8   20      7.42      0.00
  -16    8   20      0.59      0.00
  -14    8   20     -7.31      0.00
  -12    8   20      7.02      0.00
  -10    8   20     -2.27      0.00
   -8    8   20     -0.79      0.00
   -6    8   20      3.75      0.00
   -4    8   20     -1.18      0.00
   -2    8   20     -5.89      0.00
    0    8   20      3.14      0.00
    2    8   20     -1.91      0.00
    4    8   20      1.87      0.00
    6    8   20     -5.48      0.00
    8    8   20      4.96      0.00
   10    8   20     22.57      0.00
   12    8   20      0.47      0.00
   14    8   20      0.46      0.00
   16    8   20      0.70      0.00
   18    8   20      8.11      0.00
   20    8   20     -5.38      0.00
   22    8   20      5.95      0.00
  -35    9   20      7.67      0.00
  -33    9   20      5.01      0.00
  -31    9   20    -14.84      0.00
  -29    9   20      3.69      0.00
  -27    9   20     -9.76      0.00
  -25    9   20     -3.57      0.00
  -23    9   20     -4.45      0.00
  -21    9   20      4.78      0.00
  -19    9   20     -1.73      0.00
  -17    9   20     -4.45      0.00
  -15    9   20      7.27      0.00
  -13    9   20     11.41      0.00
  -11    9   20      4.45      0.00
   -9    9   20      4.99      0.00
   -7    9   20      0.13      0.00
   -5    9   20     -2.95      0.00
   -3    9   20      2.04      0.00
   -1    9   20      2.68      0.00
    1    9   20      1.07      0.00
    3    9   20     -1.80      0.00
    5    9   20      0.89      0.00
    7    9   20      7.79      0.00
    9    9   20     -6.08      0.00
   11    9   20      1.03      0.00
   13    9   20     -5.32      0.00
   15    9   20     -8.13      0.00
   17    9   20     -7.39      0.00
   19    9   20     -0.73      0.00
   21    9   20      9.04      0.00
  -34   10   20      3.46      0.00
  -32   10   20      5.61      0.00
  -30   10   20     -9.54      0.00
  -28   10   20     -3.06      0.00
  -26   10   20     -6.02      0.00
  -24   10   20     -1.09      0.00
  -22   10   20     -2.12      0.00
  -20   10   20      4.30      0.00
  -18   10   20      8.43      0.00
  -16   10   20     -1.53      0.00
  -14   10   20      0.11      0.00
  -12   10   20     -2.13      0.00
  -10   10   20      4.93      0.00
   -8   10   20     -1.14      0.00
   -6   10   20      2.81      0.00
   -4   10   20     -1.77      0.00
   -2   10   20     -1.74      0.00
    0   10   20     -1.87      0.00
    2   10   20      0.66      0.00
    4   10   20     -8.90      0.00
    6   10   20      5.97      0.00
    8   10   20      9.16      0.00
   10   10   20     -0.59      0.00
   12   10   20     -3.92      0.00
   14   10   20     -0.66      0.00
   16   10   20      1.93      0.00
   18   10   20     -3.55      0.00
   20   10   20      9.78      0.00
  -31   11   20      9.13      0.00
  -29   11   20     -0.67      0.00
  -27   11   20     -7.46      0.00
  -25   11   20     -3.82      0.00
  -23   11   20      5.28      0.00
  -21   11   20     13.75      0.00
  -19   11   20      4.82      0.00
  -17   11   20     -0.65      0.00
  -15   11   20      1.63      0.00
  -13   11   20     -9.01      0.00
  -11   11   20      3.46      0.00
   -9   11   20      4.24      0.00
   -7   11   20     -4.13      0.00
   -5   11   20     -4.26      0.00
   -3   11   20     -1.12      0.00
   -1   11   20      3.81      0.00
    1   11   20     -8.79      0.00
    3   11   20      3.24      0.00
    5   11   20      8.68      0.00
    9   11   20      3.03      0.00
   11   11   20     14.58      0.00
   13   11   20      8.18      0.00
   15   11   20     -9.63      0.00
   17   11   20    -19.94      0.00
   19   11   20     -9.76      0.00
  -28   12   20     -8.73      0.00
  -26   12   20     -2.03      0.00
  -24   12   20     -0.42      0.00
  -22   12   20      7.87      0.00
  -20   12   20      1.27      0.00
  -18   12   20      6.50      0.00
  -16   12   20      6.55      0.00
  -14   12   20      0.80      0.00
  -12   12   20     -0.56      0.00
  -10   12   20     -4.64      0.00
   -8   12   20    -11.42      0.00
   -6   12   20     -9.21      0.00
   -4   12   20     -6.67      0.00
   -2   12   20      0.64      0.00
    0   12   20     18.18      0.00
    2   12   20    -13.08      0.00
    4   12   20    -20.34      0.00
    6   12   20     15.60      0.00
    8   12   20      1.56      0.00
   10   12   20      3.41      0.00
   12   12   20      0.85      0.00
   14   12   20      0.53      0.00
   16   12   20      1.16      0.00
   18   12   20     -6.30      0.00
  -27   13   20     -3.24      0.00
  -25   13   20     -3.35      0.00
  -23   13   20     -8.28      0.00
  -21   13   20      2.58      0.00
  -19   13   20     -0.42      0.00
  -17   13   20     -2.97      0.00
  -15   13   20      0.21      0.00
  -13   13   20     -4.29      0.00
  -11   13   20      0.46      0.00
   -9   13   20     11.24      0.00
   -7   13   20      4.53      0.00
   -5   13   20     -6.66      0.00
   -3   13   20      7.00      0.00
   -1   13   20     -2.16      0.00
    1   13   20     -0.82      0.00
    3   13   20      3.83      0.00
    5   13   20     -8.39      0.00
    7   13   20     -9.17      0.00
    9   13   20     -2.72      0.00
   11   13   20     -3.42      0.00
   13   13   20     -0.68      0.00
   15   13   20    -15.10      0.00
   17   13   20     -8.03      0.00
  -26   14   20      2.00      0.00
  -24   14   20      2.33      0.00
  -22   14   20      5.71      0.00
  -20   14   20     -7.98      0.00
  -18   14   20      4.89      0.00
  -16   14   20     -2.02      0.00
  -14   14   20      4.04      0.00
  -12   14   20      1.50      0.00
  -10   14   20      1.60      0.00
   -8   14   20     -3.79      0.00
   -6   14   20      7.77      0.00
   -4   14   20     -2.20      0.00
   -2   14   20      6.75      0.00
    0   14   20      1.63      0.00
    2   14   20      7.59      0.00
    4   14   20     -3.01      0.00
    6   14   20    -14.53      0.00
    8   14   20     -3.31      0.00
   10   14   20      6.42      0.00
   12   14   20     -7.03      0.00
   14   14   20     -2.75      0.00
  -25   15   20      2.91      0.00
  -23   15   20      7.89      0.00
  -21   15   20      3.60      0.00
  -19   15   20      4.83      0.00
  -17   15   20     -1.45      0.00
  -15   15   20      5.55      0.00
  -13   15   20      0.14      0.00
  -11   15   20     -0.77      0.00
   -9   15   20     -2.97      0.00
   -7   15   20      8.17      0.00
   -5   15   20      1.09      0.00
   -3   15   20     -0.41      0.00
   -1   15   20     18.95      0.00
    1   15   20      6.49      0.00
    3   15   20      6.10      0.00
    5   15   20      5.17      0.00
    7   15   20     11.77      0.00
    9   15   20     -8.05      0.00
   11   15   20     -5.48      0.00
   13   15   20     -1.91      0.00
  -22   16   20      0.08      0.00
  -20   16   20      6.11      0.00
  -18   16   20      4.36      0.00
  -16   16   20      4.68      0.00
  -14   16   20     -2.32      0.00
  -12   16   20      4.09      0.00
  -10   16   20      6.24      0.00
   -8   16   20     -1.53      0.00
   -6   16   20      2.92      0.00
   -4   16   20     -1.72      0.00
   -2   16   20     -4.00      0.00
    0   16   20     -2.87      0.00
    2   16   20     -0.45      0.00
    4   16   20      0.42      0.00
    6   16   20    -12.06      0.00
    8   16   20     -1.19      0.00
  -19   17   20     -1.43      0.00
  -17   17   20      3.29      0.00
  -15   17   20    -10.60      0.00
  -13   17   20     -4.39      0.00
  -11   17   20     -4.99      0.00
   -9   17   20     -0.80      0.00
   -7   17   20      4.61      0.00
   -5   17   20      7.03      0.00
   -3   17   20      6.74      0.00
   -1   17   20     -2.37      0.00
    1   17   20      3.17      0.00
    3   17   20      3.87      0.00
    5   17   20     -5.29      0.00
    7   17   20      3.09      0.00
  -16   18   20     -6.97      0.00
  -14   18   20     11.74      0.00
  -12   18   20      0.39      0.00
  -10   18   20      4.81      0.00
   -8   18   20      1.46      0.00
   -6   18   20      0.24      0.00
   -4   18   20      0.09      0.00
   -2   18   20     -0.85      0.00
    0   18   20     -6.58      0.00
    2   18   20      5.46      0.00
  -39    1   21    -10.42      0.00
  -37    1   21     -2.00      0.00
  -35    1   21      0.53      0.00
  -33    1   21      0.14      0.00
  -31    1   21     -1.68      0.00
  -29    1   21     -0.97      0.00
  -27    1   21     -1.97      0.00
  -25    1   21     -1.15      0.00
  -23    1   21     -0.91      0.00
  -21    1   21     -0.15      0.00
  -19    1   21      1.64      0.00
  -17    1   21      2.03      0.00
  -15    1   21      7.46      0.00
  -13    1   21     -1.95      0.00
  -11    1   21      1.33      0.00
   -9    1   21      1.89      0.00
   -7    1   21      1.70      0.00
   -5    1   21      1.72      0.00
   -3    1   21     -3.72      0.00
   -1    1   21      4.54      0.00
    1    1   21      1.57      0.00
    3    1   21     -0.68      0.00
    5    1   21     -0.45      0.00
    7    1   21      9.56      0.00
    9    1   21     -9.07      0.00
   11    1   21      5.73      0.00
   13    1   21      1.08      0.00
   15    1   21     27.52      0.00
   17    1   21     -0.86      0.00
   19    1   21      5.61      0.00
   21    1   21      6.03      0.00
   23    1   21     -3.18      0.00
   25    1   21     -1.56      0.00
  -38    2   21      4.15      0.00
  -36    2   21     -4.38      0.00
  -34    2   21     -3.85      0.00
  -32    2   21     -1.49      0.00
  -30    2   21     -3.53      0.00
  -28    2   21      0.71      0.00
  -26    2   21      0.70      0.00
  -24    2   21      6.18      0.00
  -22    2   21      0.06      0.00
  -20    2   21      5.65      0.00
  -18    2   21     -5.36      0.00
  -16    2   21     -3.67      0.00
  -14    2   21     -5.86      0.00
  -12    2   21      1.89      0.00
  -10    2   21      3.64      0.00
   -8    2   21      0.87      0.00
   -6    2   21     -4.59      0.00
   -4    2   21     -1.16      0.00
   -2    2   21      1.33      0.00
    0    2   21      1.10      0.00
    2    2   21      0.40      0.00
    4    2   21      1.22      0.00
    6    2   21     -3.72      0.00
    8    2   21     -2.93      0.00
   10    2   21     11.14      0.00
   12    2   21      6.68      0.00
   14    2   21     15.10      0.00
   16    2   21     -8.14      0.00
   18    2   21     -4.84      0.00
   20    2   21      3.39      0.00
   22    2   21    -12.89      0.00
   24    2   21     -0.17      0.00
  -39    3   21     -2.65      0.00
  -37    3   21      2.79      0.00
  -35    3   21      2.52      0.00
  -33    3   21      6.79      0.00
  -31    3   21     -1.80      0.00
  -29    3   21     -0.50      0.00
  -27    3   21     -4.06      0.00
  -25    3   21      0.62      0.00
  -23    3   21      0.40      0.00
  -21    3   21     -2.56      0.00
  -19    3   21     -6.64      0.00
  -17    3   21     -1.31      0.00
  -15    3   21     -1.69      0.00
  -13    3   21      5.18      0.00
  -11    3   21     -2.27      0.00
   -9    3   21     -3.74      0.00
   -7    3   21      4.67      0.00
   -5    3   21     -3.83      0.00
   -3    3   21     -2.85      0.00
   -1    3   21     -2.70      0.00
    1    3   21      3.39      0.00
    3    3   21      7.23      0.00
    5    3   21      0.13      0.00
    7    3   21     -1.06      0.00
    9    3   21    -15.74      0.00
   11    3   21      1.65      0.00
   13    3   21     -6.28      0.00
   15    3   21    -17.51      0.00
   17    3   21     -7.72      0.00
   19    3   21     -8.93      0.00
   21    3   21      7.24      0.00
   23    3   21     -6.20      0.00
  -38    4   21      2.47      0.00
  -36    4   21      9.35      0.00
  -34    4   21      0.01      0.00
  -32    4   21     -1.70      0.00
  -30    4   21      4.18      0.00
  -28    4   21     -7.54      0.00
  -26    4   21      0.33      0.00
  -24    4   21     -1.88      0.00
  -22    4   21     12.15      0.00
  -20    4   21     -7.02      0.00
  -18    4   21      0.41      0.00
  -16    4   21      2.10      0.00
  -14    4   21     -0.06      0.00
  -12    4   21     -4.97      0.00
  -10    4   21     -2.91      0.00
   -8    4   21      2.08      0.00
   -6    4   21     -0.37      0.00
   -4    4   21      1.62      0.00
   -2    4   21      8.29      0.00
    0    4   21      3.16      0.00
    2    4   21      4.78      0.00
    4    4   21     -4.37      0.00
    6    4   21     -7.51      0.00
    8    4   21     -4.77      0.00
   10    4   21    -12.91      0.00
   12    4   21      3.29      0.00
   14    4   21     -5.61      0.00
   16    4   21      7.48      0.00
   18    4   21     -1.27      0.00
   20    4   21     -8.57      0.00
   22    4   21      1.84      0.00
   24    4   21     -1.65      0.00
  -39    5   21     -3.01      0.00
  -37    5   21      1.81      0.00
  -35    5   21     -0.88      0.00
  -33    5   21     -3.57      0.00
  -31    5   21     -1.01      0.00
  -29    5   21      0.67      0.00
  -27    5   21     -2.80      0.00
  -25    5   21      1.82      0.00
  -23    5   21     -3.30      0.00
  -21    5   21     -1.33      0.00
  -19    5   21     -1.90      0.00
  -17    5   21     -6.02      0.00
  -15    5   21     -1.25      0.00
  -13    5   21     -0.57      0.00
  -11    5   21      0.60      0.00
   -9    5   21      1.20      0.00
   -7    5   21      0.33      0.00
   -5    5   21    -10.42      0.00
   -3    5   21     -5.74      0.00
   -1    5   21      4.05      0.00
    1    5   21     -0.45      0.00
    3    5   21      5.57      0.00
    5    5   21     -3.18      0.00
    7    5   21      0.15      0.00
    9    5   21     13.82      0.00
   11    5   21     -5.30      0.00
   13    5   21      6.52      0.00
   15    5   21     -0.16      0.00
   17    5   21      6.15      0.00
   19    5   21      9.34      0.00
   21    5   21      8.49      0.00
   23    5   21     -6.84      0.00
  -38    6   21      2.15      0.00
  -36    6   21     -3.10      0.00
  -34    6   21     -0.80      0.00
  -32    6   21      4.84      0.00
  -30    6   21     -1.73      0.00
  -28    6   21      2.28      0.00
  -26    6   21      2.96      0.00
  -24    6   21      5.04      0.00
  -22    6   21      2.37      0.00
  -20    6   21      1.34      0.00
  -18    6   21     -1.84      0.00
  -16    6   21      5.28      0.00
  -14    6   21      3.69      0.00
  -12    6   21     -2.72      0.00
  -10    6   21     -7.62      0.00
   -8    6   21      3.96      0.00
   -6    6   21     -9.79      0.00
   -4    6   21      5.03      0.00
   -2    6   21      5.40      0.00
    0    6   21      8.33      0.00
    2    6   21      4.17      0.00
    4    6   21     -4.74      0.00
    6    6   21     -2.43      0.00
    8    6   21      0.04      0.00
   10    6   21    -12.30      0.00
   12    6   21     -1.39      0.00
   14    6   21     10.10      0.00
   16    6   21     15.24      0.00
   18    6   21     -5.52      0.00
   20    6   21     -2.77      0.00
   22    6   21     -0.16      0.00
  -37    7   21      8.72      0.00
  -35    7   21     -0.96      0.00
  -33    7   21     -4.43      0.00
  -31    7   21      3.50      0.00
  -29    7   21     -4.87      0.00
  -27    7   21      5.12      0.00
  -25    7   21     -3.33      0.00
  -23    7   21     -2.00      0.00
  -21    7   21     -0.47      0.00
  -19    7   21     -9.40      0.00
  -17    7   21     -2.58      0.00
  -15    7   21     -5.21      0.00
  -13    7   21      7.29      0.00
  -11    7   21      4.93      0.00
   -9    7   21     -5.55      0.00
   -7    7   21     15.34      0.00
   -5    7   21      5.54      0.00
   -3    7   21     -8.77      0.00
   -1    7   21     -2.68      0.00
    1    7   21     -4.02      0.00
    3    7   21     11.38      0.00
    5    7   21     -1.72      0.00
    7    7   21     -4.88      0.00
    9    7   21      9.82      0.00
   11    7   21      5.48      0.00
   13    7   21      3.49      0.00
   15    7   21     -0.29      0.00
   17    7   21     -4.40      0.00
   19    7   21      5.65      0.00
   21    7   21     -0.27      0.00
  -36    8   21      1.47      0.00
  -34    8   21      4.08      0.00
  -32    8   21     -7.83      0.00
  -30    8   21      1.88      0.00
  -28    8   21      0.93      0.00
  -26    8   21     -0.66      0.00
  -24    8   21     -2.91      0.00
  -22    8   21      1.90      0.00
  -20    8   21      5.11      0.00
  -18    8   21     -1.03      0.00
  -16    8   21      4.29      0.00
  -14    8   21      9.37      0.00
  -12    8   21     10.43      0.00
  -10    8   21     11.23      0.00
   -8    8   21      8.41      0.00
   -6    8   21     -0.62      0.00
   -4    8   21      0.19      0.00
   -2    8   21     -0.70      0.00
    0    8   21      6.58      0.00
    2    8   21     -5.51      0.00
    4    8   21      5.85      0.00
    6    8   21      6.93      0.00
    8    8   21     -5.41      0.00
   10    8   21      0.02      0.00
   12    8   21     -8.45      0.00
   14    8   21     -2.95      0.00
   16    8   21     -2.03      0.00
   18    8   21      0.05      0.00
   20    8   21      2.91      0.00
  -35    9   21      4.37      0.00
  -33    9   21      1.68      0.00
  -31    9   21     -8.95      0.00
  -29    9   21      3.55      0.00
  -27    9   21      1.61      0.00
  -25    9   21     -1.62      0.00
  -23    9   21     -3.29      0.00
  -21    9   21      4.18      0.00
  -19    9   21     -3.03      0.00
  -17    9   21     -6.00      0.00
  -15    9   21      2.11      0.00
  -13    9   21     -4.27      0.00
  -11    9   21      4.67      0.00
   -9    9   21      2.60      0.00
   -7    9   21     -3.56      0.00
   -5    9   21      3.59      0.00
   -3    9   21     -1.19      0.00
   -1    9   21     -9.88      0.00
    1    9   21     -6.19      0.00
    3    9   21      3.26      0.00
    5    9   21     -5.32      0.00
    7    9   21      7.83      0.00
    9    9   21     -2.21      0.00
   11    9   21      5.68      0.00
   13    9   21     10.64      0.00
   15    9   21     -2.35      0.00
   17    9   21    -10.40      0.00
   19    9   21    -11.07      0.00
  -34   10   21     -2.21      0.00
  -32   10   21      9.60      0.00
  -30   10   21      0.82      0.00
  -28   10   21     -0.58      0.00
  -26   10   21      0.87      0.00
  -24   10   21      2.18      0.00
  -22   10   21      6.07      0.00
  -20   10   21      0.68      0.00
  -18   10   21      7.34      0.00
  -16   10   21      6.87      0.00
  -14   10   21     -5.45      0.00
  -12   10   21      4.87      0.00
  -10   10   21      1.24      0.00
   -8   10   21     -3.68      0.00
   -6   10   21      6.77      0.00
   -4   10   21    -11.98      0.00
   -2   10   21     -6.27      0.00
    0   10   21     -3.51      0.00
    2   10   21     -2.64      0.00
    4   10   21      5.06      0.00
    6   10   21    -13.43      0.00
    8   10   21     -0.60      0.00
   10   10   21      4.22      0.00
   12   10   21     12.42      0.00
   14   10   21     -3.45      0.00
   16   10   21     -4.59      0.00
   18   10   21     -3.94      0.00
   20   10   21     -2.08      0.00
  -31   11   21      8.99      0.00
  -29   11   21     -0.70      0.00
  -27   11   21     -1.78      0.00
  -25   11   21      0.31      0.00
  -23   11   21      7.62      0.00
  -21   11   21     -5.83      0.00
  -19   11   21      3.13      0.00
  -17   11   21     -1.05      0.00
  -15   11   21     -1.23      0.00
  -13   11   21     -4.95      0.00
  -11   11   21      0.76      0.00
   -9   11   21      3.51      0.00
   -7   11   21      4.08      0.00
   -5   11   21      4.93      0.00
   -3   11   21     -0.22      0.00
   -1   11   21     -1.73      0.00
    1   11   21     -2.91      0.00
    3   11   21     -2.18      0.00
    5   11   21      3.13      0.00
    7   11   21    -12.87      0.00
    9   11   21      2.44      0.00
   11   11   21      1.46      0.00
   13   11   21      4.03      0.00
   15   11   21      8.71      0.00
   17   11   21     -4.39      0.00
   19   11   21      1.84      0.00
  -28   12   21      8.46      0.00
  -26   12   21      0.09      0.00
  -24   12   21     -2.17      0.00
  -22   12   21     -2.40      0.00
  -20   12   21     -3.54      0.00
  -18   12   21     -0.13      0.00
  -16   12   21      4.72      0.00
  -14   12   21      2.08      0.00
  -12   12   21      1.75      0.00
  -10   12   21      1.92      0.00
   -8   12   21      7.69      0.00
   -6   12   21     -1.90      0.00
   -4   12   21     -5.29      0.00
   -2   12   21     10.23      0.00
    0   12   21      4.82      0.00
    2   12   21      0.84      0.00
    4   12   21    -15.22      0.00
    6   12   21     -3.13      0.00
    8   12   21      6.30      0.00
   10   12   21     -1.40      0.00
   12   12   21     -1.61      0.00
   14   12   21      7.50      0.00
   16   12   21     -4.57      0.00
  -27   13   21      0.44      0.00
  -25   13   21      8.58      0.00
  -23   13   21      6.41      0.00
  -21   13   21      3.38      0.00
  -19   13   21     -3.30      0.00
  -17   13   21     10.94      0.00
  -15   13   21     -1.30      0.00
  -13   13   21      5.84      0.00
  -11   13   21     -2.74      0.00
   -9   13   21     14.09      0.00
   -7   13   21     11.60      0.00
   -5   13   21     -7.46      0.00
   -3   13   21     -5.58      0.00
   -1   13   21     -4.20      0.00
    1   13   21     10.95      0.00
    3   13   21      4.39      0.00
    5   13   21    -21.47      0.00
    7   13   21     -4.64      0.00
    9   13   21     -0.23      0.00
   11   13   21      1.79      0.00
   13   13   21     -2.99      0.00
   15   13   21      8.57      0.00
  -26   14   21      3.47      0.00
  -24   14   21      6.90      0.00
  -22   14   21      3.80      0.00
  -20   14   21     11.12      0.00
  -18   14   21      4.43      0.00
  -16   14   21     -0.60      0.00
  -14   14   21      9.79      0.00
  -12   14   21      4.86      0.00
  -10   14   21      5.84      0.00
   -8   14   21     -1.59      0.00
   -6   14   21     12.63      0.00
   -4   14   21      7.66      0.00
   -2   14   21     -6.41      0.00
    0   14   21      5.77      0.00
    2   14   21     -7.43      0.00
    4   14   21      6.14      0.00
    6   14   21      7.78      0.00
    8   14   21     11.83      0.00
   10   14   21     -5.77      0.00
   12   14   21      4.66      0.00
   14   14   21      7.00      0.00
  -25   15   21     -0.72      0.00
  -23   15   21      4.01      0.00
  -21   15   21      4.20      0.00
  -19   15   21      2.03      0.00
  -17   15   21      5.70      0.00
  -15   15   21     -8.74      0.00
  -13   15   21     -3.06      0.00
  -11   15   21     -4.56      0.00
   -9   15   21     -4.30      0.00
   -7   15   21      3.17      0.00
   -5   15   21     -3.64      0.00
   -3   15   21      4.62      0.00
   -1   15   21      3.60      0.00
    1   15   21    -12.25      0.00
    3   15   21      1.27      0.00
    5   15   21    -16.16      0.00
    7   15   21      5.29      0.00
    9   15   21      0.58      0.00
   11   15   21     13.64      0.00
  -22   16   21      4.01      0.00
  -20   16   21     -2.39      0.00
  -18   16   21     -0.38      0.00
  -16   16   21      1.91      0.00
  -14   16   21     -0.27      0.00
  -12   16   21      6.15      0.00
  -10   16   21     -5.23      0.00
   -8   16   21     -0.70      0.00
   -6   16   21      3.57      0.00
   -4   16   21     -3.37      0.00
   -2   16   21    -10.41      0.00
    0   16   21      3.22      0.00
    2   16   21     -7.98      0.00
    4   16   21    -11.98      0.00
    6   16   21      5.74      0.00
  -19   17   21     -1.53      0.00
  -17   17   21     -6.12      0.00
  -15   17   21      1.95      0.00
  -13   17   21     -2.21      0.00
  -11   17   21      1.11      0.00
   -9   17   21     -7.87      0.00
   -7   17   21     -9.66      0.00
   -5   17   21     -2.85      0.00
   -3   17   21     -1.65      0.00
   -1   17   21     -2.80      0.00
    1   17   21     -0.32      0.00
    3   17   21     -7.75      0.00
    5   17   21      5.31      0.00
  -14   18   21     -3.62      0.00
  -12   18   21      0.99      0.00
  -10   18   21      3.25      0.00
   -8   18   21      8.12      0.00
   -6   18   21     -0.34      0.00
   -4   18   21    -10.38      0.00
   -2   18   21     -2.85      0.00
    0   18   21      1.64      0.00
  -38    0   22     -0.83      0.00
  -36    0   22     -5.90      0.00
  -34    0   22      3.55      0.00
  -32    0   22     -0.26      0.00
  -30    0   22     -6.81      0.00
  -28    0   22      8.57      0.00
  -26    0   22      4.48      0.00
  -24    0   22      0.57      0.00
  -22    0   22      3.24      0.00
  -20    0   22      7.81      0.00
  -18    0   22     -7.49      0.00
  -16    0   22     -2.66      0.00
  -14    0   22     -6.09      0.00
  -12    0   22      8.67      0.00
  -10    0   22     -3.43      0.00
   -8    0   22     -3.16      0.00
   -6    0   22    -10.19      0.00
   -4    0   22      5.13      0.00
   -2    0   22      3.69      0.00
    0    0   22     10.48      0.00
    2    0   22      4.48      0.00
    4    0   22      8.55      0.00
    6    0   22    -15.85      0.00
    8    0   22    -10.21      0.00
   10    0   22      9.03      0.00
   12    0   22      6.48      0.00
   14    0   22      9.73      0.00
   16    0   22     15.41      0.00
   18    0   22    -14.53      0.00
   20    0   22      2.27      0.00
   22    0   22     -4.62      0.00
  -39    1   22     -2.59      0.00
  -37    1   22     -1.84      0.00
  -35    1   22     -0.40      0.00
  -33    1   22     -7.95      0.00
  -31    1   22     -3.01      0.00
  -29    1   22     -0.16      0.00
  -27    1   22    -10.15      0.00
  -25    1   22      5.44      0.00
  -23    1   22     -0.71      0.00
  -21    1   22     -1.14      0.00
  -19    1   22      5.02      0.00
  -17    1   22      2.08      0.00
  -15    1   22     -2.97      0.00
  -13    1   22     -6.13      0.00
  -11    1   22      1.24      0.00
   -9    1   22     -4.11      0.00
   -7    1   22      2.91      0.00
   -5    1   22     -2.70      0.00
   -3    1   22      0.24      0.00
   -1    1   22     -2.01      0.00
    1    1   22      3.45      0.00
    3    1   22     -4.07      0.00
    5    1   22      7.61      0.00
    7    1   22     -0.20      0.00
    9    1   22      0.04      0.00
   11    1   22      4.46      0.00
   13    1   22     -3.57      0.00
   15    1   22     18.62      0.00
   17    1   22     -9.33      0.00
   19    1   22      9.19      0.00
   21    1   22     -4.81      0.00
  -38    2   22      4.05      0.00
  -36    2   22      3.42      0.00
  -34    2   22      7.42      0.00
  -32    2   22     -0.12      0.00
  -30    2   22     -0.90      0.00
  -28    2   22     -3.09      0.00
  -26    2   22      2.33      0.00
  -24    2   22      9.80      0.00
  -22    2   22      6.83      0.00
  -20    2   22      0.44      0.00
  -18    2   22     15.56      0.00
  -16    2   22     -6.76      0.00
  -14    2   22      4.63      0.00
  -12    2   22     -1.09      0.00
  -10    2   22      5.21      0.00
   -8    2   22      2.38      0.00
   -6    2   22      1.14      0.00
   -4    2   22      3.47      0.00
   -2    2   22     -6.20      0.00
    0    2   22      5.06      0.00
    2    2   22      3.87      0.00
    4    2   22      8.03      0.00
    6    2   22      2.07      0.00
    8    2   22     -5.05      0.00
   10    2   22      9.01      0.00
   12    2   22     -3.26      0.00
   14    2   22     -6.31      0.00
   16    2   22     14.77      0.00
   18    2   22     -6.97      0.00
   20    2   22      9.75      0.00
   22    2   22      3.11      0.00
   24    2   22      2.30      0.00
  -39    3   22      1.10      0.00
  -37    3   22      0.01      0.00
  -35    3   22     -3.39      0.00
  -33    3   22      4.54      0.00
  -31    3   22     -0.70      0.00
  -29    3   22     -4.50      0.00
  -27    3   22     -4.89      0.00
  -25    3   22     -8.81      0.00
  -23    3   22      1.07      0.00
  -21    3   22     -6.82      0.00
  -19    3   22     -2.42      0.00
  -17    3   22     -4.89      0.00
  -15    3   22      6.20      0.00
  -13    3   22      2.11      0.00
  -11    3   22     -0.20      0.00
   -9    3   22     -4.58      0.00
   -7    3   22      2.87      0.00
   -5    3   22     -9.50      0.00
   -3    3   22      6.10      0.00
   -1    3   22      0.07      0.00
    1    3   22     12.47      0.00
    3    3   22     -4.90      0.00
    5    3   22      1.65      0.00
    7    3   22      1.93      0.00
    9    3   22      4.00      0.00
   11    3   22      5.57      0.00
   13    3   22     -6.22      0.00
   15    3   22     -4.05      0.00
   17    3   22    -10.51      0.00
   19    3   22      7.30      0.00
   21    3   22     12.02      0.00
   23    3   22      1.51      0.00
  -38    4   22     -4.52      0.00
  -36    4   22     -1.43      0.00
  -34    4   22     -7.57      0.00
  -32    4   22     -1.31      0.00
  -30    4   22      2.86      0.00
  -28    4   22     -2.13      0.00
  -26    4   22     -7.72      0.00
  -24    4   22     -0.07      0.00
  -22    4   22      4.29      0.00
  -20    4   22     -1.21      0.00
  -18    4   22     -2.73      0.00
  -16    4   22      1.71      0.00
  -14    4   22     -2.23      0.00
  -12    4   22     -4.12      0.00
  -10    4   22      2.83      0.00
   -8    4   22      5.95      0.00
   -6    4   22      0.92      0.00
   -4    4   22     -2.29      0.00
   -2    4   22     -1.89      0.00
    0    4   22      7.11      0.00
    2    4   22      0.32      0.00
    4    4   22      7.76      0.00
    6    4   22     -0.11      0.00
    8    4   22      4.39      0.00
   10    4   22     -7.21      0.00
   12    4   22      2.45      0.00
   14    4   22     -4.62      0.00
   16    4   22     11.86      0.00
   18    4   22     -8.13      0.00
   20    4   22      6.02      0.00
   22    4   22     -0.72      0.00
  -37    5   22     -6.32      0.00
  -35    5   22      0.27      0.00
  -33    5   22     10.01      0.00
  -31    5   22    -10.84      0.00
  -29    5   22      2.74      0.00
  -27    5   22     -2.66      0.00
  -25    5   22     -1.52      0.00
  -23    5   22     -5.75      0.00
  -21    5   22      0.02      0.00
  -19    5   22     -2.96      0.00
  -17    5   22     -2.49      0.00
  -15    5   22     -2.46      0.00
  -13    5   22      1.77      0.00
  -11    5   22     -4.43      0.00
   -9    5   22     -3.11      0.00
   -7    5   22     -6.28      0.00
   -5    5   22      2.95      0.00
   -3    5   22     -0.06      0.00
   -1    5   22      2.96      0.00
    1    5   22      1.21      0.00
    3    5   22     -0.84      0.00
    5    5   22     -5.09      0.00
    7    5   22      7.50      0.00
    9    5   22      7.41      0.00
   11    5   22     -3.78      0.00
   13    5   22      3.09      0.00
   15    5   22      8.29      0.00
   17    5   22      0.17      0.00
   19    5   22     18.15      0.00
   21    5   22     -3.90      0.00
  -38    6   22     -5.30      0.00
  -36    6   22      1.75      0.00
  -34    6   22      0.58      0.00
  -32    6   22      3.99      0.00
  -30    6   22      5.00      0.00
  -28    6   22      2.59      0.00
  -26    6   22     -0.32      0.00
  -24    6   22     -1.13      0.00
  -22    6   22     -0.92      0.00
  -20    6   22     -5.76      0.00
  -18    6   22     -4.27      0.00
  -16    6   22      7.56      0.00
  -14    6   22      0.07      0.00
  -12    6   22      3.79      0.00
  -10    6   22     -4.02      0.00
   -8    6   22     -1.44      0.00
   -6    6   22      0.54      0.00
   -4    6   22     -8.45      0.00
   -2    6   22     -4.48      0.00
    0    6   22      6.70      0.00
    2    6   22      1.85      0.00
    4    6   22     -1.47      0.00
    6    6   22      0.39      0.00
    8    6   22     -4.16      0.00
   10    6   22      6.60      0.00
   12    6   22     -7.71      0.00
   14    6   22     -2.59      0.00
   16    6   22     -8.68      0.00
   18    6   22     -1.20      0.00
   20    6   22      8.74      0.00
  -37    7   22      3.68      0.00
  -35    7   22     -0.61      0.00
  -33    7   22      0.85      0.00
  -31    7   22     -0.72      0.00
  -29    7   22     -0.69      0.00
  -27    7   22      0.89      0.00
  -25    7   22     -8.93      0.00
  -23    7   22     -1.01      0.00
  -21    7   22      0.96      0.00
  -19    7   22     -1.05      0.00
  -17    7   22     -0.52      0.00
  -15    7   22     -0.53      0.00
  -13    7   22     -2.65      0.00
  -11    7   22      3.39      0.00
   -9    7   22     -6.54      0.00
   -7    7   22      1.17      0.00
   -5    7   22      4.84      0.00
   -3    7   22      1.15      0.00
   -1    7   22     -3.42      0.00
    1    7   22     -9.29      0.00
    3    7   22     -7.85      0.00
    5    7   22     12.63      0.00
    7    7   22     -0.17      0.00
    9    7   22      4.57      0.00
   11    7   22     -9.11      0.00
   13    7   22     -2.37      0.00
   15    7   22      0.18      0.00
   17    7   22     -7.56      0.00
   19    7   22     -4.55      0.00
  -36    8   22     -1.58      0.00
  -34    8   22      1.84      0.00
  -32    8   22     -1.45      0.00
  -30    8   22     -0.55      0.00
  -28    8   22      7.73      0.00
  -26    8   22     -3.93      0.00
  -24    8   22      0.42      0.00
  -22    8   22     -1.22      0.00
  -20    8   22      6.46      0.00
  -18    8   22      0.51      0.00
  -16    8   22      3.47      0.00
  -14    8   22     -0.17      0.00
  -12    8   22      2.28      0.00
  -10    8   22      3.57      0.00
   -8    8   22     -1.69      0.00
   -6    8   22     -3.44      0.00
   -4    8   22     -3.98      0.00
   -2    8   22     -9.17      0.00
    0    8   22     -1.44      0.00
    2    8   22     -0.74      0.00
    4    8   22     -9.99      0.00
    6    8   22      0.69      0.00
    8    8   22      5.05      0.00
   10    8   22      7.74      0.00
   12    8   22     11.92      0.00
   14    8   22      2.35      0.00
   16    8   22     -2.54      0.00
   18    8   22     -8.41      0.00
  -35    9   22      2.22      0.00
  -33    9   22      0.98      0.00
  -31    9   22      2.46      0.00
  -29    9   22      5.01      0.00
  -27    9   22     -7.87      0.00
  -25    9   22      2.14      0.00
  -23    9   22     -9.09      0.00
  -21    9   22     -0.06      0.00
  -19    9   22      2.67      0.00
  -17    9   22     12.61      0.00
  -15    9   22      0.16      0.00
  -13    9   22     -8.71      0.00
  -11    9   22     -7.80      0.00
   -9    9   22    -11.46      0.00
   -7    9   22     -7.67      0.00
   -5    9   22      1.73      0.00
   -3    9   22      1.87      0.00
   -1    9   22     -4.98      0.00
    1    9   22      0.98      0.00
    3    9   22    -11.53      0.00
    5    9   22     -9.53      0.00
    7    9   22     -2.97      0.00
    9    9   22    -12.50      0.00
   11    9   22      3.11      0.00
   13    9   22     -3.26      0.00
   15    9   22      2.20      0.00
   17    9   22      3.03      0.00
   19    9   22     -5.76      0.00
  -32   10   22     11.45      0.00
  -30   10   22     -4.73      0.00
  -28   10   22      0.20      0.00
  -26   10   22     -7.91      0.00
  -24   10   22     -3.49      0.00
  -22   10   22     -6.07      0.00
  -20   10   22     -2.33      0.00
  -18   10   22     -2.62      0.00
  -16   10   22    -10.55      0.00
  -14   10   22     -0.28      0.00
  -12   10   22      2.57      0.00
  -10   10   22     -2.09      0.00
   -8   10   22      3.15      0.00
   -6   10   22     -0.59      0.00
   -4   10   22     -6.01      0.00
   -2   10   22     -1.87      0.00
    0   10   22     -2.60      0.00
    2   10   22     -3.54      0.00
    4   10   22      5.83      0.00
    6   10   22     -7.07      0.00
    8   10   22     -4.59      0.00
   10   10   22     -3.88      0.00
   12   10   22      3.79      0.00
   14   10   22      4.50      0.00
   16   10   22      0.75      0.00
   18   10   22      7.61      0.00
  -31   11   22      1.19      0.00
  -29   11   22      3.65      0.00
  -27   11   22      0.68      0.00
  -25   11   22      4.92      0.00
  -23   11   22     -1.20      0.00
  -21   11   22     -4.32      0.00
  -19   11   22      2.71      0.00
  -17   11   22      1.19      0.00
  -15   11   22      2.03      0.00
  -13   11   22    -16.39      0.00
  -11   11   22     -7.24      0.00
   -9   11   22      7.31      0.00
   -7   11   22     -2.58      0.00
   -5   11   22     -1.49      0.00
   -3   11   22      2.14      0.00
   -1   11   22     -1.70      0.00
    1   11   22     -0.49      0.00
    3   11   22     -3.00      0.00
    5   11   22     -1.91      0.00
    7   11   22     -0.87      0.00
    9   11   22      5.87      0.00
   11   11   22     -7.02      0.00
   13   11   22      7.96      0.00
   15   11   22      1.20      0.00
   17   11   22      5.21      0.00
  -28   12   22     -1.82      0.00
  -26   12   22      4.35      0.00
  -24   12   22     -1.38      0.00
  -22   12   22      6.56      0.00
  -20   12   22      0.22      0.00
  -18   12   22     14.05      0.00
  -16   12   22      3.65      0.00
  -14   12   22     16.55      0.00
  -12   12   22      5.13      0.00
  -10   12   22     -1.54      0.00
   -8   12   22     -3.07      0.00
   -6   12   22     -7.62      0.00
   -4   12   22     -8.32      0.00
   -2   12   22     -1.71      0.00
    0   12   22      0.87      0.00
    2   12   22     -8.93      0.00
    6   12   22     17.18      0.00
    8   12   22    -10.03      0.00
   10   12   22      2.73      0.00
   12   12   22      5.31      0.00
   14   12   22      9.75      0.00
   16   12   22     11.40      0.00
  -27   13   22      1.37      0.00
  -25   13   22     -6.39      0.00
  -23   13   22     -6.76      0.00
  -21   13   22      8.25      0.00
  -19   13   22     -3.11      0.00
  -17   13   22     -1.00      0.00
  -15   13   22     -5.51      0.00
  -13   13   22     -1.41      0.00
  -11   13   22     -1.17      0.00
   -9   13   22     11.49      0.00
   -7   13   22     12.71      0.00
   -5   13   22     15.13      0.00
   -1   13   22     -7.18      0.00
    1   13   22     13.68      0.00
    3   13   22     10.38      0.00
    5   13   22     -3.73      0.00
    7   13   22      1.35      0.00
    9   13   22     -1.78      0.00
   11   13   22     -1.34      0.00
   13   13   22     -7.70      0.00
  -26   14   22     -3.51      0.00
  -24   14   22      5.02      0.00
  -22   14   22     -7.17      0.00
  -20   14   22      2.91      0.00
  -18   14   22      1.40      0.00
  -16   14   22     -1.99      0.00
  -14   14   22     -2.66      0.00
  -12   14   22     -2.55      0.00
  -10   14   22    -12.08      0.00
   -8   14   22     -9.12      0.00
   -6   14   22      4.79      0.00
   -4   14   22     -1.29      0.00
   -2   14   22      3.08      0.00
    0   14   22     -5.07      0.00
    2   14   22      6.96      0.00
    4   14   22      2.51      0.00
    6   14   22      8.58      0.00
    8   14   22      4.08      0.00
   10   14   22      2.06      0.00
   12   14   22      0.83      0.00
  -25   15   22      0.12      0.00
  -23   15   22     -1.75      0.00
  -21   15   22      2.10      0.00
  -19   15   22     -4.27      0.00
  -17   15   22     14.03      0.00
  -15   15   22      6.47      0.00
  -13   15   22      0.80      0.00
  -11   15   22     -8.37      0.00
   -9   15   22     -0.89      0.00
   -7   15   22     -3.19      0.00
   -5   15   22    -11.50      0.00
   -3   15   22     -3.88      0.00
   -1   15   22     14.06      0.00
    1   15   22      0.23      0.00
    3   15   22     -1.25      0.00
    5   15   22      4.37      0.00
    7   15   22     -2.01      0.00
    9   15   22      1.09      0.00
  -22   16   22      1.64      0.00
  -20   16   22      2.50      0.00
  -18   16   22      1.71      0.00
  -16   16   22      4.93      0.00
  -14   16   22      8.36      0.00
  -12   16   22      9.41      0.00
  -10   16   22      6.33      0.00
   -8   16   22    -10.29      0.00
   -6   16   22     -4.73      0.00
   -4   16   22     -6.14      0.00
   -2   16   22     -8.55      0.00
    0   16   22      3.30      0.00
    2   16   22      3.26      0.00
    4   16   22      9.11      0.00
  -17   17   22     -8.20      0.00
  -15   17   22     -0.65      0.00
  -13   17   22     -6.47      0.00
  -11   17   22      1.19      0.00
   -9   17   22      4.78      0.00
   -7   17   22     -0.02      0.00
   -5   17   22      4.09      0.00
   -3   17   22      6.57      0.00
   -1   17   22      8.28      0.00
    1   17   22      8.19      0.00
  -10   18   22      0.42      0.00
   -8   18   22     -8.81      0.00
   -6   18   22     -7.20      0.00
   -4   18   22      7.89      0.00
  -37    1   23     -0.96      0.00
  -35    1   23      2.67      0.00
  -33    1   23     -0.79      0.00
  -31    1   23      1.86      0.00
  -29    1   23     -1.18      0.00
  -27    1   23     -7.08      0.00
  -25    1   23      6.62      0.00
  -23    1   23      3.71      0.00
  -21    1   23     -8.35      0.00
  -19    1   23     11.03      0.00
  -17    1   23      0.04      0.00
  -15    1   23      0.80      0.00
  -13    1   23     -1.16      0.00
  -11    1   23      6.51      0.00
   -9    1   23     -0.65      0.00
   -7    1   23      0.96      0.00
   -5    1   23      2.07      0.00
   -3    1   23      4.67      0.00
   -1    1   23     -1.34      0.00
    1    1   23     -1.50      0.00
    3    1   23     -4.80      0.00
    5    1   23      7.40      0.00
    7    1   23      2.55      0.00
    9    1   23     -3.91      0.00
   11    1   23     -8.84      0.00
   13    1   23     -7.94      0.00
   15    1   23     -5.25      0.00
   17    1   23      7.17      0.00
   19    1   23     -2.78      0.00
   21    1   23      3.79      0.00
   23    1   23     -3.76      0.00
  -38    2   23     -0.75      0.00
  -36    2   23      2.09      0.00
  -34    2   23      0.83      0.00
  -32    2   23     -0.75      0.00
  -30    2   23     -5.04      0.00
  -28    2   23      2.71      0.00
  -26    2   23      3.06      0.00
  -24    2   23     -6.24      0.00
  -22    2   23      1.21      0.00
  -20    2   23      1.24      0.00
  -18    2   23     -6.97      0.00
  -16    2   23      6.56      0.00
  -14    2   23      8.56      0.00
  -12    2   23      3.09      0.00
  -10    2   23     -5.74      0.00
   -8    2   23      1.30      0.00
   -6    2   23     -2.20      0.00
   -4    2   23     -2.84      0.00
   -2    2   23      3.57      0.00
    0    2   23      0.57      0.00
    2    2   23      0.62      0.00
    4    2   23      3.90      0.00
    6    2   23      7.88      0.00
    8    2   23     22.95      0.00
   10    2   23      5.58      0.00
   12    2   23      9.73      0.00
   14    2   23     -0.76      0.00
   16    2   23     -4.68      0.00
   18    2   23      4.01      0.00
   20    2   23     15.36      0.00
   22    2   23     -0.42      0.00
  -37    3   23     -2.35      0.00
  -35    3   23      0.88      0.00
  -33    3   23      2.26      0.00
  -31    3   23     -0.47      0.00
  -29    3   23      2.87      0.00
  -27    3   23    -12.23      0.00
  -25    3   23    -10.21      0.00
  -23    3   23     -0.84      0.00
  -21    3   23      2.80      0.00
  -19    3   23     -2.44      0.00
  -17    3   23     -2.68      0.00
  -15    3   23      0.39      0.00
  -13    3   23      3.68      0.00
  -11    3   23      2.11      0.00
   -9    3   23      4.04      0.00
   -7    3   23     -1.77      0.00
   -5    3   23     -3.91      0.00
   -3    3   23     -1.04      0.00
   -1    3   23      3.19      0.00
    1    3   23     -0.47      0.00
    3    3   23      9.84      0.00
    5    3   23      6.67      0.00
    7    3   23      5.04      0.00
    9    3   23     -3.64      0.00
   11    3   23     -5.47      0.00
   13    3   23      0.01      0.00
   15    3   23      3.38      0.00
   17    3   23      0.65      0.00
   19    3   23      0.39      0.00
   21    3   23     -6.80      0.00
  -38    4   23     -0.99      0.00
  -36    4   23      6.37      0.00
  -34    4   23      1.22      0.00
  -32    4   23     -2.93      0.00
  -30    4   23     -4.17      0.00
  -28    4   23      1.43      0.00
  -26    4   23      2.28      0.00
  -24    4   23     -4.27      0.00
  -22    4   23     -6.79      0.00
  -20    4   23     -0.92      0.00
  -18    4   23      4.68      0.00
  -16    4   23      6.39      0.00
  -14    4   23      4.45      0.00
  -12    4   23      0.74      0.00
  -10    4   23     -2.86      0.00
   -8    4   23     -0.98      0.00
   -6    4   23      2.87      0.00
   -4    4   23      1.87      0.00
   -2    4   23     -2.97      0.00
    0    4   23     -2.40      0.00
    2    4   23      1.22      0.00
    4    4   23     -2.05      0.00
    6    4   23      0.07      0.00
    8    4   23      3.09      0.00
   10    4   23     -1.57      0.00
   12    4   23     -0.91      0.00
   14    4   23      1.46      0.00
   16    4   23      3.38      0.00
   18    4   23      6.72      0.00
   20    4   23     -7.60      0.00
   22    4   23      9.92      0.00
  -37    5   23      1.95      0.00
  -35    5   23      0.24      0.00
  -33    5   23     -0.99      0.00
  -31    5   23      6.30      0.00
  -29    5   23      1.57      0.00
  -27    5   23      6.04      0.00
  -25    5   23      2.19      0.00
  -23    5   23     -0.42      0.00
  -21    5   23     13.52      0.00
  -19    5   23     -2.57      0.00
  -17    5   23      0.93      0.00
  -15    5   23     -2.08      0.00
  -13    5   23      4.63      0.00
  -11    5   23      2.95      0.00
   -9    5   23     -5.30      0.00
   -7    5   23      3.62      0.00
   -5    5   23     -6.74      0.00
   -3    5   23     -2.77      0.00
   -1    5   23      3.38      0.00
    1    5   23      1.72      0.00
    3    5   23      4.33      0.00
    5    5   23     -3.42      0.00
    7    5   23      7.41      0.00
    9    5   23      8.62      0.00
   11    5   23    -10.46      0.00
   13    5   23      8.76      0.00
   15    5   23      5.02      0.00
   17    5   23     -1.59      0.00
   19    5   23      2.16      0.00
   21    5   23      0.71      0.00
  -36    6   23      2.09      0.00
  -34    6   23      2.63      0.00
  -32    6   23     -2.76      0.00
  -30    6   23     -2.01      0.00
  -28    6   23     -0.76      0.00
  -26    6   23     -1.35      0.00
  -24    6   23     -0.91      0.00
  -22    6   23      0.33      0.00
  -20    6   23     10.56      0.00
  -18    6   23      9.00      0.00
  -16    6   23      5.19      0.00
  -14    6   23      1.84      0.00
  -12    6   23      7.89      0.00
  -10    6   23      6.75      0.00
   -8    6   23      2.83      0.00
   -6    6   23     -3.03      0.00
   -4    6   23      5.65      0.00
   -2    6   23     -1.84      0.00
    0    6   23     -0.21      0.00
    2    6   23     -9.22      0.00
    4    6   23      5.43      0.00
    6    6   23      0.17      0.00
    8    6   23      0.95      0.00
   10    6   23      1.50      0.00
   12    6   23      2.75      0.00
   14    6   23      6.83      0.00
   16    6   23     -3.12      0.00
   18    6   23     -4.00      0.00
   20    6   23     -0.70      0.00
  -37    7   23      2.15      0.00
  -35    7   23     -4.62      0.00
  -33    7   23     -0.99      0.00
  -31    7   23     -4.69      0.00
  -29    7   23      0.12      0.00
  -27    7   23      1.17      0.00
  -25    7   23      3.38      0.00
  -23    7   23      3.90      0.00
  -21    7   23      5.00      0.00
  -19    7   23      2.72      0.00
  -17    7   23      0.61      0.00
  -15    7   23      5.08      0.00
  -13    7   23     -1.26      0.00
  -11    7   23      4.55      0.00
   -9    7   23      0.73      0.00
   -7    7   23      5.18      0.00
   -5    7   23     -0.45      0.00
   -3    7   23      0.44      0.00
   -1    7   23      1.28      0.00
    1    7   23      4.98      0.00
    3    7   23      2.94      0.00
    5    7   23      0.80      0.00
    7    7   23      4.52      0.00
    9    7   23      5.00      0.00
   11    7   23      1.63      0.00
   13    7   23     -0.30      0.00
   15    7   23     -2.37      0.00
   17    7   23     -0.42      0.00
   19    7   23      1.72      0.00
  -34    8   23     -4.89      0.00
  -32    8   23     -3.88      0.00
  -30    8   23      3.14      0.00
  -28    8   23     -7.16      0.00
  -26    8   23     -0.35      0.00
  -24    8   23     -5.69      0.00
  -22    8   23     -0.94      0.00
  -20    8   23      6.51      0.00
  -18    8   23      1.25      0.00
  -16    8   23      0.42      0.00
  -14    8   23     -1.07      0.00
  -12    8   23     -1.61      0.00
  -10    8   23      8.63      0.00
   -8    8   23     -3.16      0.00
   -6    8   23     -6.85      0.00
   -4    8   23      3.43      0.00
   -2    8   23     -5.58      0.00
    0    8   23      4.68      0.00
    2    8   23     -7.33      0.00
    4    8   23     -4.82      0.00
    6    8   23     -5.85      0.00
    8    8   23    -17.30      0.00
   10    8   23     -5.95      0.00
   12    8   23      0.96      0.00
   14    8   23      9.86      0.00
   16    8   23     15.03      0.00
   18    8   23      6.77      0.00
  -33    9   23      2.89      0.00
  -31    9   23     -0.04      0.00
  -29    9   23      2.52      0.00
  -27    9   23      1.37      0.00
  -25    9   23      3.56      0.00
  -23    9   23      0.16      0.00
  -21    9   23     -2.84      0.00
  -19    9   23     -2.24      0.00
  -17    9   23     -7.30      0.00
  -15    9   23      0.00      0.00
  -13    9   23     -0.86      0.00
  -11    9   23     -1.08      0.00
   -9    9   23     -6.23      0.00
   -7    9   23      1.85      0.00
   -5    9   23      4.29      0.00
   -3    9   23      6.28      0.00
   -1    9   23      0.57      0.00
    1    9   23     -0.33      0.00
    3    9   23      6.35      0.00
    5    9   23      3.49      0.00
    7    9   23     -0.20      0.00
    9    9   23     -7.73      0.00
   11    9   23     -1.42      0.00
   13    9   23     -1.23      0.00
   15    9   23      2.24      0.00
   17    9   23     10.04      0.00
  -32   10   23      2.37      0.00
  -30   10   23     -8.43      0.00
  -28   10   23      1.59      0.00
  -26   10   23     -1.13      0.00
  -24   10   23     -0.05      0.00
  -22   10   23     -3.85      0.00
  -20   10   23     -2.41      0.00
  -18   10   23     -2.98      0.00
  -16   10   23      0.44      0.00
  -14   10   23     -5.16      0.00
  -12   10   23      1.23      0.00
  -10   10   23      7.77      0.00
   -8   10   23     12.26      0.00
   -6   10   23     -2.25      0.00
   -4   10   23     -3.35      0.00
   -2   10   23      3.46      0.00
    0   10   23     -3.37      0.00
    2   10   23      2.51      0.00
    4   10   23      9.35      0.00
    6   10   23    -11.22      0.00
    8   10   23      0.38      0.00
   10   10   23      1.62      0.00
   12   10   23      1.04      0.00
   14   10   23      6.77      0.00
   16   10   23     14.06      0.00
  -29   11   23     -1.48      0.00
  -27   11   23      3.13      0.00
  -25   11   23      1.05      0.00
  -23   11   23      9.08      0.00
  -21   11   23      6.31      0.00
  -19   11   23      6.64      0.00
  -17   11   23      3.42      0.00
  -15   11   23     13.01      0.00
  -13   11   23     13.97      0.00
  -11   11   23      4.43      0.00
   -9   11   23      5.97      0.00
   -7   11   23      6.36      0.00
   -5   11   23     14.88      0.00
   -3   11   23      2.48      0.00
   -1   11   23     -7.09      0.00
    1   11   23     -4.42      0.00
    3   11   23      6.34      0.00
    5   11   23      8.07      0.00
    7   11   23      0.93      0.00
    9   11   23      3.73      0.00
   11   11   23     -3.14      0.00
   13   11   23      8.64      0.00
   15   11   23     16.61      0.00
  -28   12   23     -5.29      0.00
  -26   12   23    -11.72      0.00
  -24   12   23     -8.12      0.00
  -22   12   23      6.17      0.00
  -20   12   23     -5.50      0.00
  -18   12   23     -1.28      0.00
  -16   12   23      1.76      0.00
  -14   12   23     11.08      0.00
  -12   12   23      2.79      0.00
  -10   12   23      0.70      0.00
   -8   12   23      5.72      0.00
   -6   12   23      8.23      0.00
   -4   12   23      2.93      0.00
   -2   12   23      0.06      0.00
    0   12   23     21.06      0.00
    2   12   23      4.85      0.00
    4   12   23     -4.97      0.00
    6   12   23     -2.81      0.00
    8   12   23     -4.54      0.00
   10   12   23     -1.60      0.00
   12   12   23     -2.33      0.00
   14   12   23     -6.93      0.00
  -27   13   23     -5.13      0.00
  -25   13   23      3.73      0.00
  -23   13   23      4.12      0.00
  -21   13   23     -0.11      0.00
  -19   13   23     -3.55      0.00
  -17   13   23      1.99      0.00
  -15   13   23     -6.14      0.00
  -13   13   23     -1.23      0.00
  -11   13   23      6.55      0.00
   -9   13   23      7.54      0.00
   -7   13   23      6.74      0.00
   -5   13   23      9.20      0.00
   -3   13   23      4.05      0.00
   -1   13   23     -0.21      0.00
    3   13   23      6.27      0.00
    5   13   23     -6.72      0.00
    7   13   23     -3.22      0.00
    9   13   23     -2.27      0.00
   11   13   23     -0.49      0.00
   13   13   23     -4.28      0.00
  -26   14   23     -0.70      0.00
  -24   14   23     -3.18      0.00
  -22   14   23     -2.25      0.00
  -20   14   23     -0.99      0.00
  -18   14   23     -3.19      0.00
  -16   14   23     16.34      0.00
  -14   14   23      5.68      0.00
  -12   14   23      3.16      0.00
  -10   14   23    -11.50      0.00
   -8   14   23     -5.30      0.00
   -6   14   23     -2.67      0.00
   -4   14   23     -7.75      0.00
   -2   14   23     19.30      0.00
    0   14   23     -6.21      0.00
    2   14   23      3.32      0.00
    4   14   23      3.40      0.00
    6   14   23     -6.74      0.00
    8   14   23     -2.81      0.00
   10   14   23      6.53      0.00
  -23   15   23      6.26      0.00
  -21   15   23      3.48      0.00
  -19   15   23      1.99      0.00
  -17   15   23     -0.64      0.00
  -15   15   23     -1.76      0.00
  -13   15   23     -0.18      0.00
  -11   15   23     13.94      0.00
   -9   15   23      4.63      0.00
   -7   15   23     -2.39      0.00
   -5   15   23      2.90      0.00
   -3   15   23     -2.81      0.00
   -1   15   23     -2.65      0.00
    1   15   23     -0.65      0.00
    3   15   23     -1.43      0.00
    5   15   23     -3.90      0.00
    7   15   23      1.48      0.00
  -20   16   23     -0.61      0.00
  -18   16   23      1.37      0.00
  -16   16   23      1.64      0.00
  -14   16   23      5.45      0.00
  -12   16   23     -0.62      0.00
  -10   16   23     -0.94      0.00
   -8   16   23     -1.45      0.00
   -6   16   23      2.35      0.00
   -4   16   23      2.81      0.00
   -2   16   23     -7.50      0.00
    0   16   23     10.38      0.00
    2   16   23      1.68      0.00
  -15   17   23     -0.59      0.00
  -13   17   23     -7.76      0.00
  -11   17   23     -4.02      0.00
   -9   17   23     -9.08      0.00
   -7   17   23     -3.32      0.00
   -5   17   23      1.62      0.00
   -3   17   23     -8.27      0.00
   -1   17   23      2.47      0.00
  -36    0   24      0.52      0.00
  -34    0   24      6.86      0.00
  -32    0   24     -3.34      0.00
  -30    0   24      2.78      0.00
  -28    0   24      2.33      0.00
  -26    0   24     -3.94      0.00
  -24    0   24      5.80      0.00
  -22    0   24    -10.49      0.00
  -20    0   24    -10.59      0.00
  -18    0   24      4.08      0.00
  -16    0   24     -5.68      0.00
  -14    0   24     10.38      0.00
  -12    0   24      7.94      0.00
  -10    0   24     -1.31      0.00
   -8    0   24     -4.09      0.00
   -6    0   24     11.35      0.00
   -4    0   24     13.84      0.00
   -2    0   24      2.87      0.00
    0    0   24      0.57      0.00
    2    0   24     -5.67      0.00
    4    0   24    -12.57      0.00
    6    0   24      0.27      0.00
    8    0   24      5.96      0.00
   10    0   24      0.07      0.00
   12    0   24      4.11      0.00
   14    0   24     -9.81      0.00
   18    0   24      0.63      0.00
   22    0   24      9.28      0.00
  -37    1   24      5.96      0.00
  -35    1   24      0.15      0.00
  -33    1   24     -2.25      0.00
  -31    1   24     -4.64      0.00
  -29    1   24     -5.77      0.00
  -27    1   24     -2.21      0.00
  -25    1   24     -3.52      0.00
  -23    1   24     -2.42      0.00
  -21    1   24      2.68      0.00
  -19    1   24      4.05      0.00
  -17    1   24      5.02      0.00
  -15    1   24     -0.03      0.00
  -13    1   24      0.76      0.00
  -11    1   24      5.95      0.00
   -9    1   24      3.93      0.00
   -7    1   24      1.74      0.00
   -5    1   24     -8.36      0.00
   -3    1   24      8.56      0.00
   -1    1   24     -0.74      0.00
    1    1   24      0.09      0.00
    3    1   24      1.15      0.00
    5    1   24     18.06      0.00
    7    1   24     13.20      0.00
    9    1   24      5.34      0.00
   11    1   24      8.31      0.00
   13    1   24     -1.90      0.00
   15    1   24      5.37      0.00
   19    1   24     -6.94      0.00
   21    1   24     -7.77      0.00
  -38    2   24     -1.96      0.00
  -36    2   24     -0.72      0.00
  -34    2   24      5.66      0.00
  -32    2   24     -0.54      0.00
  -30    2   24      0.93      0.00
  -28    2   24     -3.89      0.00
  -26    2   24    -13.75      0.00
  -24    2   24     -6.59      0.00
  -22    2   24      3.19      0.00
  -20    2   24      7.70      0.00
  -18    2   24      5.60      0.00
  -16    2   24      1.08      0.00
  -14    2   24      3.76      0.00
  -12    2   24      0.98      0.00
  -10    2   24      0.04      0.00
   -8    2   24     -2.20      0.00
   -6    2   24      5.87      0.00
   -4    2   24     -2.48      0.00
   -2    2   24      0.43      0.00
    0    2   24     -1.85      0.00
    2    2   24      0.41      0.00
    4    2   24      3.24      0.00
    6    2   24     -8.18      0.00
    8    2   24      6.26      0.00
   10    2   24      3.44      0.00
   12    2   24      4.96      0.00
   14    2   24      1.94      0.00
   16    2   24     10.91      0.00
   18    2   24     -1.29      0.00
   20    2   24      9.96      0.00
  -37    3   24     -0.91      0.00
  -35    3   24     -0.35      0.00
  -33    3   24      3.02      0.00
  -31    3   24     -2.38      0.00
  -29    3   24     -2.94      0.00
  -27    3   24     -4.07      0.00
  -25    3   24     -4.19      0.00
  -23    3   24     -4.32      0.00
  -21    3   24     -4.58      0.00
  -19    3   24     -2.19      0.00
  -17    3   24      8.09      0.00
  -15    3   24      0.66      0.00
  -13    3   24     -0.62      0.00
  -11    3   24     -3.68      0.00
   -9    3   24      5.89      0.00
   -7    3   24      0.78      0.00
   -5    3   24      2.33      0.00
   -3    3   24     -1.65      0.00
   -1    3   24     -3.23      0.00
    1    3   24      1.48      0.00
    3    3   24      0.89      0.00
    5    3   24      4.01      0.00
    7    3   24     -1.21      0.00
    9    3   24      1.76      0.00
   11    3   24      1.61      0.00
   13    3   24     -8.77      0.00
   15    3   24     -0.44      0.00
   17    3   24     -0.61      0.00
   19    3   24    -12.93      0.00
   21    3   24      3.09      0.00
  -38    4   24      2.79      0.00
  -36    4   24     -4.17      0.00
  -34    4   24     -2.16      0.00
  -32    4   24      9.54      0.00
  -30    4   24      2.86      0.00
  -28    4   24      2.67      0.00
  -26    4   24      0.87      0.00
  -24    4   24      1.49      0.00
  -22    4   24      3.33      0.00
  -20    4   24      3.71      0.00
  -18    4   24      1.03      0.00
  -16    4   24     -4.94      0.00
  -14    4   24     -1.34      0.00
  -12    4   24      7.47      0.00
  -10    4   24      7.41      0.00
   -8    4   24      1.07      0.00
   -6    4   24      6.89      0.00
   -4    4   24      4.35      0.00
   -2    4   24     -0.66      0.00
    0    4   24      6.16      0.00
    2    4   24     -1.37      0.00
    4    4   24    -10.69      0.00
    6    4   24     -3.82      0.00
    8    4   24     -9.49      0.00
   10    4   24     -3.60      0.00
   12    4   24      3.86      0.00
   14    4   24      5.80      0.00
   16    4   24     -4.71      0.00
   18    4   24    -12.82      0.00
   20    4   24      9.42      0.00
  -37    5   24     -4.96      0.00
  -35    5   24      0.98      0.00
  -33    5   24      3.68      0.00
  -31    5   24      1.70      0.00
  -29    5   24     -0.04      0.00
  -27    5   24     -1.53      0.00
  -25    5   24     -4.85      0.00
  -23    5   24      5.65      0.00
  -21    5   24      1.81      0.00
  -19    5   24      3.65      0.00
  -17    5   24     -4.77      0.00
  -15    5   24      3.11      0.00
  -13    5   24      6.02      0.00
  -11    5   24      6.11      0.00
   -9    5   24      0.65      0.00
   -7    5   24      5.42      0.00
   -5    5   24     -1.46      0.00
   -3    5   24      2.61      0.00
   -1    5   24     -7.25      0.00
    1    5   24     -1.44      0.00
    3    5   24      0.13      0.00
    5    5   24      8.03      0.00
    7    5   24      7.95      0.00
    9    5   24      5.34      0.00
   11    5   24      3.98      0.00
   13    5   24      7.52      0.00
   15    5   24     -0.65      0.00
   17    5   24     -0.19      0.00
   19    5   24      6.09      0.00
  -36    6   24     -1.45      0.00
  -34    6   24      0.15      0.00
  -32    6   24      4.92      0.00
  -30    6   24      1.28      0.00
  -28    6   24     -5.21      0.00
  -26    6   24     -1.10      0.00
  -24    6   24     -0.38      0.00
  -22    6   24    -11.42      0.00
  -20    6   24     -3.07      0.00
  -18    6   24     -0.23      0.00
  -16    6   24     13.10      0.00
  -14    6   24     -0.54      0.00
  -12    6   24     -4.10      0.00
  -10    6   24      2.33      0.00
   -8    6   24     -3.87      0.00
   -6    6   24     -7.50      0.00
   -4    6   24      2.97      0.00
   -2    6   24     -1.14      0.00
    0    6   24      7.56      0.00
    2    6   24     -3.13      0.00
    4    6   24     -0.91      0.00
    6    6   24     -5.91      0.00
    8    6   24      3.82      0.00
   10    6   24      1.95      0.00
   12    6   24     -8.63      0.00
   14    6   24    -18.72      0.00
   16    6   24     -0.24      0.00
   18    6   24     -4.31      0.00
  -35    7   24     -2.90      0.00
  -33    7   24      3.38      0.00
  -31    7   24      2.49      0.00
  -29    7   24      1.70      0.00
  -27    7   24      0.95      0.00
  -25    7   24      3.70      0.00
  -23    7   24      1.11      0.00
  -21    7   24      0.38      0.00
  -19    7   24    -10.16      0.00
  -17    7   24    -11.40      0.00
  -15    7   24     -7.65      0.00
  -13    7   24     -5.35      0.00
  -11    7   24     -3.96      0.00
   -9    7   24    -10.54      0.00
   -7    7   24      0.16      0.00
   -5    7   24     -2.43      0.00
   -3    7   24     -9.33      0.00
   -1    7   24     -2.61      0.00
    1    7   24     -2.37      0.00
    3    7   24      1.48      0.00
    5    7   24      3.95      0.00
    7    7   24     -7.33      0.00
    9    7   24     -7.74      0.00
   11    7   24      3.55      0.00
   13    7   24      6.94      0.00
   15    7   24     16.45      0.00
   17    7   24      0.61      0.00
  -34    8   24      3.94      0.00
  -32    8   24      2.22      0.00
  -30    8   24      0.21      0.00
  -28    8   24      4.13      0.00
  -26    8   24      1.62      0.00
  -24    8   24      3.63      0.00
  -22    8   24     -0.92      0.00
  -20    8   24     -4.69      0.00
  -18    8   24     -0.45      0.00
  -16    8   24      7.76      0.00
  -14    8   24      6.61      0.00
  -12    8   24      0.62      0.00
  -10    8   24      2.82      0.00
   -8    8   24      3.11      0.00
   -6    8   24     -9.76      0.00
   -4    8   24     -5.23      0.00
   -2    8   24      2.37      0.00
    0    8   24     -2.37      0.00
    2    8   24      7.59      0.00
    4    8   24     -9.93      0.00
    6    8   24      2.56      0.00
    8    8   24      2.87      0.00
   10    8   24      6.69      0.00
   12    8   24     -3.26      0.00
   14    8   24     -0.30      0.00
   16    8   24      6.59      0.00
  -33    9   24      2.77      0.00
  -31    9   24      2.49      0.00
  -29    9   24      2.96      0.00
  -27    9   24      7.35      0.00
  -25    9   24      0.78      0.00
  -23    9   24     -2.06      0.00
  -21    9   24     -1.39      0.00
  -19    9   24      1.91      0.00
  -17    9   24     -4.73      0.00
  -15    9   24      3.08      0.00
  -13    9   24     -5.53      0.00
  -11    9   24     -4.13      0.00
   -9    9   24      0.84      0.00
   -7    9   24      0.37      0.00
   -5    9   24      4.97      0.00
   -3    9   24      4.55      0.00
   -1    9   24     -1.17      0.00
    1    9   24      1.29      0.00
    3    9   24      4.91      0.00
    5    9   24     -0.29      0.00
    7    9   24      1.18      0.00
    9    9   24      2.38      0.00
   11    9   24     -7.69      0.00
   13    9   24      3.59      0.00
   15    9   24      7.26      0.00
  -32   10   24     -2.90      0.00
  -30   10   24     -8.89      0.00
  -28   10   24      0.95      0.00
  -26   10   24     -7.69      0.00
  -24   10   24      3.69      0.00
  -22   10   24     -1.40      0.00
  -20   10   24     -3.82      0.00
  -18   10   24     -1.49      0.00
  -16   10   24      3.41      0.00
  -14   10   24     17.29      0.00
  -12   10   24     12.84      0.00
  -10   10   24      5.07      0.00
   -8   10   24      2.30      0.00
   -6   10   24      2.26      0.00
   -4   10   24     -0.80      0.00
   -2   10   24     -3.74      0.00
    0   10   24      0.68      0.00
    2   10   24      2.30      0.00
    4   10   24     -6.33      0.00
    6   10   24      3.59      0.00
    8   10   24      3.75      0.00
   10   10   24      1.41      0.00
   12   10   24     -2.25      0.00
   14   10   24      3.56      0.00
  -29   11   24     -0.46      0.00
  -27   11   24     -0.72      0.00
  -25   11   24      5.46      0.00
  -23   11   24      2.57      0.00
  -21   11   24      6.00      0.00
  -19   11   24     -0.49      0.00
  -17   11   24     10.32      0.00
  -15   11   24     -3.18      0.00
  -13   11   24     -1.30      0.00
  -11   11   24     -2.77      0.00
   -9   11   24     -3.52      0.00
   -7   11   24      1.61      0.00
   -5   11   24      7.24      0.00
   -3   11   24      1.05      0.00
   -1   11   24      2.95      0.00
    1   11   24     -0.59      0.00
    3   11   24     -8.89      0.00
    5   11   24      7.36      0.00
    7   11   24      8.56      0.00
    9   11   24     -8.06      0.00
   11   11   24     -0.62      0.00
   13   11   24    -11.24      0.00
  -28   12   24     -0.44      0.00
  -26   12   24      3.19      0.00
  -24   12   24      0.62      0.00
  -22   12   24     -3.53      0.00
  -20   12   24     -1.43      0.00
  -18   12   24     -1.73      0.00
  -16   12   24     -1.96      0.00
  -14   12   24     -2.57      0.00
  -12   12   24      5.34      0.00
  -10   12   24      3.58      0.00
   -8   12   24     -5.45      0.00
   -6   12   24      0.97      0.00
   -4   12   24     -0.68      0.00
   -2   12   24      2.69      0.00
    0   12   24      2.03      0.00
    2   12   24     -4.78      0.00
    4   12   24     -4.89      0.00
    6   12   24     -3.62      0.00
    8   12   24    -10.74      0.00
   10   12   24      8.97      0.00
   12   12   24      3.89      0.00
  -27   13   24      0.55      0.00
  -25   13   24     -3.40      0.00
  -23   13   24      0.05      0.00
  -21   13   24      1.60      0.00
  -19   13   24     -6.37      0.00
  -17   13   24      3.41      0.00
  -15   13   24     -3.84      0.00
  -13   13   24     -0.54      0.00
  -11   13   24     -2.87      0.00
   -9   13   24     -2.09      0.00
   -7   13   24     10.04      0.00
   -5   13   24      4.21      0.00
   -3   13   24      6.19      0.00
   -1   13   24    -14.09      0.00
    1   13   24     -9.44      0.00
    3   13   24     -0.79      0.00
    5   13   24     -8.32      0.00
    7   13   24      4.14      0.00
    9   13   24     11.58      0.00
   11   13   24     -4.01      0.00
  -26   14   24      0.06      0.00
  -24   14   24     -0.19      0.00
  -22   14   24      0.08      0.00
  -20   14   24      4.26      0.00
  -18   14   24     -7.45      0.00
  -16   14   24     -0.78      0.00
  -14   14   24     -6.92      0.00
  -12   14   24      1.84      0.00
  -10   14   24    -11.21      0.00
   -8   14   24      2.98      0.00
   -6   14   24     -2.41      0.00
   -4   14   24     -0.85      0.00
   -2   14   24     -3.06      0.00
    0   14   24     -4.06      0.00
    2   14   24     -0.28      0.00
    4   14   24     -3.18      0.00
    6   14   24      0.68      0.00
    8   14   24      0.54      0.00
  -23   15   24      2.35      0.00
  -21   15   24     -1.12      0.00
  -19   15   24     10.71      0.00
  -17   15   24      6.68      0.00
  -15   15   24      3.70      0.00
  -13   15   24     -1.86      0.00
  -11   15   24      0.22      0.00
   -9   15   24     12.21      0.00
   -7   15   24     -5.23      0.00
   -5   15   24     -1.25      0.00
   -3   15   24    -19.98      0.00
   -1   15   24     -9.45      0.00
    1   15   24     -7.58      0.00
    3   15   24     -1.17      0.00
    5   15   24     -9.12      0.00
  -18   16   24      1.74      0.00
  -16   16   24      0.80      0.00
  -14   16   24      7.98      0.00
  -12   16   24     -0.92      0.00
  -10   16   24      2.69      0.00
   -8   16   24      4.54      0.00
   -6   16   24      2.74      0.00
   -4   16   24     -7.14      0.00
   -2   16   24     -0.96      0.00
    0   16   24      4.88      0.00
  -13   17   24     -0.75      0.00
  -11   17   24      6.18      0.00
   -9   17   24     10.86      0.00
   -7   17   24      0.88      0.00
  -37    1   25     -7.30      0.00
  -35    1   25      0.56      0.00
  -33    1   25     -3.72      0.00
  -31    1   25     -1.02      0.00
  -29    1   25     -4.82      0.00
  -27    1   25     -1.64      0.00
  -25    1   25      1.17      0.00
  -23    1   25     -0.37      0.00
  -21    1   25      9.66      0.00
  -19    1   25      9.06      0.00
  -17    1   25     -4.75      0.00
  -15    1   25      1.47      0.00
  -13    1   25     -2.54      0.00
  -11    1   25     -1.26      0.00
   -9    1   25    -11.68      0.00
   -7    1   25     -4.74      0.00
   -5    1   25      0.35      0.00
   -3    1   25      3.37      0.00
   -1    1   25      3.87      0.00
    1    1   25     -2.67      0.00
    3    1   25      5.79      0.00
    5    1   25    -11.97      0.00
    7    1   25     -5.75      0.00
    9    1   25      6.98      0.00
   11    1   25     -5.85      0.00
   13    1   25     -2.99      0.00
   15    1   25     -3.79      0.00
   17    1   25     -6.15      0.00
   19    1   25      6.95      0.00
  -36    2   25     -2.69      0.00
  -34    2   25     -0.40      0.00
  -32    2   25      5.00      0.00
  -30    2   25     -6.57      0.00
  -28    2   25      2.19      0.00
  -26    2   25     -3.13      0.00
  -24    2   25     -5.83      0.00
  -22    2   25     -0.17      0.00
  -20    2   25     -7.03      0.00
  -18    2   25      1.72      0.00
  -16    2   25      4.17      0.00
  -14    2   25     -3.85      0.00
  -12    2   25     -5.37      0.00
  -10    2   25      1.32      0.00
   -8    2   25     -1.92      0.00
   -6    2   25     -5.12      0.00
   -4    2   25     -6.29      0.00
   -2    2   25      2.48      0.00
    0    2   25     -2.06      0.00
    2    2   25     -0.35      0.00
    4    2   25     -4.40      0.00
    6    2   25     -5.78      0.00
    8    2   25      1.64      0.00
   10    2   25      4.12      0.00
   12    2   25     -0.76      0.00
   14    2   25      5.77      0.00
   16    2   25      5.12      0.00
   18    2   25      7.48      0.00
   20    2   25      1.39      0.00
  -37    3   25      0.68      0.00
  -35    3   25      3.90      0.00
  -33    3   25      4.08      0.00
  -31    3   25     -0.76      0.00
  -29    3   25     -3.92      0.00
  -27    3   25     -1.34      0.00
  -25    3   25     10.22      0.00
  -23    3   25     -5.36      0.00
  -21    3   25    -10.14      0.00
  -19    3   25     -3.53      0.00
  -17    3   25     -7.52      0.00
  -15    3   25      0.55      0.00
  -13    3   25     14.14      0.00
  -11    3   25      9.39      0.00
   -9    3   25     -2.70      0.00
   -7    3   25     -5.01      0.00
   -5    3   25      4.96      0.00
   -3    3   25     -2.81      0.00
   -1    3   25     -1.63      0.00
    1    3   25     -1.75      0.00
    3    3   25     -7.85      0.00
    5    3   25      0.93      0.00
    7    3   25    -11.12      0.00
    9    3   25     -2.92      0.00
   11    3   25      2.18      0.00
   13    3   25     -4.51      0.00
   15    3   25     -9.14      0.00
   17    3   25     -8.93      0.00
   19    3   25     -2.22      0.00
  -36    4   25      0.60      0.00
  -34    4   25     -0.85      0.00
  -32    4   25     -2.84      0.00
  -30    4   25      3.73      0.00
  -28    4   25     -8.55      0.00
  -26    4   25     -7.70      0.00
  -24    4   25     -5.12      0.00
  -22    4   25     -2.62      0.00
  -20    4   25      9.52      0.00
  -18    4   25     -5.99      0.00
  -16    4   25     -2.34      0.00
  -14    4   25      2.66      0.00
  -12    4   25      5.76      0.00
  -10    4   25     -3.24      0.00
   -8    4   25      1.61      0.00
   -6    4   25     -6.81      0.00
   -4    4   25      1.56      0.00
   -2    4   25     -3.21      0.00
    0    4   25      1.91      0.00
    2    4   25     -5.75      0.00
    4    4   25     -5.81      0.00
    6    4   25     -1.21      0.00
    8    4   25      2.34      0.00
   10    4   25      4.47      0.00
   12    4   25      3.97      0.00
   14    4   25      2.60      0.00
   16    4   25      3.50      0.00
   18    4   25      5.34      0.00
  -37    5   25      3.20      0.00
  -35    5   25     -3.35      0.00
  -33    5   25      0.15      0.00
  -31    5   25     -4.89      0.00
  -29    5   25     -5.63      0.00
  -27    5   25      1.91      0.00
  -25    5   25      4.72      0.00
  -23    5   25     -1.93      0.00
  -21    5   25     -7.99      0.00
  -19    5   25     -3.33      0.00
  -17    5   25      3.40      0.00
  -15    5   25      2.86      0.00
  -13    5   25     -4.13      0.00
  -11    5   25     -2.09      0.00
   -9    5   25     -1.63      0.00
   -7    5   25      6.77      0.00
   -5    5   25     -7.88      0.00
   -3    5   25     -1.61      0.00
   -1    5   25     -4.66      0.00
    1    5   25     -2.67      0.00
    3    5   25      9.54      0.00
    5    5   25     -5.03      0.00
    7    5   25     -0.80      0.00
    9    5   25      4.85      0.00
   11    5   25     -3.96      0.00
   13    5   25    -11.54      0.00
   15    5   25     -2.07      0.00
   17    5   25     -4.62      0.00
  -36    6   25      6.20      0.00
  -34    6   25      0.40      0.00
  -32    6   25     -4.26      0.00
  -30    6   25     -1.14      0.00
  -28    6   25     -1.81      0.00
  -26    6   25     -5.57      0.00
  -24    6   25     -4.75      0.00
  -22    6   25     -1.28      0.00
  -20    6   25     -1.93      0.00
  -18    6   25    -12.55      0.00
  -16    6   25     -8.23      0.00
  -14    6   25     -1.30      0.00
  -12    6   25    -12.86      0.00
  -10    6   25     -2.00      0.00
   -8    6   25      0.44      0.00
   -6    6   25     -5.17      0.00
   -4    6   25     -5.91      0.00
   -2    6   25     -2.46      0.00
    0    6   25      1.82      0.00
    2    6   25     -0.14      0.00
    4    6   25      2.15      0.00
    6    6   25     -7.77      0.00
    8    6   25     -5.36      0.00
   10    6   25     -0.66      0.00
   12    6   25      3.95      0.00
   14    6   25      8.82      0.00
   16    6   25      3.30      0.00
  -35    7   25      1.62      0.00
  -33    7   25      0.02      0.00
  -31    7   25     -3.52      0.00
  -29    7   25      4.23      0.00
  -27    7   25      3.78      0.00
  -25    7   25      4.37      0.00
  -23    7   25      7.32      0.00
  -21    7   25      0.70      0.00
  -19    7   25      2.20      0.00
  -17    7   25      1.08      0.00
  -15    7   25     -2.30      0.00
  -13    7   25     -5.98      0.00
  -11    7   25      2.74      0.00
   -9    7   25      7.90      0.00
   -7    7   25      1.92      0.00
   -5    7   25    -10.41      0.00
   -3    7   25      9.98      0.00
   -1    7   25     -4.06      0.00
    1    7   25      9.12      0.00
    3    7   25     -6.75      0.00
    5    7   25     -3.87      0.00
    7    7   25     -2.76      0.00
    9    7   25     -2.57      0.00
   11    7   25     -6.70      0.00
   13    7   25      0.15      0.00
   15    7   25     -0.77      0.00
  -34    8   25     -4.65      0.00
  -32    8   25     -1.20      0.00
  -30    8   25     -1.79      0.00
  -28    8   25     -3.31      0.00
  -26    8   25     -2.90      0.00
  -24    8   25     -0.94      0.00
  -22    8   25     -1.51      0.00
  -20    8   25     -3.44      0.00
  -18    8   25     -5.43      0.00
  -16    8   25      6.64      0.00
  -14    8   25      0.50      0.00
  -12    8   25     -3.55      0.00
  -10    8   25      9.47      0.00
   -8    8   25      2.88      0.00
   -6    8   25      9.99      0.00
   -4    8   25     -5.39      0.00
   -2    8   25     -4.46      0.00
    0    8   25      8.85      0.00
    2    8   25     -1.32      0.00
    4    8   25      0.42      0.00
    6    8   25     -2.28      0.00
    8    8   25      1.67      0.00
   10    8   25     -7.68      0.00
   12    8   25     -5.67      0.00
   14    8   25      0.58      0.00
  -33    9   25     -2.88      0.00
  -31    9   25     -0.67      0.00
  -29    9   25     -0.51      0.00
  -27    9   25      1.34      0.00
  -25    9   25     -1.56      0.00
  -23    9   25     -4.47      0.00
  -21    9   25      1.01      0.00
  -19    9   25     -2.90      0.00
  -17    9   25    -12.73      0.00
  -15    9   25     -1.91      0.00
  -13    9   25      6.04      0.00
  -11    9   25     -0.63      0.00
   -9    9   25     -2.70      0.00
   -7    9   25      3.42      0.00
   -5    9   25     -0.65      0.00
   -3    9   25      6.89      0.00
   -1    9   25      5.72      0.00
    1    9   25      0.61      0.00
    3    9   25     -4.64      0.00
    5    9   25     -1.11      0.00
    7    9   25     -0.92      0.00
    9    9   25    -13.03      0.00
   11    9   25     -4.68      0.00
   13    9   25     -1.21      0.00
   15    9   25     -3.59      0.00
  -30   10   25     -2.01      0.00
  -28   10   25      1.84      0.00
  -26   10   25      1.64      0.00
  -24   10   25     -2.28      0.00
  -22   10   25     -0.36      0.00
  -20   10   25     -3.82      0.00
  -18   10   25     11.24      0.00
  -16   10   25     -8.79      0.00
  -14   10   25     -4.60      0.00
  -12   10   25      7.74      0.00
  -10   10   25      4.92      0.00
   -8   10   25      5.60      0.00
   -6   10   25     -1.78      0.00
   -4   10   25     -1.56      0.00
   -2   10   25      0.27      0.00
    0   10   25     -0.31      0.00
    2   10   25     -1.13      0.00
    4   10   25      1.87      0.00
    6   10   25     -0.09      0.00
    8   10   25     -7.18      0.00
   10   10   25      2.08      0.00
   12   10   25    -11.28      0.00
   14   10   25    -10.41      0.00
  -27   11   25      3.21      0.00
  -25   11   25      1.40      0.00
  -23   11   25      2.49      0.00
  -21   11   25      0.76      0.00
  -19   11   25     -4.32      0.00
  -17   11   25     -8.29      0.00
  -15   11   25      0.29      0.00
  -13   11   25      0.41      0.00
  -11   11   25      1.67      0.00
   -9   11   25     -3.24      0.00
   -7   11   25      3.32      0.00
   -5   11   25      2.33      0.00
   -3   11   25      0.11      0.00
   -1   11   25     -3.57      0.00
    1   11   25     -1.46      0.00
    3   11   25     -0.48      0.00
    5   11   25      0.59      0.00
    7   11   25    -12.94      0.00
    9   11   25     -0.06      0.00
   11   11   25      8.08      0.00
   13   11   25     -4.49      0.00
  -26   12   25     -7.21      0.00
  -24   12   25     -7.05      0.00
  -22   12   25      6.87      0.00
  -20   12   25      0.95      0.00
  -18   12   25     -6.81      0.00
  -16   12   25     -0.85      0.00
  -14   12   25     -3.07      0.00
  -12   12   25     -0.54      0.00
  -10   12   25     -1.39      0.00
   -8   12   25     -1.15      0.00
   -6   12   25     -3.08      0.00
   -4   12   25      3.10      0.00
   -2   12   25      0.88      0.00
    0   12   25    -10.56      0.00
    2   12   25      0.35      0.00
    4   12   25     -3.48      0.00
    6   12   25     -1.71      0.00
    8   12   25     12.70      0.00
   10   12   25     -2.27      0.00
  -25   13   25      2.56      0.00
  -23   13   25      7.79      0.00
  -21   13   25      3.43      0.00
  -19   13   25      2.74      0.00
  -17   13   25      0.34      0.00
  -15   13   25     -2.84      0.00
  -13   13   25      6.71      0.00
  -11   13   25     -7.49      0.00
   -9   13   25      6.68      0.00
   -7   13   25     -1.28      0.00
   -5   13   25     -1.39      0.00
   -3   13   25      2.13      0.00
   -1   13   25     -0.74      0.00
    1   13   25      4.87      0.00
    3   13   25      8.47      0.00
    5   13   25      1.41      0.00
    7   13   25     -0.43      0.00
    9   13   25     -5.73      0.00
  -24   14   25     -3.06      0.00
  -22   14   25     -0.14      0.00
  -20   14   25      6.86      0.00
  -18   14   25      0.12      0.00
  -16   14   25     -4.94      0.00
  -14   14   25      0.90      0.00
  -12   14   25      0.72      0.00
  -10   14   25     15.25      0.00
   -8   14   25     -3.72      0.00
   -6   14   25     -6.84      0.00
   -4   14   25     -1.87      0.00
   -2   14   25     -7.61      0.00
    0   14   25     -1.50      0.00
    2   14   25      3.84      0.00
    4   14   25      3.69      0.00
    6   14   25     -2.34      0.00
  -21   15   25      0.68      0.00
  -19   15   25     -4.49      0.00
  -17   15   25     -2.17      0.00
  -15   15   25      6.03      0.00
  -13   15   25     -0.81      0.00
  -11   15   25     16.33      0.00
   -9   15   25      4.48      0.00
   -7   15   25      8.29      0.00
   -5   15   25     -0.10      0.00
   -3   15   25     -3.73      0.00
   -1   15   25     -2.20      0.00
    1   15   25     -6.67      0.00
  -16   16   25     -2.21      0.00
  -14   16   25     -0.45      0.00
  -12   16   25      0.47      0.00
  -10   16   25     -3.04      0.00
   -8   16   25     -0.96      0.00
   -6   16   25     -2.12      0.00
   -4   16   25     12.19      0.00
  -36    0   26     -3.99      0.00
  -34    0   26      0.43      0.00
  -32    0   26      4.04      0.00
  -30    0   26      3.06      0.00
  -28    0   26      1.29      0.00
  -26    0   26      5.46      0.00
  -24    0   26      0.56      0.00
  -22    0   26     -1.98      0.00
  -20    0   26      5.22      0.00
  -18    0   26     -5.48      0.00
  -16    0   26      5.78      0.00
  -14    0   26     -5.07      0.00
  -12    0   26     -3.50      0.00
  -10    0   26    -12.72      0.00
   -8    0   26     -3.16      0.00
   -6    0   26      9.25      0.00
   -4    0   26     -1.58      0.00
   -2    0   26      5.94      0.00
    0    0   26      5.00      0.00
    2    0   26      1.39      0.00
    4    0   26    -23.30      0.00
    6    0   26     -9.82      0.00
    8    0   26      7.63      0.00
   10    0   26     -7.32      0.00
   12    0   26     -2.16      0.00
   14    0   26     -3.97      0.00
   16    0   26     17.02      0.00
   18    0   26     11.80      0.00
  -35    1   26     -0.44      0.00
  -33    1   26      3.43      0.00
  -31    1   26     -5.22      0.00
  -29    1   26      3.25      0.00
  -27    1   26      9.19      0.00
  -25    1   26      4.00      0.00
  -23    1   26      9.12      0.00
  -21    1   26      2.64      0.00
  -19    1   26      0.97      0.00
  -17    1   26      7.15      0.00
  -15    1   26     -5.29      0.00
  -13    1   26      1.89      0.00
  -11    1   26      3.23      0.00
   -9    1   26      2.08      0.00
   -7    1   26     -9.78      0.00
   -5    1   26     -2.62      0.00
   -3    1   26      3.46      0.00
   -1    1   26     -3.29      0.00
    1    1   26      0.31      0.00
    3    1   26      2.31      0.00
    5    1   26      2.78      0.00
    7    1   26    -11.74      0.00
    9    1   26      4.39      0.00
   11    1   26      0.21      0.00
   13    1   26     -0.16      0.00
   15    1   26      1.43      0.00
   17    1   26      3.68      0.00
   19    1   26     -2.06      0.00
  -36    2   26     -1.03      0.00
  -34    2   26      5.03      0.00
  -32    2   26      1.88      0.00
  -30    2   26     -0.73      0.00
  -28    2   26     -4.59      0.00
  -26    2   26     -8.63      0.00
  -24    2   26     -2.34      0.00
  -22    2   26     -5.97      0.00
  -20    2   26     -5.36      0.00
  -18    2   26      5.78      0.00
  -16    2   26     -5.35      0.00
  -14    2   26      6.35      0.00
  -12    2   26      4.77      0.00
  -10    2   26      4.57      0.00
   -8    2   26     -3.95      0.00
   -6    2   26      1.52      0.00
   -4    2   26     -9.05      0.00
   -2    2   26     -5.88      0.00
    0    2   26     -4.38      0.00
    2    2   26    -12.79      0.00
    4    2   26      0.10      0.00
    6    2   26     -3.13      0.00
    8    2   26     -8.89      0.00
   10    2   26     -0.89      0.00
   12    2   26      1.41      0.00
   14    2   26     -5.37      0.00
   16    2   26      9.82      0.00
   18    2   26     -3.62      0.00
  -35    3   26     -1.51      0.00
  -33    3   26     -2.11      0.00
  -31    3   26      3.97      0.00
  -29    3   26      1.97      0.00
  -27    3   26      1.98      0.00
  -25    3   26      2.66      0.00
  -23    3   26      1.33      0.00
  -21    3   26     -0.13      0.00
  -19    3   26      7.69      0.00
  -17    3   26     -4.45      0.00
  -15    3   26      0.69      0.00
  -13    3   26     -0.71      0.00
  -11    3   26     -1.62      0.00
   -9    3   26      4.68      0.00
   -7    3   26     -0.85      0.00
   -5    3   26      2.72      0.00
   -3    3   26      3.26      0.00
   -1    3   26      1.68      0.00
    1    3   26      3.97      0.00
    3    3   26     -5.83      0.00
    5    3   26      3.46      0.00
    7    3   26     -2.13      0.00
    9    3   26     -0.99      0.00
   11    3   26     -1.27      0.00
   13    3   26     -7.61      0.00
   15    3   26     -0.96      0.00
   17    3   26     -1.11      0.00
  -36    4   26     -6.86      0.00
  -34    4   26     -7.90      0.00
  -32    4   26     -3.58      0.00
  -30    4   26      6.64      0.00
  -28    4   26     -4.57      0.00
  -26    4   26      2.39      0.00
  -24    4   26     -0.32      0.00
  -22    4   26      4.29      0.00
  -20    4   26     -1.60      0.00
  -18    4   26     -3.18      0.00
  -16    4   26      2.46      0.00
  -14    4   26     -3.68      0.00
  -12    4   26      0.10      0.00
  -10    4   26     -3.15      0.00
   -8    4   26      9.03      0.00
   -6    4   26      1.36      0.00
   -4    4   26      3.72      0.00
   -2    4   26      6.45      0.00
    0    4   26      1.62      0.00
    2    4   26     -1.48      0.00
    4    4   26     -1.47      0.00
    6    4   26     -5.72      0.00
    8    4   26     -2.95      0.00
   10    4   26     -6.78      0.00
   12    4   26      0.32      0.00
   14    4   26     -0.92      0.00
   16    4   26     -1.44      0.00
   18    4   26     -5.96      0.00
  -35    5   26     -1.77      0.00
  -33    5   26      0.57      0.00
  -31    5   26     -2.50      0.00
  -29    5   26     17.08      0.00
  -27    5   26      2.13      0.00
  -25    5   26     -2.67      0.00
  -23    5   26      4.29      0.00
  -21    5   26     -6.96      0.00
  -19    5   26     -4.11      0.00
  -17    5   26      3.07      0.00
  -15    5   26      1.74      0.00
  -13    5   26     -8.01      0.00
  -11    5   26     -5.36      0.00
   -9    5   26      9.58      0.00
   -7    5   26      5.29      0.00
   -5    5   26     -3.31      0.00
   -3    5   26      3.87      0.00
   -1    5   26     -2.60      0.00
    1    5   26      4.71      0.00
    3    5   26      5.16      0.00
    5    5   26     -2.14      0.00
    7    5   26      1.52      0.00
    9    5   26     -8.32      0.00
   11    5   26      1.06      0.00
   13    5   26     -0.10      0.00
   15    5   26      0.03      0.00
   17    5   26     -2.59      0.00
  -34    6   26     -3.73      0.00
  -32    6   26      3.91      0.00
  -30    6   26      1.33      0.00
  -28    6   26      1.33      0.00
  -26    6   26     -3.34      0.00
  -24    6   26      0.41      0.00
  -22    6   26     -1.43      0.00
  -20    6   26      0.91      0.00
  -18    6   26      0.95      0.00
  -16    6   26     -3.50      0.00
  -14    6   26    -13.11      0.00
  -12    6   26     -4.22      0.00
  -10    6   26     -1.87      0.00
   -8    6   26    -21.95      0.00
   -6    6   26      0.65      0.00
   -4    6   26      8.50      0.00
   -2    6   26      4.73      0.00
    0    6   26     -1.10      0.00
    2    6   26     -8.45      0.00
    4    6   26     -6.47      0.00
    6    6   26      4.15      0.00
    8    6   26      1.33      0.00
   10    6   26     -5.20      0.00
   12    6   26     -3.00      0.00
   14    6   26     -2.58      0.00
   16    6   26     -1.12      0.00
  -33    7   26      0.81      0.00
  -31    7   26      3.79      0.00
  -29    7   26     -7.79      0.00
  -27    7   26      8.52      0.00
  -25    7   26      5.40      0.00
  -23    7   26      7.73      0.00
  -21    7   26     -1.60      0.00
  -19    7   26     -2.58      0.00
  -17    7   26     -3.18      0.00
  -15    7   26      7.44      0.00
  -13    7   26      5.31      0.00
  -11    7   26      0.81      0.00
   -9    7   26      1.56      0.00
   -7    7   26     10.99      0.00
   -5    7   26    -12.44      0.00
   -3    7   26    -11.05      0.00
   -1    7   26     -1.29      0.00
    1    7   26     -0.27      0.00
    3    7   26      0.80      0.00
    5    7   26     -2.58      0.00
    7    7   26     -2.33      0.00
    9    7   26      2.77      0.00
   11    7   26     -3.49      0.00
   13    7   26     -2.65      0.00
   15    7   26     -1.10      0.00
  -32    8   26     -0.09      0.00
  -30    8   26     -2.02      0.00
  -28    8   26      2.06      0.00
  -26    8   26     -3.77      0.00
  -24    8   26     -3.02      0.00
  -22    8   26      0.31      0.00
  -20    8   26      3.40      0.00
  -18    8   26      1.62      0.00
  -16    8   26     -6.75      0.00
  -14    8   26      9.30      0.00
  -12    8   26      2.54      0.00
  -10    8   26      0.95      0.00
   -8    8   26      2.53      0.00
   -6    8   26     -3.67      0.00
   -4    8   26     -3.65      0.00
   -2    8   26     -1.46      0.00
    0    8   26      2.66      0.00
    2    8   26     -2.59      0.00
    4    8   26     -2.52      0.00
    6    8   26      3.59      0.00
    8    8   26      1.57      0.00
   10    8   26      3.48      0.00
   12    8   26     -1.95      0.00
   14    8   26      2.30      0.00
  -31    9   26      0.44      0.00
  -29    9   26      1.67      0.00
  -27    9   26      1.16      0.00
  -25    9   26     -0.81      0.00
  -23    9   26     -5.44      0.00
  -21    9   26      5.84      0.00
  -19    9   26      1.13      0.00
  -17    9   26     -6.08      0.00
  -15    9   26     -6.22      0.00
  -13    9   26      3.90      0.00
  -11    9   26      7.30      0.00
   -9    9   26      1.57      0.00
   -7    9   26     -6.95      0.00
   -5    9   26      1.22      0.00
   -3    9   26     -2.99      0.00
   -1    9   26    -12.07      0.00
    1    9   26      0.73      0.00
    3    9   26      0.57      0.00
    5    9   26     -5.69      0.00
    7    9   26     -1.03      0.00
    9    9   26      3.12      0.00
   11    9   26      5.80      0.00
   13    9   26     -1.85      0.00
  -30   10   26     -0.50      0.00
  -28   10   26     -1.61      0.00
  -26   10   26     -4.24      0.00
  -24   10   26      1.42      0.00
  -22   10   26     -5.90      0.00
  -20   10   26      0.52      0.00
  -18   10   26     -1.25      0.00
  -16   10   26      9.17      0.00
  -14   10   26      0.05      0.00
  -12   10   26      1.34      0.00
  -10   10   26      2.43      0.00
   -8   10   26      4.44      0.00
   -6   10   26      3.14      0.00
   -4   10   26     -3.05      0.00
   -2   10   26      1.76      0.00
    0   10   26     -4.90      0.00
    2   10   26     -6.48      0.00
    4   10   26     -0.86      0.00
    6   10   26     -3.53      0.00
    8   10   26      0.83      0.00
   10   10   26      1.01      0.00
   12   10   26     -1.29      0.00
  -27   11   26     -0.53      0.00
  -25   11   26     -2.79      0.00
  -23   11   26      3.74      0.00
  -21   11   26      0.55      0.00
  -19   11   26      2.43      0.00
  -17   11   26     -0.43      0.00
  -15   11   26      4.14      0.00
  -13   11   26     -5.37      0.00
  -11   11   26     -1.51      0.00
   -9   11   26     -7.13      0.00
   -7   11   26     -7.42      0.00
   -5   11   26      4.89      0.00
   -3   11   26     -3.79      0.00
   -1   11   26     -7.07      0.00
    1   11   26     -2.81      0.00
    3   11   26      5.00      0.00
    5   11   26     -1.82      0.00
    7   11   26     15.74      0.00
    9   11   26      0.45      0.00
   11   11   26      3.35      0.00
  -26   12   26     -0.49      0.00
  -24   12   26     -0.57      0.00
  -22   12   26      4.23      0.00
  -20   12   26     11.03      0.00
  -18   12   26      5.55      0.00
  -16   12   26      0.09      0.00
  -14   12   26     -6.66      0.00
  -12   12   26      6.56      0.00
  -10   12   26      8.61      0.00
   -8   12   26      1.63      0.00
   -6   12   26      2.75      0.00
   -4   12   26     12.92      0.00
   -2   12   26      8.06      0.00
    0   12   26     -4.92      0.00
    2   12   26      0.04      0.00
    4   12   26     -1.44      0.00
    6   12   26      6.54      0.00
    8   12   26     -6.98      0.00
  -25   13   26      1.87      0.00
  -23   13   26     -5.03      0.00
  -21   13   26     -2.03      0.00
  -19   13   26     -2.57      0.00
  -17   13   26     -8.56      0.00
  -15   13   26     -0.38      0.00
  -13   13   26      5.32      0.00
  -11   13   26      4.59      0.00
   -9   13   26      4.50      0.00
   -7   13   26      2.90      0.00
   -5   13   26      7.00      0.00
   -3   13   26      2.92      0.00
   -1   13   26      1.84      0.00
    1   13   26      6.02      0.00
    3   13   26      4.38      0.00
    5   13   26     -6.04      0.00
    7   13   26     -7.88      0.00
  -22   14   26      0.57      0.00
  -20   14   26     -4.58      0.00
  -18   14   26     -7.53      0.00
  -16   14   26     -2.39      0.00
  -14   14   26    -11.39      0.00
  -12   14   26      3.74      0.00
  -10   14   26     -3.33      0.00
   -8   14   26      2.87      0.00
   -6   14   26     13.04      0.00
   -4   14   26      1.36      0.00
   -2   14   26      7.59      0.00
    0   14   26     -5.55      0.00
    2   14   26     -9.67      0.00
    4   14   26     -2.63      0.00
  -19   15   26      3.43      0.00
  -17   15   26     15.15      0.00
  -15   15   26      4.61      0.00
  -13   15   26     -7.12      0.00
  -11   15   26    -10.53      0.00
   -9   15   26    -11.57      0.00
   -7   15   26     -3.81      0.00
   -5   15   26      2.77      0.00
   -3   15   26      7.01      0.00
  -35    1   27     -1.23      0.00
  -33    1   27     -5.11      0.00
  -31    1   27     -1.32      0.00
  -29    1   27     -0.75      0.00
  -27    1   27    -11.13      0.00
  -25    1   27     -0.08      0.00
  -23    1   27      0.31      0.00
  -21    1   27      4.19      0.00
  -19    1   27      8.95      0.00
  -17    1   27     -8.98      0.00
  -15    1   27     -1.13      0.00
  -13    1   27      5.04      0.00
  -11    1   27      5.35      0.00
   -9    1   27     -0.17      0.00
   -7    1   27     -5.81      0.00
   -5    1   27     -1.01      0.00
   -3    1   27     -1.28      0.00
   -1    1   27     -1.63      0.00
    1    1   27     -6.79      0.00
    3    1   27      6.52      0.00
    5    1   27     -1.67      0.00
    7    1   27     -4.76      0.00
    9    1   27      3.38      0.00
   11    1   27      2.07      0.00
   13    1   27     -2.04      0.00
   15    1   27      0.60      0.00
   17    1   27     -4.74      0.00
  -36    2   27     -1.60      0.00
  -34    2   27      5.98      0.00
  -32    2   27      0.67      0.00
  -30    2   27     -1.93      0.00
  -28    2   27     -7.34      0.00
  -26    2   27     -2.31      0.00
  -24    2   27     -2.85      0.00
  -22    2   27     -9.18      0.00
  -20    2   27     -3.24      0.00
  -18    2   27     -2.53      0.00
  -16    2   27     -5.51      0.00
  -14    2   27     -4.41      0.00
  -12    2   27      6.78      0.00
  -10    2   27      3.71      0.00
   -8    2   27      2.99      0.00
   -6    2   27     -5.84      0.00
   -4    2   27      5.00      0.00
   -2    2   27      5.09      0.00
    0    2   27      2.83      0.00
    2    2   27     -0.12      0.00
    4    2   27     -0.92      0.00
    6    2   27      6.32      0.00
    8    2   27     -2.35      0.00
   10    2   27      3.26      0.00
   12    2   27      3.01      0.00
   14    2   27      0.95      0.00
   16    2   27     -0.25      0.00
  -35    3   27      1.32      0.00
  -33    3   27     -9.10      0.00
  -31    3   27      5.13      0.00
  -29    3   27     -1.75      0.00
  -27    3   27      6.52      0.00
  -25    3   27      0.16      0.00
  -23    3   27     -4.08      0.00
  -21    3   27      0.23      0.00
  -19    3   27      1.26      0.00
  -17    3   27      0.30      0.00
  -15    3   27      1.72      0.00
  -13    3   27     -1.64      0.00
  -11    3   27     -1.18      0.00
   -9    3   27      0.61      0.00
   -7    3   27     -1.11      0.00
   -5    3   27     -4.68      0.00
   -3    3   27      3.36      0.00
   -1    3   27      7.90      0.00
    1    3   27      4.70      0.00
    3    3   27      4.80      0.00
    5    3   27     -2.70      0.00
    7    3   27     -5.64      0.00
    9    3   27     -1.45      0.00
   11    3   27      0.38      0.00
   13    3   27     -3.03      0.00
   15    3   27      2.37      0.00
   17    3   27      1.07      0.00
  -34    4   27      0.84      0.00
  -32    4   27      5.77      0.00
  -30    4   27      3.40      0.00
  -28    4   27      0.29      0.00
  -26    4   27     -7.86      0.00
  -24    4   27      2.90      0.00
  -22    4   27      0.27      0.00
  -20    4   27     -3.63      0.00
  -18    4   27     10.06      0.00
  -16    4   27      1.92      0.00
  -14    4   27      4.41      0.00
  -12    4   27      8.85      0.00
  -10    4   27      5.85      0.00
   -8    4   27     -1.02      0.00
   -6    4   27      4.24      0.00
   -4    4   27      2.48      0.00
   -2    4   27      0.05      0.00
    0    4   27     -2.56      0.00
    2    4   27      4.34      0.00
    4    4   27      4.06      0.00
    6    4   27      4.20      0.00
    8    4   27     -3.89      0.00
   10    4   27     -1.24      0.00
   12    4   27      6.67      0.00
   14    4   27     -3.56      0.00
   16    4   27      0.47      0.00
  -35    5   27      1.42      0.00
  -33    5   27      3.80      0.00
  -31    5   27     -9.67      0.00
  -29    5   27     10.64      0.00
  -27    5   27     -1.64      0.00
  -25    5   27     -1.63      0.00
  -23    5   27     -4.15      0.00
  -21    5   27     -1.58      0.00
  -19    5   27      1.17      0.00
  -17    5   27     -9.81      0.00
  -15    5   27    -11.41      0.00
  -13    5   27     -0.57      0.00
  -11    5   27     -4.74      0.00
   -9    5   27    -12.52      0.00
   -7    5   27     -0.19      0.00
   -5    5   27     -2.71      0.00
   -3    5   27      3.94      0.00
   -1    5   27    -10.45      0.00
    1    5   27      0.19      0.00
    3    5   27     -2.71      0.00
    5    5   27     -0.01      0.00
    7    5   27      2.76      0.00
    9    5   27      2.82      0.00
   11    5   27     -1.96      0.00
   13    5   27      4.68      0.00
   15    5   27      2.29      0.00
  -34    6   27      1.25      0.00
  -32    6   27      5.08      0.00
  -30    6   27    -13.94      0.00
  -28    6   27     -1.69      0.00
  -26    6   27      5.43      0.00
  -24    6   27      0.94      0.00
  -22    6   27      3.27      0.00
  -20    6   27      5.15      0.00
  -18    6   27     -5.37      0.00
  -16    6   27      9.71      0.00
  -14    6   27     14.46      0.00
  -12    6   27     -1.67      0.00
  -10    6   27     -2.88      0.00
   -8    6   27     -7.72      0.00
   -6    6   27      1.73      0.00
   -4    6   27    -10.19      0.00
   -2    6   27     -5.21      0.00
    0    6   27     -2.24      0.00
    2    6   27      2.57      0.00
    4    6   27      8.93      0.00
    6    6   27     -0.01      0.00
    8    6   27      3.63      0.00
   10    6   27     -1.81      0.00
   12    6   27     -2.33      0.00
   14    6   27     -0.44      0.00
  -33    7   27      0.07      0.00
  -31    7   27      2.64      0.00
  -29    7   27      2.36      0.00
  -27    7   27      0.20      0.00
  -25    7   27     -6.97      0.00
  -23    7   27      5.07      0.00
  -21    7   27      8.43      0.00
  -19    7   27      8.19      0.00
  -17    7   27     -6.58      0.00
  -15    7   27      7.93      0.00
  -13    7   27      9.45      0.00
  -11    7   27     -2.09      0.00
   -9    7   27      5.91      0.00
   -7    7   27      2.17      0.00
   -5    7   27     -5.02      0.00
   -3    7   27     -4.94      0.00
   -1    7   27     -2.59      0.00
    1    7   27     -0.58      0.00
    3    7   27     -3.60      0.00
    5    7   27     -4.64      0.00
    7    7   27      0.13      0.00
    9    7   27      1.59      0.00
   11    7   27     -3.99      0.00
   13    7   27     -3.24      0.00
  -32    8   27     -1.83      0.00
  -30    8   27      4.47      0.00
  -28    8   27     -5.31      0.00
  -26    8   27      2.67      0.00
  -24    8   27     -2.56      0.00
  -22    8   27     -1.28      0.00
  -20    8   27     -5.91      0.00
  -18    8   27      2.48      0.00
  -16    8   27     -0.30      0.00
  -14    8   27     -4.25      0.00
  -12    8   27     -7.09      0.00
  -10    8   27     -1.36      0.00
   -8    8   27      2.66      0.00
   -6    8   27      7.50      0.00
   -4    8   27    -10.35      0.00
   -2    8   27     -0.13      0.00
    0    8   27      2.94      0.00
    2    8   27      5.27      0.00
    4    8   27      0.56      0.00
    6    8   27      2.87      0.00
    8    8   27      3.10      0.00
   10    8   27     -3.08      0.00
   12    8   27      3.55      0.00
  -31    9   27     -3.17      0.00
  -29    9   27     -1.71      0.00
  -27    9   27     -0.83      0.00
  -25    9   27     -0.34      0.00
  -23    9   27     -4.79      0.00
  -21    9   27      3.63      0.00
  -19    9   27     -5.50      0.00
  -17    9   27      5.80      0.00
  -15    9   27      1.49      0.00
  -13    9   27     -1.65      0.00
  -11    9   27     -1.44      0.00
   -9    9   27     -1.03      0.00
   -7    9   27      4.94      0.00
   -5    9   27      5.02      0.00
   -3    9   27     -0.30      0.00
   -1    9   27    -11.67      0.00
    1    9   27     -3.08      0.00
    3    9   27     -1.09      0.00
    5    9   27      1.72      0.00
    7    9   27     -6.02      0.00
    9    9   27    -12.30      0.00
   11    9   27     -5.65      0.00
  -28   10   27      0.50      0.00
  -26   10   27     -0.49      0.00
  -24   10   27      3.21      0.00
  -22   10   27     -3.66      0.00
  -20   10   27      1.79      0.00
  -18   10   27      3.26      0.00
  -16   10   27      0.59      0.00
  -14   10   27      0.88      0.00
  -12   10   27     -3.29      0.00
  -10   10   27     -4.60      0.00
   -8   10   27      0.44      0.00
   -6   10   27      4.92      0.00
   -4   10   27     -3.22      0.00
   -2   10   27      8.00      0.00
    0   10   27      4.74      0.00
    2   10   27     11.34      0.00
    4   10   27      2.28      0.00
    6   10   27      5.17      0.00
    8   10   27      3.77      0.00
   10   10   27     -6.02      0.00
  -25   11   27      0.16      0.00
  -23   11   27      1.54      0.00
  -21   11   27      6.17      0.00
  -19   11   27      5.92      0.00
  -17   11   27     -1.84      0.00
  -15   11   27     -3.59      0.00
  -13   11   27      4.38      0.00
  -11   11   27      3.81      0.00
   -9   11   27      6.31      0.00
   -7   11   27      1.36      0.00
   -5   11   27      0.03      0.00
   -3   11   27      1.06      0.00
   -1   11   27     -6.00      0.00
    1   11   27      2.59      0.00
    3   11   27      4.84      0.00
    5   11   27      3.32      0.00
    7   11   27      0.92      0.00
    9   11   27      1.08      0.00
  -26   12   27      0.96      0.00
  -24   12   27      1.28      0.00
  -22   12   27      7.37      0.00
  -20   12   27     -7.49      0.00
  -18   12   27     -5.97      0.00
  -16   12   27     -8.96      0.00
  -14   12   27     -0.39      0.00
  -12   12   27      8.57      0.00
  -10   12   27     -0.82      0.00
   -8   12   27      1.05      0.00
   -6   12   27      0.96      0.00
   -4   12   27      3.73      0.00
   -2   12   27      7.74      0.00
    0   12   27      3.04      0.00
    2   12   27     -1.58      0.00
    4   12   27      4.29      0.00
    6   12   27     -5.72      0.00
  -23   13   27     -3.56      0.00
  -21   13   27     -3.70      0.00
  -19   13   27      3.49      0.00
  -17   13   27      0.09      0.00
  -15   13   27     -2.53      0.00
  -13   13   27     -7.90      0.00
  -11   13   27     -8.13      0.00
   -9   13   27      2.25      0.00
   -7   13   27     -0.36      0.00
   -5   13   27    -11.34      0.00
   -3   13   27      1.48      0.00
   -1   13   27      0.50      0.00
    1   13   27     -9.00      0.00
    3   13   27     -3.50      0.00
    5   13   27      1.34      0.00
  -20   14   27      8.30      0.00
  -18   14   27     10.24      0.00
  -16   14   27      5.49      0.00
  -14   14   27     -7.75      0.00
  -12   14   27     -0.65      0.00
  -10   14   27      1.37      0.00
   -8   14   27     -4.25      0.00
   -6   14   27     -0.54      0.00
   -4   14   27     -2.44      0.00
   -2   14   27      3.10      0.00
    0   14   27     -4.33      0.00
  -15   15   27      6.61      0.00
  -13   15   27      3.95      0.00
  -11   15   27     -1.86      0.00
   -9   15   27      4.43      0.00
  -34    0   28     -0.52      0.00
  -32    0   28     -0.33      0.00
  -30    0   28     -0.92      0.00
  -28    0   28     -5.14      0.00
  -26    0   28     -2.15      0.00
  -24    0   28      2.45      0.00
  -22    0   28     11.61      0.00
  -20    0   28      7.92      0.00
  -18    0   28      0.38      0.00
  -16    0   28     -2.99      0.00
  -14    0   28     -8.16      0.00
  -12    0   28     -1.99      0.00
  -10    0   28      1.20      0.00
   -8    0   28      3.52      0.00
   -6    0   28      0.26      0.00
   -4    0   28     -4.02      0.00
   -2    0   28      1.44      0.00
    0    0   28     -2.21      0.00
    2    0   28      2.30      0.00
    4    0   28     -3.75      0.00
    6    0   28      8.65      0.00
    8    0   28     -1.92      0.00
   10    0   28     -0.68      0.00
   12    0   28      4.71      0.00
   14    0   28     -4.22      0.00
   16    0   28      3.67      0.00
  -33    1   28     -1.03      0.00
  -31    1   28     -4.46      0.00
  -29    1   28     -7.11      0.00
  -27    1   28      0.21      0.00
  -25    1   28     -2.49      0.00
  -23    1   28      0.44      0.00
  -21    1   28      5.89      0.00
  -19    1   28     12.46      0.00
  -17    1   28      5.65      0.00
  -15    1   28     -5.86      0.00
  -13    1   28      0.10      0.00
  -11    1   28      1.49      0.00
   -9    1   28      5.30      0.00
   -7    1   28     -0.35      0.00
   -5    1   28      7.45      0.00
   -3    1   28     -2.75      0.00
   -1    1   28     -6.34      0.00
    1    1   28      2.89      0.00
    3    1   28     -1.51      0.00
    5    1   28      2.96      0.00
    7    1   28      0.53      0.00
    9    1   28      7.41      0.00
   11    1   28      0.09      0.00
   13    1   28     -0.67      0.00
   15    1   28     -1.69      0.00
  -34    2   28     -0.77      0.00
  -32    2   28     -3.99      0.00
  -30    2   28     -8.22      0.00
  -28    2   28      3.19      0.00
  -26    2   28      0.03      0.00
  -24    2   28     -1.31      0.00
  -22    2   28     -3.05      0.00
  -20    2   28     -1.03      0.00
  -18    2   28     17.04      0.00
  -16    2   28      4.78      0.00
  -14    2   28     -5.00      0.00
  -12    2   28     -5.82      0.00
  -10    2   28     -6.84      0.00
   -8    2   28     -0.96      0.00
   -6    2   28     -5.38      0.00
   -4    2   28     -2.31      0.00
   -2    2   28      2.08      0.00
    0    2   28      1.78      0.00
    2    2   28     -2.41      0.00
    4    2   28      2.36      0.00
    6    2   28      1.86      0.00
    8    2   28     -7.86      0.00
   10    2   28      3.77      0.00
   12    2   28     -0.05      0.00
   14    2   28     -3.42      0.00
   16    2   28      0.09      0.00
  -35    3   28     -0.75      0.00
  -33    3   28      4.22      0.00
  -31    3   28     -5.37      0.00
  -29    3   28      7.11      0.00
  -27    3   28     -0.84      0.00
  -25    3   28      1.19      0.00
  -23    3   28      4.85      0.00
  -21    3   28      7.31      0.00
  -19    3   28      3.62      0.00
  -17    3   28     11.30      0.00
  -15    3   28      7.70      0.00
  -13    3   28      7.70      0.00
  -11    3   28      3.17      0.00
   -9    3   28      2.25      0.00
   -7    3   28      8.05      0.00
   -5    3   28     -5.40      0.00
   -3    3   28     -3.45      0.00
   -1    3   28      0.43      0.00
    1    3   28      2.39      0.00
    3    3   28     -5.80      0.00
    5    3   28     -2.83      0.00
    7    3   28      1.56      0.00
    9    3   28     -4.18      0.00
   11    3   28     -0.71      0.00
   13    3   28     -4.09      0.00
   15    3   28      0.55      0.00
  -34    4   28      1.43      0.00
  -32    4   28     -4.57      0.00
  -30    4   28     -3.18      0.00
  -28    4   28     -2.12      0.00
  -26    4   28      0.31      0.00
  -24    4   28      0.30      0.00
  -22    4   28     -0.81      0.00
  -20    4   28    -11.70      0.00
  -18    4   28     -7.93      0.00
  -16    4   28     -1.08      0.00
  -14    4   28      4.36      0.00
  -12    4   28      6.33      0.00
  -10    4   28     -0.33      0.00
   -8    4   28     -3.08      0.00
   -6    4   28      6.76      0.00
   -4    4   28      4.95      0.00
   -2    4   28      2.53      0.00
    0    4   28     -5.02      0.00
    2    4   28     -0.13      0.00
    4    4   28     -1.90      0.00
    6    4   28     -0.35      0.00
    8    4   28      2.93      0.00
   10    4   28     -5.27      0.00
   12    4   28      2.86      0.00
   14    4   28     -5.46      0.00
  -33    5   28     -1.16      0.00
  -31    5   28     -6.56      0.00
  -29    5   28      4.43      0.00
  -27    5   28      0.78      0.00
  -25    5   28     -2.67      0.00
  -23    5   28     -1.58      0.00
  -21    5   28     -4.16      0.00
  -19    5   28     -2.28      0.00
  -17    5   28      2.17      0.00
  -15    5   28      9.31      0.00
  -13    5   28     -8.06      0.00
  -11    5   28     -4.34      0.00
   -9    5   28      6.06      0.00
   -7    5   28     -0.68      0.00
   -5    5   28      3.88      0.00
   -3    5   28     -6.05      0.00
   -1    5   28     -1.64      0.00
    1    5   28      0.05      0.00
    3    5   28     -8.59      0.00
    5    5   28     -1.08      0.00
    7    5   28     -1.37      0.00
    9    5   28      5.59      0.00
   11    5   28     -2.88      0.00
   13    5   28     -0.75      0.00
  -32    6   28      9.42      0.00
  -30    6   28     -0.34      0.00
  -28    6   28      0.23      0.00
  -26    6   28     -4.99      0.00
  -24    6   28     -0.53      0.00
  -22    6   28      9.84      0.00
  -20    6   28      7.70      0.00
  -18    6   28     -2.86      0.00
  -16    6   28     -4.38      0.00
  -14    6   28      4.45      0.00
  -12    6   28      2.75      0.00
  -10    6   28     -6.62      0.00
   -8    6   28     -3.72      0.00
   -6    6   28     -2.37      0.00
   -4    6   28     -6.33      0.00
   -2    6   28      5.16      0.00
    0    6   28      1.49      0.00
    2    6   28     -0.14      0.00
    4    6   28      2.10      0.00
    6    6   28     -1.49      0.00
    8    6   28      2.24      0.00
   10    6   28     -0.43      0.00
   12    6   28      0.05      0.00
  -31    7   28      7.02      0.00
  -29    7   28     -6.07      0.00
  -27    7   28      3.60      0.00
  -25    7   28      0.12      0.00
  -23    7   28     -0.74      0.00
  -21    7   28    -14.97      0.00
  -19    7   28     -5.51      0.00
  -17    7   28      1.55      0.00
  -15    7   28    -11.80      0.00
  -13    7   28    -10.73      0.00
  -11    7   28     -3.53      0.00
   -9    7   28     13.84      0.00
   -7    7   28      5.03      0.00
   -5    7   28     -8.65      0.00
   -3    7   28      5.37      0.00
   -1    7   28     -4.71      0.00
    1    7   28     -0.86      0.00
    3    7   28     -5.99      0.00
    5    7   28     -4.98      0.00
    7    7   28     -2.29      0.00
    9    7   28     -2.59      0.00
   11    7   28      3.93      0.00
  -30    8   28      2.36      0.00
  -28    8   28     -3.14      0.00
  -26    8   28      4.37      0.00
  -24    8   28      0.35      0.00
  -22    8   28      1.12      0.00
  -20    8   28      4.68      0.00
  -18    8   28     -2.94      0.00
  -16    8   28     -7.99      0.00
  -14    8   28     -3.06      0.00
  -12    8   28     -2.17      0.00
  -10    8   28      6.16      0.00
   -8    8   28      5.42      0.00
   -6    8   28      2.60      0.00
   -4    8   28     -1.36      0.00
   -2    8   28      1.95      0.00
    0    8   28      2.73      0.00
    2    8   28      6.10      0.00
    4    8   28      5.77      0.00
    6    8   28     -2.57      0.00
    8    8   28     -6.02      0.00
   10    8   28     -2.21      0.00
  -29    9   28     -3.30      0.00
  -27    9   28     -3.31      0.00
  -25    9   28     -6.22      0.00
  -23    9   28     -6.17      0.00
  -21    9   28     -0.06      0.00
  -19    9   28     -0.26      0.00
  -17    9   28      2.29      0.00
  -15    9   28      8.01      0.00
  -13    9   28     -0.35      0.00
  -11    9   28     -1.68      0.00
   -9    9   28     -7.32      0.00
   -7    9   28      2.42      0.00
   -5    9   28     18.53      0.00
   -3    9   28      1.96      0.00
   -1    9   28      1.49      0.00
    1    9   28      3.56      0.00
    3    9   28      4.12      0.00
    5    9   28     -0.77      0.00
    7    9   28      8.04      0.00
    9    9   28      7.94      0.00
  -26   10   28     -0.11      0.00
  -24   10   28      3.98      0.00
  -22   10   28     -3.29      0.00
  -20   10   28     -2.57      0.00
  -18   10   28      3.55      0.00
  -16   10   28     -5.93      0.00
  -14   10   28     -1.40      0.00
  -12   10   28     -3.78      0.00
  -10   10   28      4.47      0.00
   -8   10   28      4.81      0.00
   -6   10   28     -5.68      0.00
   -4   10   28      8.55      0.00
   -2   10   28      4.38      0.00
    0   10   28      3.28      0.00
    2   10   28      3.10      0.00
    4   10   28     -2.89      0.00
    6   10   28      0.02      0.00
    8   10   28      3.96      0.00
  -25   11   28      3.56      0.00
  -23   11   28     -2.24      0.00
  -21   11   28     -2.13      0.00
  -19   11   28      6.28      0.00
  -17   11   28      2.58      0.00
  -15   11   28      2.16      0.00
  -13   11   28     -6.18      0.00
  -11   11   28     -2.27      0.00
   -9   11   28     -3.50      0.00
   -7   11   28     -3.07      0.00
   -5   11   28      0.88      0.00
   -3   11   28      5.91      0.00
   -1   11   28      6.55      0.00
    1   11   28     -6.42      0.00
    3   11   28      1.65      0.00
    5   11   28      0.02      0.00
    7   11   28      2.75      0.00
  -24   12   28      0.91      0.00
  -22   12   28     -4.08      0.00
  -20   12   28     -1.49      0.00
  -18   12   28     -0.99      0.00
  -16   12   28     -5.50      0.00
  -14   12   28    -11.33      0.00
  -12   12   28     -0.29      0.00
  -10   12   28      1.25      0.00
   -8   12   28     -2.45      0.00
   -6   12   28      2.88      0.00
   -4   12   28      1.80      0.00
   -2   12   28      7.50      0.00
    0   12   28     -5.06      0.00
    2   12   28     -7.27      0.00
    4   12   28      4.55      0.00
  -21   13   28      5.13      0.00
  -19   13   28      7.08      0.00
  -17   13   28      5.58      0.00
  -15   13   28      5.49      0.00
  -13   13   28     -5.79      0.00
  -11   13   28     11.98      0.00
   -9   13   28      1.93      0.00
   -7   13   28     -7.64      0.00
   -5   13   28      0.23      0.00
   -3   13   28      1.69      0.00
   -1   13   28     10.86      0.00
    1   13   28     -0.16      0.00
  -16   14   28      0.20      0.00
  -14   14   28      0.69      0.00
  -12   14   28      3.07      0.00
  -10   14   28     -3.81      0.00
   -8   14   28     -0.19      0.00
   -6   14   28     -1.35      0.00
  -33    1   29     -7.62      0.00
  -31    1   29     -5.86      0.00
  -29    1   29     -3.45      0.00
  -27    1   29     -2.95      0.00
  -25    1   29      5.57      0.00
  -23    1   29     -2.16      0.00
  -21    1   29     -1.53      0.00
  -19    1   29      7.61      0.00
  -17    1   29     -4.25      0.00
  -15    1   29      6.03      0.00
  -13    1   29     -2.47      0.00
  -11    1   29      2.24      0.00
   -9    1   29     -4.67      0.00
   -7    1   29      2.01      0.00
   -5    1   29      4.59      0.00
   -3    1   29      3.33      0.00
   -1    1   29      1.35      0.00
    1    1   29     -4.95      0.00
    3    1   29     -1.27      0.00
    5    1   29     -7.95      0.00
    7    1   29     -0.02      0.00
    9    1   29      4.41      0.00
   11    1   29     -1.59      0.00
   13    1   29     -0.29      0.00
  -34    2   29      4.79      0.00
  -32    2   29     -2.77      0.00
  -30    2   29      0.04      0.00
  -28    2   29      1.23      0.00
  -26    2   29     -2.66      0.00
  -24    2   29     -2.98      0.00
  -22    2   29     -7.36      0.00
  -20    2   29    -15.02      0.00
  -18    2   29      4.20      0.00
  -16    2   29      5.71      0.00
  -14    2   29      4.47      0.00
  -12    2   29      2.02      0.00
  -10    2   29      2.07      0.00
   -8    2   29      5.58      0.00
   -6    2   29     -8.28      0.00
   -4    2   29     -1.85      0.00
   -2    2   29      3.97      0.00
    0    2   29      4.60      0.00
    2    2   29      3.20      0.00
    4    2   29      2.73      0.00
    6    2   29     -7.01      0.00
    8    2   29     -9.75      0.00
   10    2   29      2.79      0.00
   12    2   29      0.48      0.00
   14    2   29     -5.88      0.00
  -33    3   29      2.35      0.00
  -31    3   29     -1.01      0.00
  -29    3   29    -10.41      0.00
  -27    3   29     -5.68      0.00
  -25    3   29     -0.58      0.00
  -23    3   29      5.57      0.00
  -21    3   29     -5.41      0.00
  -19    3   29    -19.68      0.00
  -17    3   29     -1.42      0.00
  -15    3   29     -6.48      0.00
  -13    3   29      0.95      0.00
  -11    3   29      9.74      0.00
   -9    3   29      1.24      0.00
   -7    3   29      1.50      0.00
   -5    3   29      5.16      0.00
   -3    3   29      8.03      0.00
   -1    3   29     -4.12      0.00
    1    3   29     -1.70      0.00
    3    3   29      0.82      0.00
    5    3   29     -3.27      0.00
    7    3   29      4.99      0.00
    9    3   29     -2.84      0.00
   11    3   29     -6.66      0.00
   13    3   29     -0.27      0.00
  -32    4   29      1.65      0.00
  -30    4   29      5.40      0.00
  -28    4   29     -2.40      0.00
  -26    4   29     -0.41      0.00
  -24    4   29     -3.23      0.00
  -22    4   29     -7.54      0.00
  -20    4   29     11.42      0.00
  -18    4   29      7.18      0.00
  -16    4   29     -8.94      0.00
  -14    4   29     -6.64      0.00
  -12    4   29      5.12      0.00
  -10    4   29      8.05      0.00
   -8    4   29     -2.05      0.00
   -6    4   29     12.87      0.00
   -4    4   29     -0.23      0.00
   -2    4   29     -0.56      0.00
    0    4   29     -0.14      0.00
    2    4   29      0.94      0.00
    4    4   29      5.22      0.00
    6    4   29     -2.80      0.00
    8    4   29     -1.04      0.00
   10    4   29      0.10      0.00
   12    4   29     -3.46      0.00
  -33    5   29     -0.80      0.00
  -31    5   29      5.46      0.00
  -29    5   29     -0.12      0.00
  -27    5   29     -4.62      0.00
  -25    5   29      1.51      0.00
  -23    5   29      5.08      0.00
  -21    5   29      3.97      0.00
  -19    5   29     -4.18      0.00
  -17    5   29    -17.24      0.00
  -15    5   29     -1.61      0.00
  -13    5   29     -2.86      0.00
  -11    5   29     -3.91      0.00
   -9    5   29      3.18      0.00
   -7    5   29    -10.85      0.00
   -5    5   29     -1.09      0.00
   -3    5   29      3.35      0.00
   -1    5   29      4.57      0.00
    1    5   29     -7.90      0.00
    3    5   29      1.57      0.00
    5    5   29      0.78      0.00
    7    5   29     -2.37      0.00
    9    5   29      5.15      0.00
   11    5   29      8.60      0.00
  -32    6   29      6.67      0.00
  -30    6   29    -10.74      0.00
  -28    6   29      8.29      0.00
  -26    6   29      1.72      0.00
  -24    6   29      0.16      0.00
  -22    6   29     -1.36      0.00
  -20    6   29     -0.95      0.00
  -18    6   29      3.59      0.00
  -16    6   29     -5.95      0.00
  -14    6   29      4.02      0.00
  -12    6   29     13.23      0.00
  -10    6   29      0.89      0.00
   -8    6   29     -6.15      0.00
   -6    6   29    -11.60      0.00
   -4    6   29      5.97      0.00
   -2    6   29      2.74      0.00
    0    6   29     -2.42      0.00
    2    6   29      4.78      0.00
    4    6   29      1.71      0.00
    6    6   29      1.05      0.00
    8    6   29     -2.48      0.00
   10    6   29     -5.19      0.00
  -31    7   29      1.23      0.00
  -29    7   29     -6.83      0.00
  -27    7   29      1.13      0.00
  -25    7   29      0.80      0.00
  -23    7   29     -1.98      0.00
  -21    7   29      1.07      0.00
  -19    7   29     -2.77      0.00
  -17    7   29     -1.86      0.00
  -15    7   29      2.32      0.00
  -13    7   29     10.39      0.00
  -11    7   29      1.08      0.00
   -9    7   29      8.43      0.00
   -7    7   29      3.11      0.00
   -5    7   29      1.01      0.00
   -3    7   29      0.49      0.00
   -1    7   29      0.51      0.00
    1    7   29      2.96      0.00
    3    7   29     -0.60      0.00
    5    7   29     -0.15      0.00
    7    7   29     -2.05      0.00
    9    7   29      3.20      0.00
  -30    8   29      1.77      0.00
  -28    8   29     -5.72      0.00
  -26    8   29      1.93      0.00
  -24    8   29     -3.06      0.00
  -22    8   29      3.72      0.00
  -20    8   29      0.60      0.00
  -18    8   29      1.28      0.00
  -16    8   29     11.59      0.00
  -14    8   29      8.46      0.00
  -12    8   29      4.95      0.00
  -10    8   29     -5.30      0.00
   -8    8   29     -8.61      0.00
   -6    8   29     25.57      0.00
   -4    8   29     -0.79      0.00
   -2    8   29      5.97      0.00
    0    8   29     -0.26      0.00
    2    8   29     11.09      0.00
    4    8   29      7.84      0.00
    6    8   29      8.55      0.00
    8    8   29     13.99      0.00
  -27    9   29     -6.11      0.00
  -25    9   29     -3.65      0.00
  -23    9   29      0.38      0.00
  -21    9   29     -6.21      0.00
  -19    9   29      2.45      0.00
  -17    9   29     -0.45      0.00
  -15    9   29      3.17      0.00
  -13    9   29     10.83      0.00
  -11    9   29     -1.60      0.00
   -9    9   29     -1.48      0.00
   -7    9   29      2.20      0.00
   -5    9   29      3.43      0.00
   -3    9   29    -12.31      0.00
   -1    9   29     -0.99      0.00
    1    9   29      3.83      0.00
    3    9   29      1.88      0.00
    5    9   29     -6.15      0.00
    7    9   29     -3.95      0.00
  -24   10   29      3.20      0.00
  -22   10   29     -4.07      0.00
  -20   10   29      3.82      0.00
  -18   10   29      2.19      0.00
  -16   10   29      0.43      0.00
  -14   10   29     -1.31      0.00
  -12   10   29      4.33      0.00
  -10   10   29      1.57      0.00
   -8   10   29      5.28      0.00
   -6   10   29     -2.50      0.00
   -4   10   29      2.51      0.00
   -2   10   29      7.57      0.00
    0   10   29     -3.88      0.00
    2   10   29      0.89      0.00
    4   10   29      5.19      0.00
    6   10   29     -3.35      0.00
  -23   11   29      1.82      0.00
  -21   11   29      8.56      0.00
  -19   11   29     -4.79      0.00
  -17   11   29     -4.76      0.00
  -15   11   29     -4.87      0.00
  -13   11   29      2.99      0.00
  -11   11   29     13.27      0.00
   -9   11   29      4.41      0.00
   -7   11   29      5.35      0.00
   -5   11   29     -3.99      0.00
   -3   11   29     -3.03      0.00
   -1   11   29      1.84      0.00
    1   11   29     -0.79      0.00
    3   11   29      6.14      0.00
    5   11   29      4.47      0.00
  -22   12   29      3.79      0.00
  -20   12   29    -11.86      0.00
  -18   12   29     -2.84      0.00
  -16   12   29     -1.95      0.00
  -14   12   29      6.11      0.00
  -12   12   29      6.88      0.00
  -10   12   29     -2.17      0.00
   -8   12   29     -0.76      0.00
   -6   12   29      0.77      0.00
   -4   12   29     -7.98      0.00
   -2   12   29      2.41      0.00
    0   12   29     -3.64      0.00
    2   12   29     -4.03      0.00
  -17   13   29      2.17      0.00
  -15   13   29     -2.14      0.00
  -13   13   29     -6.30      0.00
  -11   13   29      0.61      0.00
   -5   13   29      1.53      0.00
   -3   13   29     -0.18      0.00
  -32    0   30     -4.49      0.00
  -30    0   30      0.19      0.00
  -28    0   30     -5.42      0.00
  -26    0   30      5.00      0.00
  -24    0   30      1.01      0.00
  -22    0   30    -11.80      0.00
  -20    0   30     -3.34      0.00
  -18    0   30      0.14      0.00
  -16    0   30     11.54      0.00
  -14    0   30     -2.07      0.00
  -12    0   30      3.87      0.00
  -10    0   30      1.34      0.00
   -8    0   30      2.64      0.00
   -6    0   30      0.31      0.00
   -4    0   30      7.93      0.00
   -2    0   30      4.64      0.00
    0    0   30     -1.62      0.00
    2    0   30      1.03      0.00
    4    0   30     -9.17      0.00
    6    0   30      4.76      0.00
    8    0   30     -5.26      0.00
   10    0   30     -0.21      0.00
   12    0   30     -3.79      0.00
  -31    1   30     -4.78      0.00
  -29    1   30    -13.72      0.00
  -27    1   30     -3.31      0.00
  -25    1   30     -6.23      0.00
  -23    1   30     -3.34      0.00
  -21    1   30     -3.25      0.00
  -19    1   30     -3.12      0.00
  -17    1   30     18.95      0.00
  -15    1   30     12.09      0.00
  -13    1   30     -0.76      0.00
  -11    1   30    -12.15      0.00
   -9    1   30     -6.11      0.00
   -7    1   30      3.62      0.00
   -5    1   30     10.22      0.00
   -3    1   30      2.06      0.00
   -1    1   30     -1.01      0.00
    1    1   30      2.90      0.00
    3    1   30      0.50      0.00
    5    1   30     -7.82      0.00
    7    1   30     -3.72      0.00
    9    1   30      0.74      0.00
   11    1   30      2.52      0.00
  -32    2   30      6.87      0.00
  -30    2   30     -5.01      0.00
  -28    2   30     -0.61      0.00
  -26    2   30     -3.44      0.00
  -24    2   30      0.44      0.00
  -22    2   30     -1.46      0.00
  -20    2   30     -4.75      0.00
  -18    2   30      8.80      0.00
  -16    2   30     -0.49      0.00
  -14    2   30    -11.82      0.00
  -12    2   30      0.49      0.00
  -10    2   30     -3.31      0.00
   -8    2   30     -5.76      0.00
   -6    2   30      2.33      0.00
   -4    2   30      0.16      0.00
   -2    2   30      2.02      0.00
    0    2   30      0.20      0.00
    2    2   30      5.80      0.00
    4    2   30      4.78      0.00
    6    2   30     -1.65      0.00
    8    2   30      2.49      0.00
   10    2   30     -3.19      0.00
   12    2   30      5.27      0.00
  -31    3   30      6.67      0.00
  -29    3   30     -5.93      0.00
  -27    3   30     -0.72      0.00
  -25    3   30      1.50      0.00
  -23    3   30      3.86      0.00
  -21    3   30     10.18      0.00
  -19    3   30      7.49      0.00
  -17    3   30     -3.16      0.00
  -15    3   30     -2.24      0.00
  -13    3   30      8.13      0.00
  -11    3   30      0.50      0.00
   -9    3   30      1.04      0.00
   -7    3   30      6.25      0.00
   -5    3   30      2.14      0.00
   -3    3   30     -3.19      0.00
   -1    3   30     -2.25      0.00
    1    3   30     -1.34      0.00
    3    3   30     -2.44      0.00
    5    3   30      2.26      0.00
    7    3   30      0.03      0.00
    9    3   30     -4.18      0.00
   11    3   30     -0.51      0.00
  -32    4   30      6.83      0.00
  -30    4   30      4.17      0.00
  -28    4   30      4.49      0.00
  -26    4   30      3.88      0.00
  -24    4   30     -1.06      0.00
  -22    4   30      2.99      0.00
  -20    4   30      3.38      0.00
  -18    4   30    -11.23      0.00
  -16    4   30      3.60      0.00
  -14    4   30      3.94      0.00
  -12    4   30      0.32      0.00
  -10    4   30     -2.44      0.00
   -8    4   30     -8.35      0.00
   -6    4   30     -3.45      0.00
   -4    4   30      4.95      0.00
   -2    4   30      8.43      0.00
    0    4   30      1.10      0.00
    2    4   30      0.48      0.00
    4    4   30     -6.80      0.00
    6    4   30     -8.20      0.00
    8    4   30     -7.16      0.00
   10    4   30      7.87      0.00
  -31    5   30     -7.15      0.00
  -29    5   30      4.50      0.00
  -27    5   30      3.30      0.00
  -25    5   30     -2.58      0.00
  -23    5   30     -1.36      0.00
  -21    5   30     -7.52      0.00
  -19    5   30     -5.48      0.00
  -17    5   30      7.42      0.00
  -15    5   30      4.44      0.00
  -13    5   30      1.79      0.00
  -11    5   30      1.61      0.00
   -9    5   30      6.00      0.00
   -7    5   30     -2.15      0.00
   -5    5   30     -1.77      0.00
   -3    5   30     -2.08      0.00
   -1    5   30     -2.62      0.00
    1    5   30     -3.17      0.00
    3    5   30     -2.64      0.00
    5    5   30      3.20      0.00
    7    5   30      0.06      0.00
    9    5   30     -3.35      0.00
   11    5   30      2.29      0.00
  -30    6   30      0.59      0.00
  -28    6   30      3.88      0.00
  -26    6   30     -0.36      0.00
  -24    6   30     -1.39      0.00
  -22    6   30      6.79      0.00
  -20    6   30      3.13      0.00
  -18    6   30      5.60      0.00
  -16    6   30     -7.20      0.00
  -14    6   30      5.87      0.00
  -12    6   30     -5.94      0.00
  -10    6   30    -15.22      0.00
   -8    6   30     -3.47      0.00
   -6    6   30     -7.63      0.00
   -4    6   30     -0.17      0.00
   -2    6   30      5.00      0.00
    0    6   30     -0.25      0.00
    2    6   30      2.92      0.00
    4    6   30     -5.18      0.00
    6    6   30      1.75      0.00
    8    6   30      1.75      0.00
   10    6   30     -3.73      0.00
  -29    7   30     -3.85      0.00
  -27    7   30      2.46      0.00
  -25    7   30     -1.09      0.00
  -23    7   30     -1.92      0.00
  -21    7   30     -4.05      0.00
  -19    7   30      2.74      0.00
  -17    7   30      5.04      0.00
  -15    7   30     -7.56      0.00
  -13    7   30     -9.96      0.00
  -11    7   30     -2.98      0.00
   -9    7   30      2.52      0.00
   -7    7   30     19.25      0.00
   -5    7   30     -0.21      0.00
   -3    7   30     -3.91      0.00
   -1    7   30     -1.67      0.00
    1    7   30      4.41      0.00
    3    7   30      7.67      0.00
    5    7   30     -1.30      0.00
    7    7   30     -1.98      0.00
  -28    8   30     -3.22      0.00
  -26    8   30     -3.26      0.00
  -24    8   30      1.19      0.00
  -22    8   30      0.23      0.00
  -20    8   30      1.77      0.00
  -18    8   30    -10.36      0.00
  -16    8   30     -6.31      0.00
  -14    8   30     -0.88      0.00
  -12    8   30     -8.72      0.00
  -10    8   30    -12.89      0.00
   -8    8   30     -7.39      0.00
   -6    8   30     -2.00      0.00
   -4    8   30     -5.16      0.00
   -2    8   30      3.56      0.00
    0    8   30      2.45      0.00
    2    8   30      3.65      0.00
    4    8   30      2.16      0.00
    6    8   30     -5.73      0.00
  -25    9   30     -0.61      0.00
  -23    9   30     -3.63      0.00
  -21    9   30      2.69      0.00
  -19    9   30      1.39      0.00
  -17    9   30      1.78      0.00
  -15    9   30     -3.65      0.00
  -13    9   30      1.35      0.00
  -11    9   30     -2.59      0.00
   -9    9   30      4.28      0.00
   -7    9   30     -4.47      0.00
   -5    9   30      4.12      0.00
   -3    9   30      3.40      0.00
   -1    9   30      0.51      0.00
    1    9   30      0.62      0.00
    3    9   30     -1.84      0.00
    5    9   30     -4.05      0.00
  -22   10   30     -1.94      0.00
  -20   10   30     -7.66      0.00
  -18   10   30     -5.07      0.00
  -16   10   30      2.45      0.00
  -14   10   30     -1.64      0.00
  -12   10   30     -6.48      0.00
  -10   10   30      0.26      0.00
   -8   10   30     -4.48      0.00
   -6   10   30     -5.21      0.00
   -4   10   30      7.36      0.00
   -2   10   30      5.65      0.00
    0   10   30      3.49      0.00
    2   10   30     -2.94      0.00
    4   10   30      8.76      0.00
  -21   11   30     -5.37      0.00
  -19   11   30     -5.82      0.00
  -17   11   30     -3.04      0.00
  -15   11   30      4.27      0.00
  -13   11   30     -8.31      0.00
  -11   11   30     -7.46      0.00
   -9   11   30     -2.46      0.00
   -7   11   30     -5.10      0.00
   -5   11   30     -6.60      0.00
   -3   11   30     -5.43      0.00
   -1   11   30      0.01      0.00
    1   11   30     -2.51      0.00
   -4   12   30     -1.01      0.00
   -2   12   30     -3.58      0.00
  -31    1   31     -2.30      0.00
  -29    1   31     -3.80      0.00
  -27    1   31     -0.03      0.00
  -25    1   31     -3.29      0.00
  -23    1   31      6.17      0.00
  -21    1   31      9.82      0.00
  -19    1   31      3.64      0.00
  -17    1   31      3.11      0.00
  -15    1   31     -9.43      0.00
  -13    1   31     -1.28      0.00
  -11    1   31     -5.40      0.00
   -9    1   31     -3.47      0.00
   -7    1   31      6.59      0.00
   -5    1   31     -1.80      0.00
   -3    1   31     -1.70      0.00
   -1    1   31      0.69      0.00
    1    1   31     -4.95      0.00
    3    1   31      3.67      0.00
    5    1   31      2.83      0.00
    7    1   31      3.67      0.00
    9    1   31      1.18      0.00
  -30    2   31      9.74      0.00
  -28    2   31     -3.41      0.00
  -26    2   31     -5.86      0.00
  -24    2   31     -0.80      0.00
  -22    2   31     -1.54      0.00
  -20    2   31      5.57      0.00
  -18    2   31     -3.27      0.00
  -16    2   31     -8.11      0.00
  -14    2   31      6.17      0.00
  -12    2   31      4.57      0.00
  -10    2   31      6.45      0.00
   -8    2   31     -1.75      0.00
   -6    2   31    -13.08      0.00
   -4    2   31     -2.00      0.00
   -2    2   31     -0.37      0.00
    0    2   31     -1.72      0.00
    2    2   31      7.49      0.00
    4    2   31      5.86      0.00
    6    2   31     -2.56      0.00
    8    2   31     -4.26      0.00
   10    2   31      3.43      0.00
  -31    3   31     -1.00      0.00
  -29    3   31      0.76      0.00
  -27    3   31     -2.03      0.00
  -25    3   31     -0.37      0.00
  -23    3   31     -2.34      0.00
  -21    3   31     -4.04      0.00
  -19    3   31     -3.66      0.00
  -17    3   31      5.19      0.00
  -15    3   31      5.54      0.00
  -13    3   31     -6.60      0.00
  -11    3   31      0.89      0.00
   -9    3   31     -0.42      0.00
   -7    3   31     -7.26      0.00
   -5    3   31      5.24      0.00
   -3    3   31      0.70      0.00
   -1    3   31     -0.34      0.00
    1    3   31     -0.69      0.00
    3    3   31     -4.68      0.00
    5    3   31      3.92      0.00
    7    3   31     -7.02      0.00
    9    3   31     -4.95      0.00
  -30    4   31      1.79      0.00
  -28    4   31      2.55      0.00
  -26    4   31     -6.93      0.00
  -24    4   31     -3.47      0.00
  -22    4   31      1.50      0.00
  -20    4   31      1.55      0.00
  -18    4   31      7.49      0.00
  -16    4   31      5.82      0.00
  -14    4   31      0.15      0.00
  -12    4   31      7.09      0.00
  -10    4   31      7.34      0.00
   -8    4   31      0.20      0.00
   -6    4   31     -8.34      0.00
   -4    4   31      3.44      0.00
   -2    4   31      5.64      0.00
    0    4   31     -0.86      0.00
    2    4   31    -10.33      0.00
    4    4   31      6.61      0.00
    6    4   31      0.77      0.00
    8    4   31     -4.67      0.00
  -29    5   31     -4.95      0.00
  -27    5   31      0.27      0.00
  -25    5   31     -3.06      0.00
  -23    5   31     -3.84      0.00
  -21    5   31     -7.93      0.00
  -19    5   31      8.18      0.00
  -17    5   31     -0.14      0.00
  -15    5   31    -12.18      0.00
  -13    5   31    -10.20      0.00
  -11    5   31     -9.99      0.00
   -9    5   31      4.15      0.00
   -7    5   31     -5.43      0.00
   -5    5   31    -10.26      0.00
   -3    5   31      2.97      0.00
   -1    5   31     -4.59      0.00
    1    5   31      1.60      0.00
    3    5   31      2.46      0.00
    5    5   31     -1.07      0.00
    7    5   31      5.17      0.00
    9    5   31      5.01      0.00
  -30    6   31      2.14      0.00
  -28    6   31     -6.28      0.00
  -26    6   31      1.83      0.00
  -24    6   31      1.04      0.00
  -22    6   31     -0.59      0.00
  -20    6   31      2.36      0.00
  -18    6   31     -5.05      0.00
  -16    6   31    -12.16      0.00
  -14    6   31     -1.02      0.00
  -12    6   31      2.30      0.00
  -10    6   31     -8.53      0.00
   -8    6   31     -8.33      0.00
   -6    6   31      3.49      0.00
   -4    6   31      1.40      0.00
   -2    6   31      1.10      0.00
    0    6   31      0.20      0.00
    2    6   31      1.96      0.00
    4    6   31      1.14      0.00
    6    6   31      1.56      0.00
    8    6   31     -0.40      0.00
  -27    7   31     -6.14      0.00
  -25    7   31     -4.82      0.00
  -23    7   31     -4.93      0.00
  -21    7   31      1.07      0.00
  -19    7   31     -7.77      0.00
  -17    7   31      0.88      0.00
  -15    7   31     -1.61      0.00
  -13    7   31     -3.01      0.00
  -11    7   31      9.90      0.00
   -9    7   31      8.98      0.00
   -7    7   31      3.11      0.00
   -5    7   31      2.18      0.00
   -3    7   31      1.52      0.00
   -1    7   31     11.08      0.00
    1    7   31      0.35      0.00
    3    7   31     11.32      0.00
    5    7   31     -0.82      0.00
  -26    8   31      0.22      0.00
  -24    8   31     -0.77      0.00
  -22    8   31      4.51      0.00
  -20    8   31     -1.32      0.00
  -18    8   31     -2.82      0.00
  -16    8   31     -6.38      0.00
  -14    8   31      2.40      0.00
  -12    8   31     14.48      0.00
  -10    8   31     -1.90      0.00
   -8    8   31     -1.12      0.00
   -6    8   31     10.96      0.00
   -4    8   31      5.03      0.00
   -2    8   31     -3.34      0.00
    0    8   31     -0.94      0.00
    2    8   31     -7.98      0.00
    4    8   31      9.13      0.00
  -23    9   31     -1.55      0.00
  -21    9   31     -2.02      0.00
  -19    9   31      0.41      0.00
  -17    9   31      6.07      0.00
  -15    9   31      4.81      0.00
  -13    9   31      0.45      0.00
  -11    9   31      6.31      0.00
   -9    9   31     11.46      0.00
   -7    9   31     -4.09      0.00
   -5    9   31     12.08      0.00
   -3    9   31     -1.26      0.00
   -1    9   31      2.01      0.00
    1    9   31     -4.30      0.00
    3    9   31     -0.33      0.00
  -20   10   31     -2.62      0.00
  -18   10   31     -2.82      0.00
  -16   10   31     -5.13      0.00
  -14   10   31     -9.49      0.00
  -12   10   31     -3.06      0.00
  -10   10   31      4.50      0.00
   -8   10   31      1.77      0.00
   -6   10   31      1.12      0.00
   -4   10   31     -7.29      0.00
   -2   10   31     -2.65      0.00
    0   10   31     -6.82      0.00
   -5   11   31      5.36      0.00
   -3   11   31     -6.11      0.00
  -28    0   32     -5.38      0.00
  -26    0   32     -4.74      0.00
  -24    0   32     -3.74      0.00
  -22    0   32      3.28      0.00
  -20    0   32      7.62      0.00
  -18    0   32     -0.84      0.00
  -16    0   32     -7.19      0.00
  -14    0   32      1.78      0.00
  -12    0   32     14.35      0.00
  -10    0   32     -2.00      0.00
   -8    0   32     -9.01      0.00
   -6    0   32    -12.60      0.00
   -4    0   32     -0.99      0.00
   -2    0   32      9.31      0.00
    0    0   32     -4.91      0.00
    2    0   32     -3.04      0.00
    4    0   32     14.06      0.00
    6    0   32      3.28      0.00
    8    0   32      2.70      0.00
  -29    1   32     -2.82      0.00
  -27    1   32     -1.43      0.00
  -25    1   32     -3.41      0.00
  -23    1   32     -2.83      0.00
  -21    1   32     -5.05      0.00
  -19    1   32     -2.88      0.00
  -17    1   32      5.69      0.00
  -15    1   32     15.45      0.00
  -13    1   32      4.96      0.00
  -11    1   32      1.52      0.00
   -9    1   32      1.04      0.00
   -7    1   32     -0.93      0.00
   -5    1   32      2.75      0.00
   -3    1   32     -2.93      0.00
   -1    1   32     -0.45      0.00
    1    1   32      4.14      0.00
    3    1   32      3.95      0.00
    5    1   32     -2.50      0.00
    7    1   32     -3.88      0.00
  -30    2   32      8.17      0.00
  -28    2   32     -6.41      0.00
  -26    2   32     -0.15      0.00
  -24    2   32     -2.79      0.00
  -22    2   32     -2.21      0.00
  -20    2   32      1.82      0.00
  -18    2   32     -0.35      0.00
  -16    2   32      1.75      0.00
  -14    2   32     -8.10      0.00
  -12    2   32      3.13      0.00
  -10    2   32      0.54      0.00
   -8    2   32    -10.73      0.00
   -6    2   32     -4.65      0.00
   -4    2   32      3.62      0.00
   -2    2   32     -1.71      0.00
    0    2   32      5.55      0.00
    2    2   32      1.26      0.00
    4    2   32      0.90      0.00
    6    2   32      5.05      0.00
    8    2   32     -5.62      0.00
  -29    3   32      0.01      0.00
  -27    3   32      2.29      0.00
  -25    3   32     -0.97      0.00
  -23    3   32      1.63      0.00
  -21    3   32      4.31      0.00
  -19    3   32      4.75      0.00
  -17    3   32      9.22      0.00
  -15    3   32     11.12      0.00
  -13    3   32      7.61      0.00
  -11    3   32      9.77      0.00
   -9    3   32     -0.55      0.00
   -7    3   32     -0.53      0.00
   -5    3   32     -0.07      0.00
   -3    3   32      4.20      0.00
   -1    3   32      3.20      0.00
    1    3   32    -10.51      0.00
    3    3   32      1.94      0.00
    5    3   32      0.31      0.00
    7    3   32     -2.08      0.00
  -28    4   32     -4.72      0.00
  -26    4   32      1.07      0.00
  -24    4   32     -1.67      0.00
  -22    4   32     -0.26      0.00
  -20    4   32      1.27      0.00
  -18    4   32      2.08      0.00
  -16    4   32     -0.56      0.00
  -14    4   32     -7.90      0.00
  -12    4   32      0.65      0.00
  -10    4   32     -3.94      0.00
   -8    4   32      5.43      0.00
   -6    4   32     -2.47      0.00
   -4    4   32     -5.09      0.00
   -2    4   32      2.05      0.00
    0    4   32     -3.19      0.00
    2    4   32      3.79      0.00
    4    4   32     -7.41      0.00
    6    4   32     -1.43      0.00
  -29    5   32     -2.57      0.00
  -27    5   32     -0.01      0.00
  -25    5   32     -4.21      0.00
  -23    5   32     -6.84      0.00
  -21    5   32     -4.05      0.00
  -19    5   32     -1.86      0.00
  -17    5   32     -4.74      0.00
  -15    5   32     -4.40      0.00
  -13    5   32      6.09      0.00
  -11    5   32     -3.12      0.00
   -9    5   32     -0.13      0.00
   -7    5   32      3.17      0.00
   -5    5   32     -0.64      0.00
   -3    5   32     -3.36      0.00
   -1    5   32     -2.81      0.00
    1    5   32      2.04      0.00
    3    5   32      2.17      0.00
    5    5   32      2.02      0.00
  -28    6   32     -5.18      0.00
  -26    6   32     -1.79      0.00
  -24    6   32     -0.37      0.00
  -22    6   32      7.18      0.00
  -20    6   32      3.31      0.00
  -18    6   32      1.31      0.00
  -16    6   32     10.58      0.00
  -14    6   32      2.88      0.00
  -12    6   32      6.82      0.00
  -10    6   32      2.84      0.00
   -8    6   32      1.37      0.00
   -6    6   32      9.91      0.00
   -4    6   32     -0.21      0.00
   -2    6   32      9.38      0.00
    0    6   32      2.03      0.00
    2    6   32      1.72      0.00
    4    6   32      7.84      0.00
  -25    7   32     -3.06      0.00
  -23    7   32      4.18      0.00
  -21    7   32      0.62      0.00
  -19    7   32      5.03      0.00
  -17    7   32      5.52      0.00
  -15    7   32     -0.47      0.00
  -13    7   32     17.94      0.00
  -11    7   32     11.27      0.00
   -9    7   32      0.28      0.00
   -7    7   32     -4.01      0.00
   -5    7   32     -1.27      0.00
   -3    7   32      6.24      0.00
   -1    7   32     14.94      0.00
    1    7   32     -4.33      0.00
    3    7   32      5.17      0.00
  -24    8   32      0.05      0.00
  -22    8   32     -1.69      0.00
  -20    8   32      6.08      0.00
  -18    8   32      0.54      0.00
  -16    8   32     -0.12      0.00
  -14    8   32     -1.07      0.00
  -12    8   32    -10.10      0.00
  -10    8   32      0.27      0.00
   -8    8   32     -4.49      0.00
   -6    8   32     -1.81      0.00
   -4    8   32      0.68      0.00
   -2    8   32     -1.20      0.00
    0    8   32     -3.87      0.00
    2    8   32     -2.14      0.00
  -21    9   32      1.58      0.00
  -19    9   32      1.15      0.00
  -17    9   32      4.25      0.00
  -15    9   32      6.38      0.00
  -13    9   32      0.77      0.00
  -11    9   32     -1.29      0.00
   -9    9   32     -9.00      0.00
   -7    9   32     -9.47      0.00
   -5    9   32     -3.18      0.00
   -3    9   32      6.14      0.00
   -1    9   32      1.16      0.00
  -14   10   32      7.35      0.00
  -12   10   32      0.35      0.00
  -10   10   32    -10.80      0.00
   -8   10   32      5.16      0.00
   -6   10   32     -2.10      0.00
   -4   10   32     -2.30      0.00
   -2   10   32     -2.12      0.00
  -27    1   33     -0.84      0.00
  -25    1   33     -1.89      0.00
  -23    1   33      2.19      0.00
  -21    1   33     -1.37      0.00
  -19    1   33     -0.84      0.00
  -17    1   33      5.31      0.00
  -15    1   33     -0.13      0.00
  -13    1   33     -9.12      0.00
  -11    1   33      4.61      0.00
   -9    1   33      7.25      0.00
   -7    1   33      9.73      0.00
   -5    1   33      0.60      0.00
   -3    1   33      0.20      0.00
   -1    1   33     -0.12      0.00
    1    1   33     -1.92      0.00
    3    1   33     -6.22      0.00
    5    1   33      3.26      0.00
  -28    2   33     -0.75      0.00
  -26    2   33     -0.54      0.00
  -24    2   33      1.26      0.00
  -22    2   33      0.81      0.00
  -20    2   33     -2.77      0.00
  -18    2   33     -1.18      0.00
  -16    2   33      0.69      0.00
  -14    2   33     -0.03      0.00
  -12    2   33     -0.15      0.00
  -10    2   33      1.04      0.00
   -8    2   33     -2.40      0.00
   -6    2   33     -8.13      0.00
   -4    2   33      0.21      0.00
   -2    2   33     -9.76      0.00
    0    2   33     -0.53      0.00
    2    2   33      1.42      0.00
    4    2   33     -3.24      0.00
  -27    3   33      1.41      0.00
  -25    3   33     -3.99      0.00
  -23    3   33     -4.42      0.00
  -21    3   33     -5.49      0.00
  -19    3   33     -1.46      0.00
  -17    3   33     10.00      0.00
  -15    3   33      0.16      0.00
  -13    3   33      6.92      0.00
  -11    3   33      2.52      0.00
   -9    3   33      8.85      0.00
   -7    3   33      7.77      0.00
   -5    3   33    -11.76      0.00
   -3    3   33      5.78      0.00
   -1    3   33     -3.37      0.00
    1    3   33     -4.18      0.00
    3    3   33     -2.51      0.00
    5    3   33      1.69      0.00
  -26    4   33     -1.24      0.00
  -24    4   33     -1.29      0.00
  -22    4   33     -6.28      0.00
  -20    4   33    -10.24      0.00
  -18    4   33     -3.09      0.00
  -16    4   33     -6.79      0.00
  -14    4   33      4.96      0.00
  -12    4   33      0.03      0.00
  -10    4   33      5.38      0.00
   -8    4   33      4.59      0.00
   -6    4   33      1.31      0.00
   -4    4   33     -6.07      0.00
   -2    4   33     -0.91      0.00
    0    4   33     -4.56      0.00
    2    4   33     -0.89      0.00
    4    4   33      2.55      0.00
  -27    5   33     -5.74      0.00
  -25    5   33      0.13      0.00
  -23    5   33     -2.12      0.00
  -21    5   33      0.29      0.00
  -19    5   33     -0.45      0.00
  -17    5   33      1.97      0.00
  -15    5   33      5.96      0.00
  -13    5   33      1.05      0.00
  -11    5   33     13.33      0.00
   -9    5   33      8.35      0.00
   -7    5   33     -4.69      0.00
   -5    5   33      3.14      0.00
   -3    5   33      2.52      0.00
   -1    5   33      7.51      0.00
    1    5   33     -0.38      0.00
    3    5   33     -1.87      0.00
  -26    6   33      6.00      0.00
  -24    6   33      7.83      0.00
  -22    6   33     -0.30      0.00
  -20    6   33     -2.76      0.00
  -18    6   33      0.24      0.00
  -16    6   33      5.82      0.00
  -14    6   33      1.06      0.00
  -12    6   33      9.49      0.00
  -10    6   33    -11.39      0.00
   -8    6   33    -10.25      0.00
   -6    6   33     -6.61      0.00
   -4    6   33      5.07      0.00
   -2    6   33     16.64      0.00
    0    6   33      5.84      0.00
    2    6   33     -3.01      0.00
  -23    7   33     -1.91      0.00
  -21    7   33     -0.91      0.00
  -19    7   33      1.23      0.00
  -17    7   33     -3.86      0.00
  -15    7   33     -7.48      0.00
  -13    7   33     -2.92      0.00
  -11    7   33     -1.55      0.00
   -9    7   33      4.75      0.00
   -7    7   33     -8.36      0.00
   -5    7   33      3.84      0.00
   -3    7   33      4.56      0.00
   -1    7   33      0.60      0.00
    1    7   33      7.61      0.00
  -20    8   33      1.65      0.00
  -18    8   33     -1.95      0.00
  -16    8   33      3.95      0.00
  -14    8   33     -6.77      0.00
  -12    8   33     -5.81      0.00
  -10    8   33      1.51      0.00
   -8    8   33      2.51      0.00
   -6    8   33     -0.46      0.00
   -4    8   33     -1.63      0.00
   -2    8   33     -4.77      0.00
  -17    9   33      1.66      0.00
  -15    9   33      1.04      0.00
  -13    9   33      5.74      0.00
  -11    9   33     -4.17      0.00
   -9    9   33     -1.55      0.00
   -7    9   33      3.24      0.00
   -5    9   33      5.78      0.00
  -24    0   34     -0.14      0.00
  -22    0   34     -2.21      0.00
  -20    0   34     -1.74      0.00
  -18    0   34      2.35      0.00
  -16    0   34      0.84      0.00
  -14    0   34     -5.01      0.00
  -12    0   34      8.12      0.00
  -10    0   34     17.63      0.00
   -8    0   34      8.54      0.00
   -6    0   34     -4.64      0.00
   -4    0   34      9.95      0.00
   -2    0   34     -7.39      0.00
    0    0   34      0.10      0.00
  -25    1   34      0.34      0.00
  -23    1   34     -3.99      0.00
  -21    1   34     -5.76      0.00
  -19    1   34     -0.88      0.00
  -17    1   34      2.60      0.00
  -15    1   34     -3.09      0.00
  -13    1   34     -9.63      0.00
  -11    1   34      4.55      0.00
   -9    1   34      1.43      0.00
   -7    1   34      0.91      0.00
   -5    1   34     -6.35      0.00
   -3    1   34     -3.45      0.00
   -1    1   34      9.19      0.00
    1    1   34      5.40      0.00
  -24    2   34     -0.46      0.00
  -22    2   34     -3.36      0.00
  -20    2   34      1.42      0.00
  -18    2   34     -0.19      0.00
  -16    2   34     -4.84      0.00
  -14    2   34      0.07      0.00
  -12    2   34     -1.01      0.00
  -10    2   34     -1.21      0.00
   -8    2   34     -0.13      0.00
   -6    2   34      2.56      0.00
   -4    2   34     -5.74      0.00
   -2    2   34     -0.25      0.00
    0    2   34     -0.54      0.00
    2    2   34      2.71      0.00
  -25    3   34     -2.18      0.00
  -23    3   34     -2.02      0.00
  -21    3   34      1.88      0.00
  -19    3   34      2.38      0.00
  -17    3   34      2.89      0.00
  -15    3   34      9.79      0.00
  -13    3   34      6.81      0.00
  -11    3   34     -0.22      0.00
   -9    3   34     -0.49      0.00
   -7    3   34      3.11      0.00
   -5    3   34      6.64      0.00
   -3    3   34     11.70      0.00
   -1    3   34      1.25      0.00
    1    3   34     -3.62      0.00
  -24    4   34     -3.56      0.00
  -22    4   34     -2.04      0.00
  -20    4   34     -0.62      0.00
  -18    4   34     -1.03      0.00
  -16    4   34     -1.33      0.00
  -14    4   34     -9.02      0.00
  -12    4   34      2.22      0.00
  -10    4   34     11.83      0.00
   -8    4   34      1.57      0.00
   -6    4   34      4.04      0.00
   -4    4   34     -3.61      0.00
   -2    4   34     -0.23      0.00
    0    4   34      8.95      0.00
    2    4   34     -0.95      0.00
  -23    5   34     -1.70      0.00
  -21    5   34      0.12      0.00
  -19    5   34      3.10      0.00
  -17    5   34      3.53      0.00
  -15    5   34     -0.94      0.00
  -13    5   34     -5.92      0.00
  -11    5   34     -2.83      0.00
   -9    5   34    -11.77      0.00
   -7    5   34     -3.71      0.00
   -5    5   34      8.05      0.00
   -3    5   34      1.45      0.00
   -1    5   34      7.95      0.00
    1    5   34     -1.93      0.00
  -22    6   34     -1.35      0.00
  -20    6   34      0.13      0.00
  -18    6   34      1.19      0.00
  -16    6   34      0.41      0.00
  -14    6   34     -1.43      0.00
  -12    6   34      0.34      0.00
  -10    6   34      2.49      0.00
   -8    6   34      9.45      0.00
   -6    6   34     -4.72      0.00
   -4    6   34     -3.13      0.00
   -2    6   34      3.93      0.00
  -21    7   34     -2.33      0.00
  -19    7   34      0.45      0.00
  -17    7   34      1.06      0.00
  -15    7   34     -0.66      0.00
  -13    7   34      1.33      0.00
  -11    7   34      8.05      0.00
   -9    7   34      8.66      0.00
   -7    7   34      0.76      0.00
   -5    7   34     -3.21      0.00
   -3    7   34     -3.64      0.00
  -16    8   34     -0.42      0.00
  -14    8   34     -0.69      0.00
  -12    8   34      9.43      0.00
  -10    8   34      9.12      0.00
   -8    8   34      3.97      0.00
   -6    8   34     -2.15      0.00
  -21    1   35     -0.71      0.00
  -19    1   35     -3.04      0.00
  -17    1   35      1.44      0.00
  -15    1   35      1.09      0.00
  -13    1   35     -0.26      0.00
  -11    1   35    -15.20      0.00
   -9    1   35     -3.48      0.00
   -7    1   35     12.47      0.00
   -5    1   35     -4.33      0.00
   -3    1   35     12.57      0.00
  -22    2   35      2.77      0.00
  -20    2   35      4.64      0.00
  -18    2   35     -4.41      0.00
  -16    2   35      2.95      0.00
  -14    2   35      6.29      0.00
  -12    2   35     -9.82      0.00
  -10    2   35      0.29      0.00
   -8    2   35     -4.46      0.00
   -6    2   35     11.29      0.00
   -4    2   35     -4.45      0.00
   -2    2   35     -1.80      0.00
  -23    3   35     -0.85      0.00
  -21    3   35     -0.55      0.00
  -19    3   35     -1.03      0.00
  -17    3   35      3.24      0.00
  -15    3   35     -5.25      0.00
  -13    3   35     -1.36      0.00
  -11    3   35      9.35      0.00
   -9    3   35      4.89      0.00
   -7    3   35     -6.02      0.00
   -5    3   35      8.10      0.00
   -3    3   35      0.82      0.00
  -22    4   35     -4.26      0.00
  -20    4   35     -1.05      0.00
  -18    4   35     -6.46      0.00
  -16    4   35     -5.22      0.00
  -14    4   35    -10.62      0.00
  -12    4   35      2.96      0.00
  -10    4   35     -0.15      0.00
   -8    4   35     12.98      0.00
   -6    4   35     -2.85      0.00
   -4    4   35     -5.76      0.00
   -2    4   35     -3.59      0.00
  -21    5   35      1.73      0.00
  -19    5   35     -0.60      0.00
  -17    5   35      5.88      0.00
  -15    5   35      1.76      0.00
  -13    5   35      2.32      0.00
  -11    5   35      2.10      0.00
   -9    5   35     11.08      0.00
   -7    5   35      3.24      0.00
   -5    5   35     -5.94      0.00
  -18    6   35     -1.06      0.00
  -16    6   35     -2.10      0.00
  -14    6   35      2.24      0.00
  -12    6   35      3.88      0.00
  -10    6   35      3.78      0.00
   -8    6   35      0.40      0.00
   -6    6   35      0.27      0.00
   -9    7   35      6.48      0.00
  -14    0   36      7.80      0.00
  -12    0   36    -14.56      0.00
  -10    0   36      0.11      0.00
  -17    1   36     -0.89      0.00
  -15    1   36     -0.99      0.00
  -13    1   36     -8.83      0.00
  -11    1   36     -4.88      0.00
   -9    1   36     -3.37      0.00
   -7    1   36      6.06      0.00
  -18    2   36      3.14      0.00
  -16    2   36     -0.93      0.00
  -14    2   36     -4.05      0.00
  -12    2   36      7.30      0.00
  -10    2   36      3.48      0.00
   -8    2   36    -16.58      0.00
  -17    3   36      3.63      0.00
  -15    3   36      2.53      0.00
  -13    3   36      4.88      0.00
  -11    3   36     -5.57      0.00
   -9    3   36      7.40      0.00
   -7    3   36     -2.87      0.00
  -16    4   36      9.22      0.00
  -14    4   36      3.94      0.00
  -12    4   36      0.76      0.00
  -10    4   36      8.81      0.00
   -8    4   36     10.85      0.00
    2    0    0    169.62      0.00
   40    0    0      9.98      0.00
    1    1    0     -8.63      0.00
   40    4    0      3.40      0.00
   38    8    0     -3.90      0.00
   37    9    0      0.29      0.00
   36   10    0     -2.94      0.00
   35   11    0      0.32      0.00
   34   12    0      7.99      0.00
   33   13    0     10.27      0.00
   32   14    0      7.40      0.00
   27   17    0     -1.45      0.00
   15   21    0      7.11      0.00
    0   22    0     10.90      0.00
    2   22    0      1.26      0.00
    4   22    0     -1.65      0.00
    6   22    0     -3.29      0.00
    8   22    0     -2.79      0.00
   10   22    0      0.58      0.00
  -41    1    1      9.11      0.00
   -1    1    1   -709.16      0.00
   40    2    1      1.83      0.00
  -39    7    1     -0.59      0.00
  -38    8    1     -4.37      0.00
  -37    9    1     -4.34      0.00
   37    9    1      0.08      0.00
  -36   10    1      2.63      0.00
   36   10    1      6.21      0.00
  -35   11    1     -0.83      0.00
   35   11    1      4.24      0.00
  -34   12    1      5.89      0.00
   34   12    1      8.36      0.00
  -33   13    1     -2.54      0.00
   33   13    1     -7.09      0.00
  -32   14    1     -0.76      0.00
  -31   15    1    -19.78      0.00
   28   16    1     -7.65      0.00
  -27   17    1     -0.69      0.00
  -20   20    1     -3.17      0.00
  -15   21    1     10.12      0.00
   15   21    1      5.71      0.00
  -10   22    1     -6.20      0.00
   -8   22    1     -1.35      0.00
   -6   22    1     -3.63      0.00
    0   22    1     -1.12      0.00
    2   22    1     -3.85      0.00
    4   22    1     -4.96      0.00
    6   22    1      2.40      0.00
    8   22    1     -2.65      0.00
   10   22    1      3.83      0.00
    0    0    2    203.84      0.00
   40    0    2     39.50      0.00
  -41    1    2     -8.21      0.00
  -41    3    2      2.31      0.00
   39    5    2      5.10      0.00
  -39    7    2     -4.02      0.00
  -35   11    2     -1.78      0.00
  -34   12    2    -11.39      0.00
  -33   13    2     11.26      0.00
   31   13    2     -3.65      0.00
  -32   14    2     -2.19      0.00
   30   14    2      6.50      0.00
  -31   15    2     10.24      0.00
   29   15    2     -9.72      0.00
   28   16    2    -10.55      0.00
   24   18    2     -3.94      0.00
  -23   19    2     -0.99      0.00
  -20   20    2     -4.20      0.00
   18   20    2     -6.92      0.00
  -15   21    2      3.22      0.00
   13   21    2      3.00      0.00
   15   21    2     -4.85      0.00
  -10   22    2     13.73      0.00
   -8   22    2     -5.46      0.00
    0   22    2      8.52      0.00
    2   22    2     10.41      0.00
    4   22    2      4.17      0.00
    6   22    2      5.66      0.00
    8   22    2     -1.37      0.00
   10   22    2      1.11      0.00
   39    1    3    -25.25      0.00
  -41    3    3     11.37      0.00
   39    3    3     29.26      0.00
  -40    6    3      7.54      0.00
   38    6    3      4.29      0.00
   31   13    3     -8.14      0.00
   30   14    3      1.71      0.00
  -31   15    3    -12.79      0.00
   29   15    3     -4.10      0.00
  -23   19    3     -3.35      0.00
   21   19    3      3.17      0.00
  -20   20    3      3.36      0.00
   18   20    3      9.25      0.00
   13   21    3      3.11      0.00
  -10   22    3     -8.75      0.00
   -8   22    3      2.42      0.00
    2   22    3      5.27      0.00
    4   22    3     -3.99      0.00
    6   22    3     -4.07      0.00
    8   22    3     -3.37      0.00
   38    0    4      9.50      0.00
   39    1    4    -30.83      0.00
  -40    6    4     24.73      0.00
   37    7    4      1.23      0.00
   32   12    4      4.19      0.00
   31   13    4     -8.76      0.00
   30   14    4      5.37      0.00
   -9   15    4      0.09      0.00
   29   15    4     -4.60      0.00
  -30   16    4    -14.16      0.00
   25   17    4     -0.15      0.00
  -26   18    4      5.21      0.00
  -23   19    4      2.95      0.00
  -20   20    4     -3.04      0.00
   13   21    4      5.47      0.00
  -10   22    4      9.84      0.00
    2   22    4     11.99      0.00
    4   22    4      1.98      0.00
    6   22    4      0.10      0.00
    8   22    4     -0.88      0.00
  -42    2    5    -24.69      0.00
   38    2    5     19.48      0.00
  -41    5    5     12.23      0.00
   36    8    5      1.88      0.00
   35    9    5      2.26      0.00
  -38   10    5     -1.46      0.00
   34   10    5      7.06      0.00
  -37   11    5      6.95      0.00
   33   11    5     -1.25      0.00
  -36   12    5      5.57      0.00
   32   12    5    -15.46      0.00
   31   13    5     -1.51      0.00
   28   14    5     -4.21      0.00
   27   15    5     -2.52      0.00
  -30   16    5      4.85      0.00
   26   16    5      4.66      0.00
  -26   18    5      8.85      0.00
   22   18    5      6.95      0.00
  -23   19    5     -5.37      0.00
  -20   20    5     -5.93      0.00
   13   21    5     -6.78      0.00
  -10   22    5    -10.12      0.00
    2   22    5      4.13      0.00
    4   22    5      0.98      0.00
    6   22    5      3.86      0.00
  -42    0    6     -2.56      0.00
   38    0    6     34.16      0.00
  -42    2    6    -30.94      0.00
  -41    5    6      4.20      0.00
   37    5    6     27.80      0.00
  -39    9    6     -0.95      0.00
  -38   10    6     12.92      0.00
  -37   11    6    -10.51      0.00
   33   11    6     -6.05      0.00
  -36   12    6    -16.08      0.00
   28   14    6     -4.44      0.00
   27   15    6      1.52      0.00
   26   16    6      2.82      0.00
  -26   18    6      2.44      0.00
   22   18    6     -3.27      0.00
  -23   19    6      4.29      0.00
   19   19    6     -5.21      0.00
  -20   20    6      0.50      0.00
   16   20    6      0.04      0.00
   11   21    6      1.17      0.00
  -10   22    6     -6.83      0.00
   -8   22    6    -10.03      0.00
    2   22    6     -3.53      0.00
    4   22    6     -1.33      0.00
    6   22    6     -3.21      0.00
   37    1    7    -16.05      0.00
   37    3    7    -18.74      0.00
  -41    5    7      9.06      0.00
   36    6    7     -1.36      0.00
  -39    9    7     -2.37      0.00
  -38   10    7     -5.24      0.00
  -37   11    7    -12.77      0.00
  -36   12    7      2.03      0.00
  -35   13    7      6.59      0.00
   29   13    7     -4.51      0.00
   28   14    7      2.21      0.00
   -7   15    7     -3.40      0.00
   27   15    7     -0.92      0.00
   24   16    7      9.59      0.00
   23   17    7     12.02      0.00
  -26   18    7      3.17      0.00
  -23   19    7      9.45      0.00
  -20   20    7      2.43      0.00
   11   21    7     -0.25      0.00
  -10   22    7      0.93      0.00
   -8   22    7      2.88      0.00
    2   22    7      4.15      0.00
    4   22    7     -6.04      0.00
  -42    0    8    -37.76      0.00
   36    0    8    -67.37      0.00
  -42    2    8    -15.98      0.00
   36    4    8    -14.93      0.00
  -41    5    8     -5.68      0.00
   34    8    8    -30.98      0.00
  -39    9    8     -4.19      0.00
  -38   10    8      1.53      0.00
  -37   11    8     -1.00      0.00
  -36   12    8     -2.85      0.00
   30   12    8     -1.55      0.00
  -35   13    8     -0.31      0.00
   29   13    8      4.30      0.00
   28   14    8     -0.58      0.00
   -9   15    8      3.91      0.00
   25   15    8     -8.27      0.00
   24   16    8     -0.95      0.00
  -26   18    8     -6.04      0.00
   20   18    8     -2.41      0.00
  -23   19    8     -2.77      0.00
  -20   20    8     -3.37      0.00
   14   20    8      2.37      0.00
  -15   21    8      3.10      0.00
   -8   22    8    -11.51      0.00
   -6   22    8     -6.74      0.00
   -2   22    8      6.83      0.00
    0   22    8     -0.64      0.00
    2   22    8     -3.35      0.00
  -42    2    9     15.45      0.00
   36    2    9      7.21      0.00
  -42    4    9     -4.94      0.00
  -41    5    9    -14.27      0.00
  -20    6    9      2.10      0.00
  -40    8    9      0.88      0.00
  -39    9    9      4.69      0.00
  -37    9    9     -6.40      0.00
  -38   10    9     -6.36      0.00
   32   10    9     -1.54      0.00
  -37   11    9      6.66      0.00
   31   11    9      1.43      0.00
  -36   12    9      8.26      0.00
   30   12    9     -3.09      0.00
  -35   13    9     -2.13      0.00
   25   15    9      7.70      0.00
  -30   16    9      6.79      0.00
   24   16    9      4.96      0.00
   21   17    9      2.81      0.00
  -26   18    9     -4.61      0.00
  -23   19    9     -0.92      0.00
   17   19    9      3.10      0.00
  -20   20    9      9.08      0.00
  -15   21    9      4.86      0.00
  -13   21    9      4.16      0.00
    9   21    9    -10.34      0.00
   -8   22    9     -1.79      0.00
   -6   22    9     -0.20      0.00
   -4   22    9    -11.03      0.00
   -2   22    9     -1.49      0.00
    0   22    9      0.35      0.00
  -42    0   10    -39.85      0.00
  -42    2   10     54.35      0.00
   35    3   10      5.83      0.00
  -42    4   10    -16.56      0.00
  -18    4   10     -5.46      0.00
  -41    5   10     -3.44      0.00
  -19    5   10      6.95      0.00
   34    6   10    -33.36      0.00
  -40    8   10     -7.34      0.00
  -38    8   10      2.28      0.00
  -39    9   10     -0.06      0.00
  -37    9   10      4.97      0.00
  -38   10   10     10.62      0.00
  -37   11   10      7.94      0.00
  -36   12   10    -10.68      0.00
  -35   13   10     -4.25      0.00
  -10   14   10      1.55      0.00
   26   14   10     -2.05      0.00
   25   15   10     -6.84      0.00
  -30   16   10     -8.98      0.00
   22   16   10      6.65      0.00
   21   17   10      0.17      0.00
  -26   18   10      5.20      0.00
   18   18   10      1.16      0.00
  -23   19   10     -1.48      0.00
   12   20   10      3.70      0.00
  -15   21   10     -1.16      0.00
    7   21   10     -1.34      0.00
   -4   22   10     -1.63      0.00
  -41    1   11     -8.80      0.00
   35    1   11    -18.43      0.00
  -42    2   11    -48.32      0.00
  -42    4   11     17.16      0.00
  -18    4   11    -24.25      0.00
  -41    5   11     -9.59      0.00
  -19    5   11     15.88      0.00
  -40    6   11     30.88      0.00
  -39    7   11     25.20      0.00
   33    7   11     17.10      0.00
  -40    8   11    -22.55      0.00
  -38    8   11      0.23      0.00
   32    8   11    -16.44      0.00
  -39    9   11      6.71      0.00
  -37    9   11      2.05      0.00
  -38   10   11      2.96      0.00
  -37   11   11    -26.54      0.00
  -36   12   11    -12.69      0.00
  -35   13   11     -4.55      0.00
   27   13   11      3.67      0.00
   26   14   11     -1.16      0.00
   23   15   11     -3.52      0.00
  -30   16   11      5.77      0.00
   22   16   11      2.84      0.00
  -27   17   11      2.75      0.00
   19   17   11      0.09      0.00
  -24   18   11     -1.07      0.00
   18   18   11     -1.67      0.00
  -23   19   11     -3.21      0.00
  -21   19   11     -9.88      0.00
   15   19   11     -2.47      0.00
  -18   20   11     -7.33      0.00
  -13   21   11     -6.23      0.00
    5   21   11     18.20      0.00
  -42    0   12    -26.28      0.00
  -40    0   12    -10.25      0.00
   26    0   12    -29.77      0.00
   34    0   12     -8.11      0.00
  -41    1   12     29.70      0.00
   21    1   12      9.70      0.00
  -42    2   12    -19.35      0.00
   22    2   12     28.85      0.00
   34    2   12     11.63      0.00
  -41    3   12    -23.38      0.00
  -42    4   12     25.71      0.00
  -41    5   12     30.20      0.00
  -19    5   12      6.48      0.00
   33    5   12     15.71      0.00
  -40    6   12     -7.98      0.00
  -39    7   12     -7.43      0.00
  -40    8   12    -10.63      0.00
  -38    8   12     21.28      0.00
  -39    9   12      2.02      0.00
  -37    9   12     -3.91      0.00
   -5    9   12    -10.14      0.00
  -38   10   12     -9.14      0.00
  -36   10   12     16.54      0.00
   -6   10   12      7.46      0.00
   -4   10   12    -10.88      0.00
  -37   11   12    -10.21      0.00
  -36   12   12     -7.94      0.00
  -35   13   12     11.78      0.00
    1   15   12      8.66      0.00
   23   15   12      8.28      0.00
  -30   16   12      0.89      0.00
   20   16   12     -6.97      0.00
  -27   17   12      6.51      0.00
   19   17   12     -0.11      0.00
  -24   18   12     -2.10      0.00
   16   18   12      1.54      0.00
  -21   19   12     -2.73      0.00
   13   19   12     -7.77      0.00
  -18   20   12     -3.23      0.00
  -16   20   12     -5.76      0.00
  -14   20   12      0.40      0.00
   10   20   12     -3.90      0.00
  -13   21   12      1.44      0.00
  -11   21   12     -2.05      0.00
    3   21   12    -17.82      0.00
    5   21   12      5.28      0.00
  -41    1   13    -52.62      0.00
   21    1   13     33.23      0.00
  -42    2   13      1.18      0.00
  -40    2   13    -42.83      0.00
   20    2   13     -5.46      0.00
   22    2   13    -23.36      0.00
  -41    3   13     -7.08      0.00
   33    3   13     -8.46      0.00
  -42    4   13     20.00      0.00
  -40    4   13     22.40      0.00
  -41    5   13     15.92      0.00
  -19    5   13     19.06      0.00
  -40    6   13    -19.78      0.00
   32    6   13      9.51      0.00
  -39    7   13      3.36      0.00
   31    7   13     -3.46      0.00
  -40    8   13     -0.42      0.00
  -38    8   13      9.37      0.00
  -39    9   13     -6.15      0.00
  -37    9   13     -0.97      0.00
  -38   10   13      5.50      0.00
  -36   10   13    -22.72      0.00
  -37   11   13     -3.03      0.00
  -36   12   13      3.17      0.00
   24   14   13      4.74      0.00
  -31   15   13     -4.87      0.00
   20   16   13      0.58      0.00
  -27   17   13     -5.22      0.00
   17   17   13     -4.12      0.00
  -24   18   13     -3.57      0.00
   16   18   13     -4.24      0.00
  -21   19   13      3.35      0.00
   13   19   13      6.89      0.00
  -18   20   13    -10.70      0.00
  -16   20   13     -3.23      0.00
    8   20   13      6.70      0.00
  -11   21   13     -3.80      0.00
   -9   21   13      5.72      0.00
    1   21   13    -11.41      0.00
  -42    0   14    -42.02      0.00
  -40    0   14    -35.12      0.00
   20    0   14    -12.79      0.00
  -41    1   14    -15.04      0.00
   19    1   14    -13.05      0.00
   21    1   14    -43.27      0.00
  -42    2   14     20.39      0.00
  -40    2   14     20.57      0.00
  -41    3   14     22.70      0.00
  -42    4   14     14.26      0.00
  -40    4   14      2.86      0.00
   32    4   14     10.41      0.00
  -41    5   14      0.24      0.00
  -40    6   14    -24.29      0.00
  -39    7   14    -10.17      0.00
  -38    8   14      5.15      0.00
   30    8   14     10.95      0.00
  -39    9   14     -4.16      0.00
  -37    9   14      2.51      0.00
   29    9   14     -1.37      0.00
  -38   10   14      4.90      0.00
  -36   10   14     -7.16      0.00
   28   10   14      3.36      0.00
  -37   11   14     -1.14      0.00
  -35   11   14    -15.35      0.00
   27   11   14     -6.12      0.00
  -36   12   14      8.15      0.00
   26   12   14      2.89      0.00
  -31   15   14     -0.15      0.00
   21   15   14     -1.77      0.00
  -28   16   14     -3.59      0.00
  -27   17   14      3.31      0.00
  -25   17   14     -3.16      0.00
   17   17   14     -8.88      0.00
  -24   18   14      5.62      0.00
  -22   18   14     -1.32      0.00
   14   18   14     -6.29      0.00
  -21   19   14     -5.46      0.00
  -19   19   14    -10.98      0.00
   11   19   14      4.90      0.00
  -16   20   14     -7.44      0.00
  -14   20   14    -12.45      0.00
   -9   21   14     -5.27      0.00
   -7   21   14     -4.88      0.00
   -5   21   14     -0.67      0.00
   -3   21   14     -5.22      0.00
   -1   21   14      9.19      0.00
  -41    1   15     28.18      0.00
   19    1   15     18.67      0.00
  -42    2   15      7.69      0.00
  -41    3   15     -5.25      0.00
  -41    5   15     -5.75      0.00
  -40    6   15     12.84      0.00
   30    6   15     25.02      0.00
   29    7   15     -6.42      0.00
  -38   10   15     -1.74      0.00
  -37   11   15     11.65      0.00
  -35   11   15     -2.31      0.00
  -34   12   15      9.76      0.00
  -33   13   15     -5.61      0.00
  -32   14   15      3.68      0.00
   22   14   15     -3.17      0.00
  -31   15   15     11.91      0.00
  -28   16   15      5.59      0.00
   18   16   15    -11.17      0.00
  -27   17   15      5.14      0.00
  -25   17   15      4.32      0.00
  -23   17   15     -9.78      0.00
   15   17   15     11.82      0.00
  -24   18   15     -0.01      0.00
  -22   18   15     -6.20      0.00
   12   18   15      2.28      0.00
  -19   19   15     -0.68      0.00
  -17   19   15    -11.31      0.00
    9   19   15      3.29      0.00
  -16   20   15     -0.63      0.00
  -14   20   15     -6.87      0.00
  -12   20   15     -5.21      0.00
  -42    0   16     15.57      0.00
  -40    0   16    -28.33      0.00
  -41    1   16    -14.66      0.00
   31    1   16     -8.38      0.00
  -42    2   16     -2.67      0.00
  -41    3   16     -9.40      0.00
  -41    5   16     32.07      0.00
  -40    6   16     -1.58      0.00
   28    8   16    -12.08      0.00
   27    9   16     -9.56      0.00
   26   10   16     12.18      0.00
  -35   11   16      1.05      0.00
   25   11   16     -9.94      0.00
  -34   12   16     -8.75      0.00
   24   12   16     -4.34      0.00
  -33   13   16     16.06      0.00
  -32   14   16     15.05      0.00
  -29   15   16     -2.04      0.00
   -3   15   16      1.93      0.00
   19   15   16      7.66      0.00
  -28   16   16     -3.60      0.00
  -26   16   16     -0.63      0.00
  -25   17   16      0.43      0.00
  -23   17   16     -0.21      0.00
   13   17   16      6.94      0.00
   15   17   16     -7.64      0.00
  -22   18   16      3.29      0.00
  -20   18   16      6.55      0.00
   12   18   16      0.57      0.00
  -19   19   16     -4.71      0.00
  -17   19   16      3.70      0.00
  -14   20   16     -4.76      0.00
  -12   20   16     -1.85      0.00
  -10   20   16     -3.94      0.00
    2   20   16      0.64      0.00
  -41    1   17      8.18      0.00
  -42    2   17      2.95      0.00
   30    2   17      2.87      0.00
  -41    3   17     16.45      0.00
  -41    5   17     10.67      0.00
   29    5   17     -2.36      0.00
  -40    6   17     -3.47      0.00
   28    6   17     22.17      0.00
   27    7   17    -19.11      0.00
  -36   10   17      3.97      0.00
  -35   11   17     -7.83      0.00
  -34   12   17      3.21      0.00
  -32   12   17      3.64      0.00
  -33   13   17     -1.46      0.00
  -31   13   17     -7.15      0.00
  -32   14   17    -11.90      0.00
  -30   14   17     -7.03      0.00
   20   14   17      6.16      0.00
  -29   15   17      4.74      0.00
  -27   15   17      6.58      0.00
  -28   16   17      7.27      0.00
  -26   16   17     10.61      0.00
   16   16   17      1.58      0.00
  -25   17   17     -6.11      0.00
  -23   17   17     -2.37      0.00
   11   17   17      5.22      0.00
   13   17   17      9.57      0.00
  -22   18   17     -4.24      0.00
  -20   18   17     -1.07      0.00
    6   18   17     -9.19      0.00
   10   18   17     -8.00      0.00
  -17   19   17     -4.76      0.00
  -15   19   17     -0.02      0.00
  -12   20   17      2.69      0.00
  -10   20   17     -1.97      0.00
   -8   20   17      7.50      0.00
   -6   20   17     -0.62      0.00
   -4   20   17      4.83      0.00
   -2   20   17     15.21      0.00
    0   20   17      7.50      0.00
  -42    0   18      5.05      0.00
  -41    1   18      8.93      0.00
   29    1   18     -7.08      0.00
  -41    3   18      5.04      0.00
  -40    6   18     -3.74      0.00
   27    7   18      4.35      0.00
   26    8   18     15.48      0.00
   25    9   18     -4.52      0.00
  -36   10   18     -1.59      0.00
   24   10   18     -9.20      0.00
  -35   11   18     -3.94      0.00
   23   11   18     -3.72      0.00
  -34   12   18     -9.46      0.00
  -32   12   18     -1.87      0.00
   22   12   18     -2.16      0.00
  -33   13   18     -9.20      0.00
  -31   13   18     14.64      0.00
  -29   13   18      9.84      0.00
  -30   14   18      9.95      0.00
  -28   14   18     14.10      0.00
   -6   14   18      1.80      0.00
  -29   15   18     10.24      0.00
  -27   15   18      3.54      0.00
   17   15   18     -9.22      0.00
  -26   16   18     -5.82      0.00
   14   16   18      1.73      0.00
  -25   17   18     -6.19      0.00
  -23   17   18     -1.91      0.00
   11   17   18     -2.73      0.00
  -20   18   18     -3.00      0.00
    8   18   18    -11.54      0.00
  -17   19   18     -4.07      0.00
  -15   19   18      4.25      0.00
   -6   20   18      0.68      0.00
  -41    1   19     -2.02      0.00
   28    2   19     -2.63      0.00
  -41    3   19      5.80      0.00
   27    3   19     -9.07      0.00
   27    5   19     -0.25      0.00
  -40    6   19     13.97      0.00
   26    6   19      1.43      0.00
  -39    7   19      0.79      0.00
   25    7   19     17.99      0.00
  -38    8   19      5.18      0.00
   24    8   19      5.56      0.00
  -37    9   19      3.45      0.00
  -36   10   19      5.43      0.00
  -35   11   19      1.11      0.00
  -34   12   19      1.29      0.00
  -32   12   19     13.13      0.00
  -30   12   19     12.71      0.00
  -33   13   19      3.59      0.00
  -31   13   19     -3.66      0.00
  -29   13   19      1.84      0.00
  -30   14   19     -2.70      0.00
  -28   14   19     -1.12      0.00
  -29   15   19     -7.91      0.00
  -27   15   19     -3.03      0.00
   15   15   19     -5.43      0.00
  -26   16   19      1.32      0.00
   12   16   19      1.92      0.00
  -23   17   19      1.23      0.00
    5   17   19      8.12      0.00
    9   17   19     -4.72      0.00
  -20   18   19     -3.71      0.00
  -18   18   19      1.74      0.00
    6   18   19      9.96      0.00
  -15   19   19     -3.05      0.00
  -13   19   19      2.28      0.00
    1   19   19     -2.77      0.00
  -40    0   20    -19.41      0.00
  -41    1   20      2.63      0.00
   27    1   20     -2.12      0.00
  -41    3   20    -11.14      0.00
   26    4   20     15.29      0.00
   25    5   20     -4.20      0.00
   24    6   20      6.42      0.00
  -39    7   20     -1.33      0.00
   25    7   20    -10.35      0.00
  -38    8   20      0.05      0.00
   24    8   20     -2.52      0.00
  -37    9   20      2.42      0.00
   23    9   20     -0.65      0.00
  -36   10   20      4.84      0.00
   22   10   20      1.26      0.00
  -35   11   20      1.52      0.00
  -33   11   20     -2.60      0.00
    7   11   20    -15.35      0.00
   21   11   20      5.48      0.00
  -32   12   20    -14.29      0.00
  -30   12   20     -1.39      0.00
  -31   13   20     -0.91      0.00
  -29   13   20     -0.53      0.00
  -30   14   20      1.33      0.00
  -28   14   20     10.36      0.00
   16   14   20      3.95      0.00
  -27   15   20      8.68      0.00
  -26   16   20     -0.24      0.00
  -24   16   20     -3.55      0.00
   10   16   20      3.84      0.00
   12   16   20      3.23      0.00
  -23   17   20     -1.19      0.00
  -21   17   20      6.06      0.00
    9   17   20      2.42      0.00
  -18   18   20    -12.98      0.00
    4   18   20     -9.93      0.00
  -11   19   20      8.87      0.00
   -9   19   20     -1.95      0.00
   -7   19   20     10.35      0.00
   -5   19   20      5.75      0.00
   -3   19   20     -3.94      0.00
  -41    1   21     -1.18      0.00
  -40    2   21     11.09      0.00
   26    2   21      0.52      0.00
   25    3   21      7.48      0.00
  -40    4   21      1.05      0.00
   25    5   21     -2.64      0.00
   24    6   21     -7.02      0.00
   23    7   21      2.08      0.00
   22    8   21     -4.63      0.00
  -37    9   21      2.86      0.00
   21    9   21      2.56      0.00
  -33   11   21     -3.00      0.00
  -32   12   21      7.04      0.00
  -30   12   21      1.48      0.00
   18   12   21      0.87      0.00
  -31   13   21      2.14      0.00
  -29   13   21      4.22      0.00
   17   13   21      3.52      0.00
  -30   14   21      1.96      0.00
  -28   14   21      3.30      0.00
  -27   15   21     -1.84      0.00
   13   15   21     -1.61      0.00
  -24   16   21     -3.65      0.00
    8   16   21      1.68      0.00
   10   16   21      7.54      0.00
  -21   17   21      0.89      0.00
    7   17   21      5.36      0.00
  -16   18   21     -3.97      0.00
    2   18   21      0.53      0.00
  -40    0   22    -15.69      0.00
   24    0   22     11.70      0.00
   23    1   22     -0.96      0.00
   25    1   22    -14.60      0.00
  -40    2   22     -2.80      0.00
   24    4   22    -12.32      0.00
  -39    5   22      5.95      0.00
   23    5   22      5.82      0.00
   22    6   22     15.00      0.00
   21    7   22     -8.48      0.00
   20    8   22      9.79      0.00
  -34   10   22      8.25      0.00
  -33   11   22      0.57      0.00
  -32   12   22     -3.72      0.00
  -30   12   22     -3.56      0.00
    4   12   22     -1.22      0.00
  -31   13   22     -1.50      0.00
  -29   13   22      0.63      0.00
   -3   13   22     -5.90      0.00
   15   13   22      7.41      0.00
  -28   14   22     -3.41      0.00
   11   15   22      4.83      0.00
  -24   16   22     -5.82      0.00
    6   16   22      1.58      0.00
    8   16   22     13.67      0.00
  -19   17   22      7.29      0.00
    3   17   22      4.30      0.00
    5   17   22     -8.90      0.00
  -14   18   22      5.69      0.00
  -12   18   22     -2.41      0.00
   -2   18   22     -4.44      0.00
  -39    1   23     -7.44      0.00
  -40    2   23      5.75      0.00
  -39    3   23     -5.63      0.00
   23    3   23    -10.41      0.00
  -38    6   23      1.31      0.00
   22    6   23     -4.93      0.00
   21    7   23      2.55      0.00
  -36    8   23      0.23      0.00
   20    8   23     -6.11      0.00
  -35    9   23      6.84      0.00
   19    9   23     -3.35      0.00
  -34   10   23     -1.75      0.00
   18   10   23      2.77      0.00
  -33   11   23     -6.39      0.00
  -31   11   23      0.19      0.00
   17   11   23     -1.32      0.00
  -32   12   23     -2.07      0.00
  -30   12   23      4.08      0.00
  -29   13   23     -0.46      0.00
    1   13   23     16.23      0.00
  -28   14   23     -4.62      0.00
   12   14   23      4.64      0.00
  -25   15   23     -4.53      0.00
    9   15   23      0.93      0.00
  -22   16   23     -4.49      0.00
    4   16   23     -3.77      0.00
    6   16   23    -14.41      0.00
  -17   17   23      7.87      0.00
    1   17   23      4.82      0.00
  -38    0   24     -8.25      0.00
   16    0   24     21.96      0.00
   20    0   24     -0.68      0.00
  -39    1   24     -5.06      0.00
   17    1   24     -5.64      0.00
   22    2   24      2.73      0.00
  -39    3   24      1.74      0.00
   21    5   24     -5.48      0.00
   20    6   24     12.46      0.00
  -37    7   24     -2.64      0.00
   19    7   24    -11.86      0.00
  -36    8   24      4.91      0.00
   18    8   24      9.67      0.00
  -35    9   24     -1.71      0.00
   17    9   24     -5.75      0.00
  -34   10   24     -0.75      0.00
   16   10   24     -4.40      0.00
  -31   11   24      4.27      0.00
   15   11   24     -9.79      0.00
  -30   12   24     -3.01      0.00
   14   12   24    -10.63      0.00
  -29   13   24     -1.06      0.00
   10   14   24      2.58      0.00
    7   15   24      0.84      0.00
  -20   16   24     -2.01      0.00
    2   16   24      4.28      0.00
    4   16   24     -5.45      0.00
  -15   17   24     -8.52      0.00
   -5   17   24     -6.00      0.00
   -3   17   24      7.30      0.00
  -39    1   25      1.27      0.00
   21    1   25      2.79      0.00
  -38    2   25     -5.75      0.00
  -38    4   25     -7.10      0.00
   20    4   25     -1.81      0.00
   19    5   25      3.21      0.00
   18    6   25     -6.45      0.00
   17    7   25      4.48      0.00
   16    8   25      0.02      0.00
  -32   10   25     -4.56      0.00
  -31   11   25      2.42      0.00
  -29   11   25      6.30      0.00
  -30   12   25     -2.34      0.00
  -28   12   25      0.55      0.00
   12   12   25      4.80      0.00
  -27   13   25     -2.27      0.00
    8   14   25     -7.12      0.00
    3   15   25      0.82      0.00
    5   15   25      3.40      0.00
  -18   16   25     -7.29      0.00
   -2   16   25      8.00      0.00
    0   16   25      4.94      0.00
  -38    0   26    -16.99      0.00
   20    0   26     -0.27      0.00
  -37    1   26      3.08      0.00
  -38    2   26     -0.13      0.00
  -37    3   26      1.08      0.00
   19    3   26     -4.71      0.00
  -37    5   26     -0.32      0.00
  -36    6   26     -2.79      0.00
   18    6   26     -1.09      0.00
  -35    7   26     -4.98      0.00
   17    7   26     -1.80      0.00
  -34    8   26     -0.18      0.00
   16    8   26      4.40      0.00
  -33    9   26      1.18      0.00
   15    9   26     -4.13      0.00
  -32   10   26     -2.94      0.00
  -29   11   26     -7.40      0.00
  -28   12   26     -0.93      0.00
   10   12   26     -1.05      0.00
  -24   14   26     -8.16      0.00
   -1   15   26      2.11      0.00
    1   15   26     -2.99      0.00
  -14   16   26      6.33      0.00
  -12   16   26     -6.17      0.00
  -10   16   26     -9.58      0.00
   -8   16   26      4.74      0.00
   -6   16   26     -1.24      0.00
   -4   16   26      0.33      0.00
  -37    1   27     -0.21      0.00
   18    2   27     -1.56      0.00
  -37    3   27     -0.99      0.00
  -36    4   27      1.52      0.00
   17    5   27      0.56      0.00
   16    6   27     -0.39      0.00
   15    7   27      2.59      0.00
   14    8   27      2.17      0.00
   13    9   27     -9.61      0.00
  -30   10   27     -4.35      0.00
   12   10   27     -2.49      0.00
  -29   11   27     -2.52      0.00
  -27   11   27      5.40      0.00
    8   12   27     -5.72      0.00
  -25   13   27     -0.42      0.00
  -22   14   27      7.84      0.00
    2   14   27     -2.05      0.00
  -17   15   27      3.58      0.00
   -7   15   27     -6.33      0.00
   -5   15   27     -4.47      0.00
   -3   15   27      1.21      0.00
   -1   15   27     -1.35      0.00
  -36    0   28     -3.87      0.00
  -35    1   28      1.10      0.00
  -36    2   28      3.06      0.00
   16    4   28     -4.38      0.00
  -35    5   28      2.71      0.00
   15    5   28      1.91      0.00
  -34    6   28     -0.42      0.00
   14    6   28     -0.97      0.00
  -33    7   28     -1.43      0.00
   13    7   28      1.69      0.00
  -32    8   28     -0.68      0.00
   12    8   28     -2.24      0.00
  -31    9   28     -0.52      0.00
   11    9   28      1.85      0.00
  -30   10   28     -1.83      0.00
  -28   10   28      0.63      0.00
   10   10   28      2.99      0.00
  -27   11   28      2.79      0.00
  -26   12   28      1.95      0.00
    6   12   28     -5.56      0.00
  -23   13   28     -0.74      0.00
    3   13   28     -4.65      0.00
  -18   14   28     -7.62      0.00
   -4   14   28      1.94      0.00
   -2   14   28      5.33      0.00
    0   14   28      2.18      0.00
  -11   15   28     -4.14      0.00
   -9   15   28     -2.39      0.00
   -7   15   28     -2.97      0.00
  -35    1   29     -1.56      0.00
   15    1   29     -2.16      0.00
  -35    3   29     -1.95      0.00
  -34    4   29      5.35      0.00
   14    4   29     -1.23      0.00
   13    5   29      8.19      0.00
   12    6   29      2.29      0.00
   11    7   29     -7.64      0.00
   10    8   29      7.43      0.00
  -29    9   29     -2.60      0.00
    9    9   29      0.41      0.00
  -28   10   29      1.11      0.00
  -26   10   29      8.56      0.00
    8   10   29      2.99      0.00
  -25   11   29      2.47      0.00
  -24   12   29      3.99      0.00
  -21   13   29      7.76      0.00
  -19   13   29      3.79      0.00
   -9   13   29      8.61      0.00
   -7   13   29     -6.21      0.00
   -1   13   29      5.28      0.00
  -14   14   29      1.38      0.00
  -12   14   29     -7.74      0.00
  -10   14   29     -3.55      0.00
   -8   14   29      7.87      0.00
   -6   14   29      6.88      0.00
  -34    0   30     -3.75      0.00
  -33    1   30      6.09      0.00
   13    1   30      0.52      0.00
  -34    2   30      9.96      0.00
  -33    3   30      4.47      0.00
   13    3   30      6.17      0.00
   12    4   30      1.44      0.00
  -33    5   30      2.99      0.00
  -32    6   30      0.91      0.00
  -31    7   30      4.81      0.00
    9    7   30      7.91      0.00
  -30    8   30      5.61      0.00
    8    8   30     -3.86      0.00
  -27    9   30      0.91      0.00
    7    9   30      1.42      0.00
  -26   10   30      6.07      0.00
  -24   10   30      7.07      0.00
  -23   11   30      5.14      0.00
    3   11   30      0.72      0.00
  -20   12   30      1.17      0.00
  -18   12   30      3.61      0.00
  -16   12   30     -3.31      0.00
  -14   12   30     -2.42      0.00
  -12   12   30     -6.61      0.00
  -10   12   30      2.21      0.00
   -8   12   30     -2.47      0.00
   -6   12   30      2.36      0.00
    0   12   30      9.30      0.00
  -17   13   30      3.71      0.00
  -15   13   30      3.47      0.00
  -13   13   30     -6.14      0.00
  -11   13   30      2.96      0.00
   -9   13   30      5.43      0.00
   -7   13   30      6.48      0.00
   -5   13   30      3.14      0.00
  -33    1   31      5.68      0.00
   11    1   31      5.91      0.00
  -32    2   31      3.05      0.00
   11    3   31     -6.44      0.00
  -32    4   31     -1.87      0.00
   10    4   31     -2.21      0.00
  -31    5   31     -2.36      0.00
  -29    7   31     -5.79      0.00
    7    7   31     -2.79      0.00
  -28    8   31     -2.18      0.00
    6    8   31      8.49      0.00
  -25    9   31      5.31      0.00
    5    9   31      8.09      0.00
  -24   10   31      0.32      0.00
  -22   10   31      1.39      0.00
    2   10   31     10.08      0.00
  -21   11   31      5.65      0.00
  -19   11   31      1.36      0.00
  -17   11   31     -6.90      0.00
  -15   11   31     -3.41      0.00
  -13   11   31      9.23      0.00
  -11   11   31      6.45      0.00
   -9   11   31      2.91      0.00
   -7   11   31     10.93      0.00
   -1   11   31      3.66      0.00
  -18   12   31      6.43      0.00
  -16   12   31      5.71      0.00
  -14   12   31      0.37      0.00
  -12   12   31     -0.79      0.00
  -10   12   31     -0.59      0.00
   -8   12   31      7.11      0.00
   -6   12   31      0.39      0.00
   -4   12   31      3.02      0.00
  -32    0   32      4.75      0.00
  -30    0   32     -0.05      0.00
  -31    1   32      5.41      0.00
    9    1   32      0.99      0.00
  -31    3   32     -4.78      0.00
  -30    4   32     -5.13      0.00
    8    4   32      5.39      0.00
    7    5   32      4.01      0.00
    6    6   32      3.68      0.00
  -27    7   32      3.62      0.00
    5    7   32      2.41      0.00
  -26    8   32      4.00      0.00
    4    8   32      6.75      0.00
  -23    9   32      3.26      0.00
    1    9   32     15.62      0.00
  -22   10   32      0.55      0.00
  -20   10   32      1.59      0.00
  -18   10   32     -3.91      0.00
  -16   10   32     -4.88      0.00
  -17   11   32      2.66      0.00
  -15   11   32      8.44      0.00
  -13   11   32      3.87      0.00
  -11   11   32     -6.25      0.00
   -9   11   32      1.58      0.00
   -7   11   32     -4.72      0.00
   -5   11   32      2.38      0.00
  -29    1   33      3.38      0.00
    7    1   33     -2.75      0.00
  -30    2   33     -1.27      0.00
    6    2   33      3.60      0.00
  -29    3   33     -3.07      0.00
  -28    4   33     -5.73      0.00
    5    5   33      3.94      0.00
    4    6   33      6.56      0.00
  -25    7   33     -3.02      0.00
  -24    8   33      0.48      0.00
  -22    8   33     -1.00      0.00
    0    8   33      7.46      0.00
  -21    9   33      0.33      0.00
  -19    9   33     -2.01      0.00
   -3    9   33     -4.86      0.00
  -18   10   33     -1.89      0.00
  -16   10   33     -4.04      0.00
  -14   10   33     -1.00      0.00
  -12   10   33      5.61      0.00
  -10   10   33      7.92      0.00
   -8   10   33      7.81      0.00
   -6   10   33     -3.57      0.00
  -28    0   34     -3.01      0.00
  -26    0   34     -5.06      0.00
    2    0   34     -5.84      0.00
    4    0   34      6.25      0.00
  -27    1   34      1.36      0.00
    3    1   34     -5.84      0.00
  -28    2   34     -1.86      0.00
  -26    2   34      4.80      0.00
    4    2   34      5.57      0.00
  -27    3   34     -2.82      0.00
    3    3   34      4.68      0.00
  -26    4   34      2.51      0.00
  -25    5   34      2.47      0.00
  -24    6   34     -4.04      0.00
    0    6   34      8.10      0.00
  -23    7   34     -3.52      0.00
   -1    7   34     -0.05      0.00
  -20    8   34     -1.46      0.00
  -18    8   34     -3.43      0.00
   -4    8   34     -7.97      0.00
  -15    9   34      2.27      0.00
  -13    9   34     10.08      0.00
  -11    9   34     -1.74      0.00
   -9    9   34      1.61      0.00
  -25    1   35      0.14      0.00
  -23    1   35      2.65      0.00
   -1    1   35     -5.86      0.00
    1    1   35      1.80      0.00
  -24    2   35      0.51      0.00
    0    2   35     -2.94      0.00
  -25    3   35     -4.97      0.00
   -1    3   35      4.10      0.00
  -24    4   35      1.64      0.00
  -23    5   35      1.14      0.00
   -3    5   35      3.18      0.00
  -20    6   35     -7.34      0.00
   -4    6   35      2.44      0.00
  -17    7   35     -6.40      0.00
  -15    7   35     -1.72      0.00
  -13    7   35     -4.37      0.00
  -11    7   35      9.48      0.00
   -7    7   35      5.19      0.00
  -22    0   36     -6.40      0.00
  -20    0   36     -1.48      0.00
  -18    0   36      5.90      0.00
  -16    0   36     11.40      0.00
   -8    0   36      1.62      0.00
   -6    0   36      3.72      0.00
   -4    0   36      4.76      0.00
  -23    1   36     -0.62      0.00
  -21    1   36     -1.23      0.00
  -19    1   36     -3.35      0.00
   -5    1   36     -5.56      0.00
   -3    1   36      0.18      0.00
  -22    2   36     -0.20      0.00
  -20    2   36      2.29      0.00
   -6    2   36     -1.42      0.00
   -4    2   36    -11.09      0.00
  -21    3   36     -2.65      0.00
  -19    3   36      0.74      0.00
   -5    3   36     13.15      0.00
  -20    4   36      1.96      0.00
  -18    4   36      4.40      0.00
   -6    4   36    -10.24      0.00
  -17    5   36      1.56      0.00
  -15    5   36     -2.18      0.00
  -13    5   36     -4.07      0.00
  -11    5   36     -6.85      0.00
   -9    5   36    -14.37      0.00
   -7    5   36      7.52      0.00
  -17    1   37     -1.46      0.00
  -15    1   37     -4.66      0.00
  -13    1   37      6.54      0.00
  -11    1   37     -4.27      0.00
   -9    1   37     -4.05      0.00
  -16    2   37      6.53      0.00
  -14    2   37      3.64      0.00
  -12    2   37     -1.29      0.00
  -10    2   37      3.27      0.00
    0    0    0      0.00      0.00
# SQUEEZE RESULTS (Version = 260918)
# Note: Data are Listed for all Voids in the P1 Unit Cell
# i.e. Centre of Gravity, Solvent Accessible Volume,
# Recovered number of Electrons in the Void and
# Details about the Squeezed Material
loop_
  _platon_squeeze_void_nr
  _platon_squeeze_void_average_x
  _platon_squeeze_void_average_y
  _platon_squeeze_void_average_z
  _platon_squeeze_void_volume
  _platon_squeeze_void_count_electrons
  _platon_squeeze_void_content
   1  0.000 -0.006 -0.008      9727      1919 ' '
# Missing Reflections Below sin(th)/lambda = 0.25
loop_
  _platon_missing_refln_index_h
  _platon_missing_refln_index_k
  _platon_missing_refln_index_l
  _platon_missing_refln_theta
    2    0    0     2.720
    1    1    0     2.783
   -1    1    1     2.980
    0    0    2     3.125
_platon_squeeze_void_probe_radius                  1.20
_platon_squeeze_details
)
TITL Tb-2600_a        C 2/c        R = 0.11
CELL   34.1382   18.2040   29.7178     90.00    107.90     90.00
SPGR C2/c
# Solvent Accessible Volume =      9722
# Electrons Found in S.A.V. =      1897
# Note: Atoms in Void are Labelled as Cxxx and Qxxx for all Others
C101 0.286 0.204 0.760 !       1.84 eA-3
Q102 0.772 0.484 0.446 !       1.78 eA-3
Q103 0.142 0.316 0.969 !       1.77 eA-3
C104 0.582 0.014 0.170 !       1.75 eA-3
Q105 0.530 0.112 0.274 !       1.74 eA-3
Q106 0.356 0.111 0.921 !       1.71 eA-3
Q107 0.952 0.435 0.693 !       1.68 eA-3
Q108 0.723 0.448 0.463 !       1.66 eA-3
Q109 0.608 0.191 0.374 !       1.65 eA-3
Q110 0.301 0.485 0.047 !       1.62 eA-3
Q111 0.734 0.250 0.453 !       1.61 eA-3
Q112 0.443 0.111 0.134 !       1.59 eA-3
C113 0.667 0.140 0.711 !       1.57 eA-3
Q114 0.415 0.113 0.029 !       1.53 eA-3
C115 0.316 0.171 0.775 !       1.49 eA-3
C116 0.444 0.202 0.968 !       1.46 eA-3
Q117 0.132 0.362 0.912 !       1.39 eA-3
Q118 0.134 0.287 0.986 !       1.39 eA-3
Q119 0.252 0.015 0.955 !       1.37 eA-3
C120 0.848 0.395 0.310 !       1.37 eA-3
Q121 0.900 0.360 0.454 !       1.36 eA-3
Q122 0.882 0.286 0.555 !       1.35 eA-3
C123 0.284 0.439 0.555 !       1.35 eA-3
C124 0.617 0.082 0.103 !       1.34 eA-3
C125 0.802 0.299 0.234 !       1.34 eA-3
C126 0.063 0.047 0.381 !       1.33 eA-3
Q127 0.045 0.502 0.936 !       1.33 eA-3
C128 0.850 0.438 0.844 !       1.33 eA-3
Q129 0.623 0.172 0.489 !       1.33 eA-3
C130 0.905 0.451 0.883 !       1.30 eA-3
C131 0.541 0.050 0.087 !       1.29 eA-3
C132 0.948 0.077-0.002 !       1.28 eA-3
Q133 0.320 0.479 0.030 !       1.28 eA-3
Q134 0.704 0.233 0.424 !       1.28 eA-3
C135 0.401 0.071 0.438 !       1.24 eA-3
C136 0.902 0.063 0.167 !       1.20 eA-3
Q137 0.248 0.256 0.063 !       1.20 eA-3
C138 0.891 0.043 0.117 !       1.19 eA-3
C139 0.432 0.500 0.123 !       1.18 eA-3
C140 0.445 0.501 0.172 !       1.17 eA-3
C141 0.077 0.030 0.361 !       1.17 eA-3
Q142 0.704 0.315 0.447 !       1.17 eA-3
C143 0.053 0.044 0.326 !       1.16 eA-3
Q144 0.072 0.496 0.959 !       1.16 eA-3
Q145 0.420 0.158 0.946 !       1.16 eA-3
Q146 0.016 0.407 0.242 !       1.16 eA-3
C147 0.116 0.442 0.632 !       1.16 eA-3
Q148 0.244 0.220 0.006 !       1.15 eA-3
C149 0.419 0.063 0.414 !       1.15 eA-3
C150 0.039 0.303 0.000 !       1.14 eA-3
C151 0.944 0.120 0.008 !       1.14 eA-3
C152 0.913 0.363 0.397 !       1.13 eA-3
C153 0.374 0.118 0.427 !       1.13 eA-3
C154 0.030 0.097 0.485 !       1.13 eA-3
Q155 0.003 0.486 0.226 !       1.13 eA-3
C156 0.909 0.017 0.093 !       1.12 eA-3
C157 0.161 0.423 0.167 !       1.11 eA-3
C158 0.761 0.296 0.243 !       1.10 eA-3
Q159 0.857 0.284 0.571 !       1.10 eA-3
Q160 0.328 0.286 0.006 !       1.10 eA-3
Q161 0.384 0.126 0.964 !       1.09 eA-3
Q162 0.045 0.486 0.867 !       1.09 eA-3
C163 0.105 0.465 0.664 !       1.09 eA-3
Q164 0.272 0.282 0.007 !       1.08 eA-3
C165 0.869 0.013 0.086 !       1.08 eA-3
C166 0.905 0.096 0.106 !       1.08 eA-3
C167 0.621 0.484 0.431 !       1.08 eA-3
Q168 0.491 0.106 0.275 !       1.08 eA-3
Q169 0.416 0.183 0.063 !       1.07 eA-3
C170 0.032 0.050 0.484 !       1.05 eA-3
Q171 0.500 0.141 0.250 !       1.05 eA-3
C172 0.149 0.424 0.631 !       1.03 eA-3
C173 0.694 0.454 0.920 !       1.03 eA-3
C174 0.019 0.065 0.500 !       1.03 eA-3
Q175 0.476 0.045 0.058 !       1.02 eA-3
Q176 0.903 0.300 0.586 !       1.02 eA-3
C177 0.902 0.128 0.178 !       1.02 eA-3
Q178 0.947 0.425 0.567 !       1.02 eA-3
C179 0.665 0.485 0.439 !       1.02 eA-3
Q180 0.922 0.035 0.515 !       1.01 eA-3
Q181 0.939 0.451 0.595 !       1.01 eA-3
C182 0.969 0.344 0.039 !       1.01 eA-3
Q183 0.504 0.060 0.373 !       1.01 eA-3
C184 0.557 0.173 0.991 !       1.00 eA-3
C185 0.603 0.504 0.393 !       1.00 eA-3
Q186 0.719 0.250 0.530 !       1.00 eA-3
C187 0.097 0.194 0.517 !       1.00 eA-3
C188 0.257 0.218 0.423 !       0.99 eA-3
Q189 0.659 0.193 0.507 !       0.98 eA-3
C190 0.984 0.030 0.251 !       0.98 eA-3
C191 0.120 0.079 0.365 !       0.97 eA-3
C192 0.029 0.325 0.480 !       0.97 eA-3
C193 0.857 0.252 0.269 !       0.96 eA-3
C194 0.500 0.188 0.969 !       0.96 eA-3
C195 0.513 0.283 0.713 !       0.96 eA-3
C196 0.678 0.253 0.904 !       0.96 eA-3
C197 0.272 0.206 0.717 !       0.96 eA-3
Q198 0.220 0.435 0.056 !       0.96 eA-3
C199 0.750 0.157 0.176 !       0.95 eA-3
)
;
_shelx_fab_checksum              73915
loop_
_space_group_symop_operation_xyz
'x, y, z'
'-x, y, -z+1/2'
'x+1/2, y+1/2, z'
'-x+1/2, y+1/2, -z+1/2'
'-x, -y, -z'
'x, -y, z-1/2'
'-x+1/2, -y+1/2, -z'
'x+1/2, -y+1/2, z-1/2'
loop_
_atom_site_label
_atom_site_type_symbol
_atom_site_fract_x
_atom_site_fract_y
_atom_site_fract_z
_atom_site_U_iso_or_equiv
_atom_site_adp_type
_atom_site_occupancy
_atom_site_site_symmetry_order
_atom_site_calc_flag
_atom_site_refinement_flags_posn
_atom_site_refinement_flags_adp
_atom_site_refinement_flags_occupancy
_atom_site_disorder_assembly
_atom_site_disorder_group
Tb1 Tb 0.12307(2) 0.68314(4) 0.42485(2) 0.0736(2) Uani 1 1 d . . . . .
Tb2 Tb 0.04233(2) 0.61327(4) 0.31784(3) 0.0869(3) Uani 1 1 d . . . . .
Tb3 Tb 0.250000 0.750000 0.500000 0.0944(4) Uani 1 2 d S . P . .
P1 P 0.30260(8) 0.5111(2) 0.27888(13) 0.1041(12) Uani 1 1 d . . . . .
P2 P 0.38205(8) 0.49401(19) 0.33535(11) 0.0852(9) Uani 1 1 d . . . . .
P3 P 0.32076(10) 0.4011(2) 0.34363(18) 0.1169(14) Uani 1 1 d . . . . .
O1 O 0.2790(2) 0.5834(5) 0.2881(3) 0.116(3) Uani 1 1 d . . . . .
O2 O 0.40866(19) 0.5554(4) 0.3708(3) 0.092(2) Uani 1 1 d . . . . .
O3 O 0.3013(3) 0.3903(5) 0.3864(4) 0.141(4) Uani 1 1 d . . . . .
O4 O 0.2838(2) 0.5084(6) 0.2230(3) 0.134(4) Uani 1 1 d . . . . .
O5 O 0.41680(18) 0.4653(4) 0.3149(3) 0.091(2) Uani 1 1 d . . . . .
O6 O 0.3215(3) 0.3151(5) 0.3328(5) 0.165(5) Uani 1 1 d . . . . .
O7 O 0.0954(2) 0.5540(5) 0.2945(3) 0.106(3) Uani 1 1 d . . . . .
O8 O 0.11889(19) 0.6407(4) 0.3465(3) 0.087(2) Uani 1 1 d . . . . .
O11 O 0.2920(2) 0.7465(6) 0.4506(3) 0.125(3) Uani 1 1 d . . . . .
O12 O 0.3417(4) 0.7491(7) 0.5087(4) 0.174(5) Uani 1 1 d . U . . .
O13 O 0.2937(4) 0.2737(8) 0.0733(5) 0.185(5) Uani 1 1 d . U . . .
O14 O 0.3578(3) 0.2863(6) 0.1082(3) 0.117(3) Uani 1 1 d . . . . .
O15 O 0.4512(2) 0.1853(5) 0.2410(4) 0.104(3) Uani 1 1 d . . . . .
O16 O 0.4791(2) 0.1545(5) 0.3167(4) 0.106(3) Uani 1 1 d . . . . .
O17 O 0.5575(2) 0.2274(5) 0.3557(4) 0.122(3) Uani 1 1 d . . . . .
O18 O 0.5696(3) 0.2712(6) 0.4295(4) 0.135(4) Uani 1 1 d . . . . .
O20 O 0.0699(2) 0.5929(6) 0.4011(3) 0.128(3) Uani 1 1 d . . . . .
H21 H 0.061770 0.557590 0.420041 0.154 Uiso 1 1 calc R U . . .
O22 O 0.0165(5) 0.4938(9) 0.3161(8) 0.130(6) Uani 0.5 1 d . U P . .
O23 O 0.000000 0.5434(9) 0.250000 0.128(3) Uani 1 2 d S T P . .
H22 H 0.000000 0.491259 0.250000 0.154 Uiso 1 2 calc R U P . .
N1 N 0.2895(3) 0.4404(6) 0.3014(4) 0.105(3) Uani 1 1 d . . . . .
N2 N 0.3490(2) 0.5327(5) 0.2929(3) 0.090(3) Uani 1 1 d . . . . .
N3 N 0.3664(2) 0.4333(5) 0.3636(4) 0.089(3) Uani 1 1 d . . . . .
C1 C 0.2388(3) 0.5827(6) 0.2925(4) 0.096(4) Uani 1 1 d D U . . .
C2 C 0.2097(3) 0.5318(7) 0.2718(4) 0.136(5) Uani 1 1 d D U . . .
H2 H 0.215228 0.494063 0.252493 0.163 Uiso 1 1 calc R U . . .
C3 C 0.1715(3) 0.5367(7) 0.2795(4) 0.127(5) Uani 1 1 d D U . . .
H3 H 0.150348 0.502805 0.264620 0.152 Uiso 1 1 calc R U . . .
C4 C 0.1644(2) 0.5905(6) 0.3088(3) 0.077(3) Uani 1 1 d D U . . .
C5 C 0.1943(3) 0.6407(6) 0.3284(4) 0.093(3) Uani 1 1 d D U . . .
H5 H 0.188923 0.678247 0.347859 0.112 Uiso 1 1 calc R U . . .
C6 C 0.2322(3) 0.6388(7) 0.3209(4) 0.098(4) Uani 1 1 d D U . . .
H6 H 0.252842 0.674221 0.334591 0.118 Uiso 1 1 calc R U . . .
C7 C 0.1236(3) 0.5934(7) 0.3178(4) 0.085(3) Uani 1 1 d . . . . .
C8 C 0.2779(3) 0.4415(6) 0.3999(4) 0.098(3) Uani 1 1 d D U . . .
C11 C 0.2303(3) 0.5397(6) 0.4312(4) 0.089(3) Uani 1 1 d D U . . .
C15 C 0.3897(3) 0.6033(6) 0.3943(3) 0.082(3) Uani 1 1 d D U . . .
C16 C 0.3602(3) 0.6517(6) 0.3703(4) 0.103(4) Uani 1 1 d D U . . .
H16 H 0.353243 0.656039 0.336922 0.124 Uiso 1 1 calc R U . . .
C17 C 0.3400(3) 0.6949(7) 0.3956(3) 0.101(4) Uani 1 1 d D U . . .
H17 H 0.318557 0.727344 0.379349 0.121 Uiso 1 1 calc R U . . .
C18 C 0.3517(3) 0.6899(6) 0.4438(3) 0.071(3) Uani 1 1 d D U . . .
C19 C 0.3831(3) 0.6450(7) 0.4670(4) 0.104(4) Uani 1 1 d D U . . .
H19 H 0.392212 0.644725 0.500547 0.125 Uiso 1 1 calc R U . . .
C20 C 0.4020(3) 0.5995(7) 0.4427(3) 0.095(3) Uani 1 1 d D U . . .
H20 H 0.423017 0.566430 0.459250 0.114 Uiso 1 1 calc R U . . .
C21 C 0.3270(4) 0.7312(9) 0.4677(6) 0.125(3) Uani 1 1 d . . . . .
C22 C 0.4493(2) 0.4181(6) 0.3341(3) 0.075(3) Uani 1 1 d D U . . .
C23 C 0.4658(3) 0.4084(6) 0.3822(4) 0.089(3) Uani 1 1 d D U . . .
H23 H 0.454532 0.433014 0.403615 0.107 Uiso 1 1 calc R U . . .
C24 C 0.4992(3) 0.3621(6) 0.3986(4) 0.103(4) Uani 1 1 d D U . . .
H24 H 0.511488 0.355977 0.431729 0.123 Uiso 1 1 calc R U . . .
C25 C 0.5152(3) 0.3247(6) 0.3680(3) 0.087(3) Uani 1 1 d D U . . .
C26 C 0.4987(2) 0.3370(5) 0.3201(3) 0.074(3) Uani 1 1 d D U . . .
H26 H 0.510198 0.313119 0.298645 0.089 Uiso 1 1 calc R U . . .
C27 C 0.4661(2) 0.3832(5) 0.3033(4) 0.074(3) Uani 1 1 d D U . . .
H27 H 0.454993 0.391462 0.270245 0.089 Uiso 1 1 calc R U . . .
C28 C 0.5494(3) 0.2705(8) 0.3863(6) 0.107(5) Uani 1 1 d . . . . .
C29 C 0.3547(3) 0.2827(6) 0.3196(5) 0.114(4) Uani 1 1 d D U . . .
C30 C 0.3862(3) 0.2527(6) 0.3551(5) 0.129(5) Uani 1 1 d D U . . .
H30 H 0.386424 0.254284 0.387111 0.154 Uiso 1 1 calc R U . . .
C31 C 0.4175(3) 0.2200(6) 0.3422(5) 0.110(4) Uani 1 1 d D U . . .
H31 H 0.440169 0.199165 0.365880 0.132 Uiso 1 1 calc R U . . .
C32 C 0.4168(2) 0.2169(6) 0.2957(4) 0.087(3) Uani 1 1 d D U . . .
C33 C 0.3848(3) 0.2483(7) 0.2611(5) 0.112(4) Uani 1 1 d D U . . .
H33 H 0.384542 0.247071 0.229076 0.135 Uiso 1 1 calc R U . . .
C34 C 0.3526(3) 0.2820(7) 0.2729(5) 0.123(5) Uani 1 1 d D U . . .
H34 H 0.330082 0.303606 0.249477 0.148 Uiso 1 1 calc R U . . .
C35 C 0.4523(3) 0.1810(7) 0.2859(6) 0.096(4) Uani 1 1 d . . . . .
C36 C 0.2950(3) 0.4550(7) 0.1956(4) 0.098(4) Uani 1 1 d D U . . .
C37 C 0.3338(3) 0.4471(7) 0.1941(4) 0.130(5) Uani 1 1 d D U . . .
H37 H 0.355144 0.477299 0.213410 0.156 Uiso 1 1 calc R U . . .
C38 C 0.3427(3) 0.3962(7) 0.1651(4) 0.112(4) Uani 1 1 d D U . . .
H38 H 0.370506 0.389482 0.165845 0.134 Uiso 1 1 calc R U . . .
C39 C 0.3127(3) 0.3547(7) 0.1352(4) 0.089(3) Uani 1 1 d D U . . .
C40 C 0.2730(3) 0.3633(9) 0.1377(5) 0.141(5) Uani 1 1 d D U . . .
H40 H 0.251375 0.333918 0.118190 0.169 Uiso 1 1 calc R U . . .
C41 C 0.2643(3) 0.4130(8) 0.1678(5) 0.130(5) Uani 1 1 d D U . . .
H41 H 0.237011 0.418063 0.169247 0.155 Uiso 1 1 calc R U . . .
C42 C 0.3241(5) 0.3044(8) 0.1031(4) 0.101(4) Uani 1 1 d . . . . .
O19A O 0.2659(5) 0.6086(12) 0.5286(6) 0.128(6) Uani 0.5 1 d . U P A 1
O9A O 0.1566(4) 0.5638(9) 0.4318(6) 0.075(4) Uani 0.5 1 d D . P A 1
O10A O 0.1999(4) 0.6549(10) 0.4426(5) 0.086(5) Uani 0.5 1 d D . P A 1
C9A C 0.2872(6) 0.5146(8) 0.4058(6) 0.092(6) Uani 0.5 1 d D U P B 1
H9A H 0.311858 0.531677 0.400829 0.111 Uiso 0.5 1 calc R U P B 1
C10A C 0.2624(5) 0.5644(10) 0.4186(6) 0.081(5) Uani 0.5 1 d D U P B 1
H10A H 0.267874 0.615525 0.418577 0.097 Uiso 0.5 1 calc R U P B 1
C12A C 0.2173(6) 0.4688(9) 0.4212(9) 0.087(7) Uani 0.5 1 d D U P B 1
H12A H 0.191025 0.453945 0.422591 0.104 Uiso 0.5 1 calc R U P B 1
C13A C 0.2426(6) 0.4193(11) 0.4090(10) 0.106(7) Uani 0.5 1 d D U P B 1
H13A H 0.235610 0.368648 0.406916 0.127 Uiso 0.5 1 calc R U P B 1
C14A C 0.1935(6) 0.5844(12) 0.4362(13) 0.106(10) Uani 0.5 1 d D U P A 1
O19B O 0.1093(5) 0.6361(10) 0.4912(5) 0.111(6) Uani 0.5 1 d . U P A 2
O9B O 0.1747(5) 0.5961(10) 0.4420(7) 0.079(5) Uani 0.5 1 d D U P A 2
O10B O 0.2340(5) 0.6432(9) 0.4844(5) 0.103(5) Uani 0.5 1 d D . P A 2
C9B C 0.2967(6) 0.4936(9) 0.4307(6) 0.100(7) Uani 0.5 1 d D U P B 2
H9B H 0.325843 0.497037 0.441169 0.119 Uiso 0.5 1 calc R U P B 2
C10B C 0.2735(5) 0.5416(12) 0.4468(8) 0.104(6) Uani 0.5 1 d D U P B 2
H10B H 0.287015 0.577624 0.469356 0.125 Uiso 0.5 1 calc R U P B 2
C12B C 0.2127(6) 0.4852(12) 0.4012(8) 0.096(7) Uani 0.5 1 d D U P B 2
H12B H 0.183707 0.478499 0.392565 0.116 Uiso 0.5 1 calc R U P B 2
C13B C 0.2356(5) 0.4392(13) 0.3828(9) 0.104(8) Uani 0.5 1 d D U P B 2
H13B H 0.222351 0.405741 0.358284 0.124 Uiso 0.5 1 calc R U P B 2
C14B C 0.2139(6) 0.5976(13) 0.4549(9) 0.095(8) Uani 0.5 1 d D U P A 2
loop_
_atom_site_aniso_label
_atom_site_aniso_U_11
_atom_site_aniso_U_22
_atom_site_aniso_U_33
_atom_site_aniso_U_23
_atom_site_aniso_U_13
_atom_site_aniso_U_12
Tb1 0.0588(3) 0.0934(5) 0.0707(4) 0.0051(4) 0.0231(3) 0.0193(3)
Tb2 0.0491(3) 0.1074(6) 0.1033(6) -0.0035(4) 0.0220(3) 0.0111(3)
Tb3 0.0638(5) 0.1563(11) 0.0574(5) -0.0130(6) 0.0103(4) 0.0384(6)
P1 0.0572(15) 0.140(3) 0.115(3) -0.033(2) 0.0264(17) 0.0239(18)
P2 0.0545(14) 0.111(2) 0.091(2) -0.0136(19) 0.0235(15) 0.0200(15)
P3 0.083(2) 0.103(3) 0.188(4) -0.023(3) 0.077(3) 0.0082(19)
O1 0.057(4) 0.166(8) 0.126(7) -0.031(6) 0.028(4) 0.040(5)
O2 0.059(4) 0.112(6) 0.106(6) -0.017(5) 0.029(4) 0.023(4)
O3 0.122(6) 0.098(7) 0.250(12) 0.025(7) 0.127(8) 0.048(5)
O4 0.073(5) 0.212(11) 0.103(7) -0.042(7) 0.007(5) 0.051(6)
O5 0.058(4) 0.129(7) 0.089(5) -0.012(5) 0.028(4) 0.031(4)
O6 0.109(6) 0.105(7) 0.333(16) -0.041(8) 0.146(9) 0.008(5)
O7 0.054(4) 0.135(7) 0.122(7) -0.034(6) 0.015(4) 0.007(4)
O8 0.063(4) 0.102(6) 0.102(6) -0.006(5) 0.035(4) 0.025(4)
O11 0.088(4) 0.164(7) 0.139(7) -0.050(6) 0.061(5) 0.008(5)
O12 0.225(9) 0.167(8) 0.118(7) -0.033(6) 0.034(6) 0.064(7)
O13 0.182(8) 0.202(9) 0.161(8) -0.063(7) 0.040(7) -0.022(7)
O14 0.114(7) 0.142(8) 0.082(6) -0.022(5) 0.010(6) 0.040(6)
O15 0.070(5) 0.111(7) 0.136(8) -0.027(6) 0.040(5) -0.004(4)
O16 0.044(4) 0.125(7) 0.143(8) -0.001(6) 0.020(5) 0.016(4)
O17 0.065(4) 0.121(7) 0.177(9) -0.060(7) 0.034(5) 0.011(4)
O18 0.099(6) 0.182(10) 0.120(8) -0.009(7) 0.027(6) 0.072(7)
O20 0.080(4) 0.180(8) 0.121(6) 0.005(7) 0.026(4) -0.015(6)
O22 0.111(10) 0.068(10) 0.232(16) 0.028(11) 0.083(11) 0.010(8)
O23 0.080(4) 0.180(8) 0.121(6) 0.005(7) 0.026(4) -0.015(6)
N1 0.060(5) 0.103(8) 0.161(10) -0.027(7) 0.050(6) 0.008(5)
N2 0.051(4) 0.120(8) 0.099(7) -0.016(6) 0.022(5) 0.024(5)
N3 0.075(5) 0.081(7) 0.120(8) -0.002(6) 0.043(5) 0.014(5)
C1 0.055(5) 0.135(10) 0.094(8) -0.030(7) 0.017(5) 0.022(5)
C2 0.069(6) 0.187(13) 0.158(12) -0.090(10) 0.045(7) -0.003(6)
C3 0.056(5) 0.182(12) 0.135(10) -0.083(9) 0.018(6) 0.008(6)
C4 0.040(4) 0.125(8) 0.057(5) -0.012(5) 0.001(4) 0.034(4)
C5 0.064(5) 0.099(8) 0.121(9) -0.026(7) 0.034(6) 0.028(5)
C6 0.072(6) 0.127(9) 0.097(8) -0.019(7) 0.027(6) 0.021(6)
C7 0.057(6) 0.105(10) 0.089(8) -0.016(7) 0.017(6) 0.023(6)
C8 0.076(6) 0.097(8) 0.132(10) 0.006(7) 0.049(7) 0.007(5)
C11 0.102(6) 0.087(7) 0.095(8) 0.012(6) 0.054(6) 0.022(5)
C15 0.050(5) 0.117(9) 0.076(5) -0.006(6) 0.013(5) 0.017(5)
C16 0.095(7) 0.136(10) 0.076(7) -0.001(7) 0.022(6) 0.045(7)
C17 0.067(6) 0.152(11) 0.077(6) -0.003(7) 0.013(5) 0.038(6)
C18 0.052(5) 0.095(8) 0.067(5) -0.008(5) 0.018(4) -0.001(4)
C19 0.099(8) 0.144(11) 0.062(6) -0.005(6) 0.013(6) 0.034(7)
C20 0.074(6) 0.118(9) 0.076(6) -0.002(6) -0.001(5) 0.026(6)
C21 0.088(4) 0.164(7) 0.139(7) -0.050(6) 0.061(5) 0.008(5)
C22 0.041(5) 0.096(8) 0.086(6) -0.014(6) 0.016(4) 0.011(5)
C23 0.069(6) 0.118(9) 0.084(6) -0.018(6) 0.027(5) 0.029(5)
C24 0.071(6) 0.147(11) 0.080(7) -0.028(7) 0.008(5) 0.035(6)
C25 0.047(5) 0.123(9) 0.087(6) -0.026(6) 0.013(5) 0.016(5)
C26 0.042(4) 0.102(8) 0.083(5) -0.022(6) 0.026(4) 0.000(4)
C27 0.041(4) 0.099(8) 0.084(6) -0.015(5) 0.021(4) -0.001(4)
C28 0.054(6) 0.140(13) 0.116(11) -0.037(10) 0.012(7) 0.020(7)
C29 0.067(6) 0.083(8) 0.208(12) -0.036(9) 0.063(8) -0.008(5)
C30 0.104(8) 0.124(11) 0.183(12) -0.006(10) 0.081(8) 0.003(7)
C31 0.086(7) 0.096(9) 0.162(9) 0.010(9) 0.060(7) 0.008(6)
C32 0.044(4) 0.075(7) 0.152(9) -0.007(7) 0.043(6) -0.002(4)
C33 0.060(6) 0.112(10) 0.163(10) -0.019(8) 0.032(6) 0.009(6)
C34 0.061(6) 0.108(10) 0.192(11) -0.031(10) 0.027(8) 0.021(6)
C35 0.038(6) 0.108(10) 0.141(12) -0.020(10) 0.028(7) -0.017(6)
C36 0.065(5) 0.144(10) 0.071(7) -0.029(7) 0.001(5) 0.034(6)
C37 0.052(5) 0.195(13) 0.124(10) -0.087(9) 0.001(6) 0.006(7)
C38 0.058(5) 0.165(12) 0.097(8) -0.059(8) -0.001(5) 0.007(6)
C39 0.072(5) 0.123(9) 0.057(6) -0.011(6) -0.002(5) -0.007(6)
C40 0.078(6) 0.207(14) 0.124(11) -0.068(10) 0.010(7) -0.024(8)
C41 0.064(6) 0.197(14) 0.109(10) -0.046(9) -0.001(6) 0.005(7)
C42 0.122(11) 0.105(11) 0.059(7) -0.021(7) 0.003(8) -0.021(9)
O19A 0.103(10) 0.199(15) 0.071(9) -0.047(10) 0.009(8) -0.018(11)
O9A 0.069(10) 0.083(12) 0.075(10) -0.004(9) 0.025(8) 0.010(8)
O10A 0.040(7) 0.139(15) 0.068(9) 0.002(9) -0.003(6) 0.019(8)
C9A 0.106(14) 0.106(10) 0.084(14) -0.006(12) 0.057(12) -0.006(10)
C10A 0.104(12) 0.096(11) 0.050(10) -0.004(10) 0.036(10) -0.006(9)
C12A 0.058(11) 0.107(11) 0.095(17) -0.015(13) 0.022(11) 0.007(8)
C13A 0.096(12) 0.098(12) 0.15(2) -0.003(14) 0.073(13) 0.002(10)
C14A 0.114(13) 0.103(13) 0.101(13) -0.001(9) 0.034(9) -0.002(9)
O19B 0.113(10) 0.152(12) 0.092(10) 0.074(9) 0.067(8) 0.075(9)
O9B 0.064(8) 0.081(9) 0.093(9) 0.006(7) 0.025(7) 0.022(7)
O10B 0.134(14) 0.089(12) 0.066(9) -0.033(9) 0.003(10) 0.012(10)
C9B 0.059(10) 0.130(16) 0.109(16) 0.004(11) 0.025(11) 0.004(9)
C10B 0.104(9) 0.109(16) 0.106(16) 0.005(12) 0.043(11) 0.010(10)
C12B 0.078(11) 0.123(15) 0.091(16) 0.001(11) 0.031(11) 0.026(9)
C13B 0.076(8) 0.119(17) 0.117(18) -0.027(13) 0.030(10) 0.007(10)
C14B 0.097(11) 0.101(12) 0.093(11) 0.001(9) 0.039(9) 0.014(9)
loop_
_atom_type_symbol
_atom_type_description
_atom_type_scat_dispersion_real
_atom_type_scat_dispersion_imag
_atom_type_scat_source
C C 0.0181 0.0091 'International Tables Vol C Tables 4.2.6.8 and 6.1.1.4'
H H 0.0000 0.0000 'International Tables Vol C Tables 4.2.6.8 and 6.1.1.4'
N N 0.0311 0.0180 'International Tables Vol C Tables 4.2.6.8 and 6.1.1.4'
O O 0.0492 0.0322 'International Tables Vol C Tables 4.2.6.8 and 6.1.1.4'
P P 0.2955 0.4335 'International Tables Vol C Tables 4.2.6.8 and 6.1.1.4'
Tb Tb -9.1472 9.1891 'International Tables Vol C Tables 4.2.6.8 and 6.1.1.4'
loop_
_geom_angle_atom_site_label_1
_geom_angle_atom_site_label_2
_geom_angle_atom_site_label_3
_geom_angle
_geom_angle_site_symmetry_1
_geom_angle_site_symmetry_3
O14 Tb1 O9B 110.9(6) 4 .
O14 Tb1 O12 77.8(4) 4 7_566
O14 Tb1 O19B 144.9(6) 4 .
O9B Tb1 O19B 84.2(6) . .
O12 Tb1 O19B 70.2(6) 7_566 .
O14 Tb1 O20 136.4(3) 4 .
O9B Tb1 O20 93.0(5) . .
O12 Tb1 O20 139.8(4) 7_566 .
O19B Tb1 O20 70.4(6) . .
O14 Tb1 O8 77.9(3) 4 .
O9B Tb1 O8 79.0(5) . .
O12 Tb1 O8 148.2(4) 7_566 .
O19B Tb1 O8 137.1(6) . .
O20 Tb1 O8 71.4(3) . .
O14 Tb1 O9A 125.2(5) 4 .
O12 Tb1 O9A 107.1(5) 7_566 .
O20 Tb1 O9A 72.9(4) . .
O8 Tb1 O9A 71.6(4) . .
O14 Tb1 O18 78.8(4) 4 3_455
O12 Tb1 O18 78.8(4) 7_566 3_455
O20 Tb1 O18 87.5(4) . 3_455
O8 Tb1 O18 115.9(3) . 3_455
O9A Tb1 O18 155.9(5) . 3_455
O14 Tb1 O10A 81.1(5) 4 .
O12 Tb1 O10A 72.7(5) 7_566 .
O20 Tb1 O10A 124.0(5) . .
O8 Tb1 O10A 83.6(4) . .
O9A Tb1 O10A 51.6(5) . .
O18 Tb1 O10A 147.9(5) 3_455 .
O14 Tb1 O17 72.8(3) 4 3_455
O12 Tb1 O17 126.1(3) 7_566 3_455
O20 Tb1 O17 66.3(3) . 3_455
O8 Tb1 O17 64.2(2) . 3_455
O9A Tb1 O17 126.8(4) . 3_455
O18 Tb1 O17 52.0(3) 3_455 3_455
O10A Tb1 O17 141.8(4) . 3_455
O14 Tb1 C28 73.1(4) 4 3_455
O12 Tb1 C28 101.8(4) 7_566 3_455
O20 Tb1 C28 76.9(4) . 3_455
O8 Tb1 C28 90.4(3) . 3_455
O9A Tb1 C28 148.4(5) . 3_455
O18 Tb1 C28 25.5(3) 3_455 3_455
O10A Tb1 C28 154.2(5) . 3_455
O17 Tb1 C28 26.5(3) 3_455 3_455
O14 Tb1 Tb2 98.4(2) 4 .
O9B Tb1 Tb2 105.6(5) . .
O12 Tb1 Tb2 163.3(3) 7_566 .
O19B Tb1 Tb2 108.0(5) . .
O20 Tb1 Tb2 38.6(2) . .
O8 Tb1 Tb2 42.32(15) . .
O9A Tb1 Tb2 88.5(4) . .
O18 Tb1 Tb2 84.5(3) 3_455 .
O10A Tb1 Tb2 123.2(3) . .
O17 Tb1 Tb2 38.59(19) 3_455 .
C28 Tb1 Tb2 61.7(3) 3_455 .
O15 Tb2 O16 96.6(3) 4 3_455
O15 Tb2 O22 130.6(6) 4 .
O16 Tb2 O22 87.5(4) 3_455 .
O15 Tb2 O17 78.3(4) 4 3_455
O16 Tb2 O17 77.5(3) 3_455 3_455
O22 Tb2 O17 149.3(6) . 3_455
O15 Tb2 O7 76.9(3) 4 .
O16 Tb2 O7 161.0(3) 3_455 .
O22 Tb2 O7 83.6(5) . .
O17 Tb2 O7 117.7(3) 3_455 .
O15 Tb2 O20 142.5(3) 4 .
O16 Tb2 O20 97.9(3) 3_455 .
O22 Tb2 O20 84.5(6) . .
O17 Tb2 O20 71.5(4) 3_455 .
O7 Tb2 O20 97.9(3) . .
O15 Tb2 O23 80.6(4) 4 .
O16 Tb2 O23 80.9(3) 3_455 .
O22 Tb2 O23 51.4(6) . .
O17 Tb2 O23 147.6(4) 3_455 .
O7 Tb2 O23 80.4(2) . .
O20 Tb2 O23 135.9(4) . .
O15 Tb2 O8 79.0(3) 4 .
O16 Tb2 O8 144.5(3) 3_455 .
O22 Tb2 O8 122.2(4) . .
O17 Tb2 O8 67.1(2) 3_455 .
O7 Tb2 O8 52.5(2) . .
O20 Tb2 O8 69.2(3) . .
O23 Tb2 O8 131.77(19) . .
O15 Tb2 C7 75.0(3) 4 .
O16 Tb2 C7 168.1(4) 3_455 .
O22 Tb2 C7 104.3(5) . .
O17 Tb2 C7 92.4(3) 3_455 .
O7 Tb2 C7 25.9(3) . .
O20 Tb2 C7 84.6(3) . .
O23 Tb2 C7 105.5(3) . .
O8 Tb2 C7 26.7(3) . .
O15 Tb2 Tb1 103.9(2) 4 .
O16 Tb2 Tb1 110.4(2) 3_455 .
O22 Tb2 Tb1 120.6(5) . .
O17 Tb2 Tb1 45.0(2) 3_455 .
O7 Tb2 Tb1 88.5(2) . .
O20 Tb2 Tb1 38.6(2) . .
O23 Tb2 Tb1 166.9(3) . .
O8 Tb2 Tb1 39.85(17) . .
C7 Tb2 Tb1 64.7(3) . .
O10B Tb3 O10B 180.0 7_566 .
O13 Tb3 O13 180.0 6_566 4
O10B Tb3 O11 89.7(6) 7_566 .
O10B Tb3 O11 90.3(6) . .
O13 Tb3 O11 104.3(4) 6_566 .
O13 Tb3 O11 75.7(4) 4 .
O13 Tb3 O11 75.7(4) 6_566 7_566
O13 Tb3 O11 104.3(4) 4 7_566
O11 Tb3 O11 180.0 . 7_566
O13 Tb3 O10A 53.4(5) 6_566 7_566
O13 Tb3 O10A 126.6(5) 4 7_566
O11 Tb3 O10A 91.3(4) . 7_566
O11 Tb3 O10A 88.7(4) 7_566 7_566
O13 Tb3 O10A 126.6(5) 6_566 .
O13 Tb3 O10A 53.4(5) 4 .
O11 Tb3 O10A 88.7(4) . .
O11 Tb3 O10A 91.3(4) 7_566 .
O10A Tb3 O10A 180.0 7_566 .
O13 Tb3 O19A 60.6(5) 6_566 .
O13 Tb3 O19A 119.4(5) 4 .
O11 Tb3 O19A 93.9(4) . .
O11 Tb3 O19A 86.1(4) 7_566 .
O10A Tb3 O19A 113.0(5) 7_566 .
O10A Tb3 O19A 67.0(5) . .
O13 Tb3 O19A 119.4(5) 6_566 7_566
O13 Tb3 O19A 60.6(5) 4 7_566
O11 Tb3 O19A 86.1(4) . 7_566
O11 Tb3 O19A 93.9(4) 7_566 7_566
O10A Tb3 O19A 67.0(5) 7_566 7_566
O10A Tb3 O19A 112.9(5) . 7_566
O19A Tb3 O19A 180.0 . 7_566
N2 P1 N1 119.3(6) . .
N2 P1 O4 109.8(5) . .
N1 P1 O4 110.0(6) . .
N2 P1 O1 105.6(5) . .
N1 P1 O1 111.9(5) . .
O4 P1 O1 98.1(5) . .
N2 P2 N3 117.5(5) . .
N2 P2 O5 106.1(4) . .
N3 P2 O5 113.0(5) . .
N2 P2 O2 109.6(5) . .
N3 P2 O2 110.7(5) . .
O5 P2 O2 98.2(4) . .
N1 P3 N3 118.8(6) . .
N1 P3 O6 109.8(7) . .
N3 P3 O6 111.1(5) . .
N1 P3 O3 110.3(5) . .
N3 P3 O3 110.0(6) . .
O6 P3 O3 94.2(5) . .
C1 O1 P1 123.9(8) . .
C15 O2 P2 120.4(6) . .
C8 O3 P3 124.4(8) . .
C36 O4 P1 122.5(8) . .
C22 O5 P2 130.5(7) . .
C29 O6 P3 121.2(7) . .
C7 O7 Tb2 96.1(6) . .
C7 O8 Tb1 153.1(8) . .
C7 O8 Tb2 88.4(6) . .
Tb1 O8 Tb2 97.8(2) . .
C21 O11 Tb3 118.2(10) . .
C21 O12 Tb1 160.5(14) . 7_566
C42 O13 Tb3 155.3(12) . 4_545
C42 O14 Tb1 125.2(10) . 4_545
C35 O15 Tb2 140.3(9) . 4_545
C35 O16 Tb2 130.7(9) . 3_545
C28 O17 Tb2 144.2(9) . 3_545
C28 O17 Tb1 87.3(8) . 3_545
Tb2 O17 Tb1 96.4(3) 3_545 3_545
C28 O18 Tb1 97.0(8) . 3_545
Tb1 O20 Tb2 102.8(4) . .
Tb2 O23 Tb2 117.3(6) . 2
P3 N1 P1 120.4(6) . .
P1 N2 P2 121.3(7) . .
P2 N3 P3 120.7(7) . .
C2 C1 C6 123.1(9) . .
C2 C1 O1 123.7(9) . .
C6 C1 O1 113.1(9) . .
C1 C2 C3 118.1(9) . .
C4 C3 C2 120.2(9) . .
C5 C4 C3 119.5(8) . .
C5 C4 C7 121.2(9) . .
C3 C4 C7 119.3(9) . .
C4 C5 C6 122.2(9) . .
C5 C6 C1 116.9(9) . .
O7 C7 O8 122.6(9) . .
O7 C7 C4 119.4(10) . .
O8 C7 C4 117.8(11) . .
O7 C7 Tb2 58.0(5) . .
O8 C7 Tb2 64.9(5) . .
C4 C7 Tb2 168.9(8) . .
C9B C8 O3 119.0(11) . .
O3 C8 C9A 124.7(11) . .
O3 C8 C13A 118.9(11) . .
C9A C8 C13A 116.3(13) . .
C9B C8 C13B 120.2(13) . .
O3 C8 C13B 120.8(12) . .
C10A C11 C12A 119.5(13) . .
C12B C11 C10B 116.5(13) . .
C12B C11 C14B 133.5(13) . .
C10B C11 C14B 109.9(13) . .
C10A C11 C14A 127.6(14) . .
C12A C11 C14A 107.5(13) . .
C16 C15 C20 121.3(9) . .
C16 C15 O2 121.6(9) . .
C20 C15 O2 117.1(8) . .
C15 C16 C17 119.1(9) . .
C18 C17 C16 119.4(9) . .
C19 C18 C17 120.1(8) . .
C19 C18 C21 123.2(10) . .
C17 C18 C21 116.6(10) . .
C18 C19 C20 121.4(9) . .
C15 C20 C19 118.5(9) . .
O11 C21 O12 114.8(13) . .
O11 C21 C18 124.9(14) . .
O12 C21 C18 120.3(13) . .
C27 C22 C23 120.6(8) . .
C27 C22 O5 117.3(8) . .
C23 C22 O5 121.9(8) . .
C22 C23 C24 118.3(8) . .
C25 C24 C23 121.4(9) . .
C24 C25 C26 119.0(8) . .
C24 C25 C28 120.5(10) . .
C26 C25 C28 120.5(9) . .
C27 C26 C25 120.4(8) . .
C26 C27 C22 120.2(8) . .
O18 C28 O17 123.6(12) . .
O18 C28 C25 119.2(11) . .
O17 C28 C25 117.1(13) . .
O18 C28 Tb1 57.5(6) . 3_545
O17 C28 Tb1 66.2(7) . 3_545
C25 C28 Tb1 172.0(9) . 3_545
C34 C29 C30 124.2(10) . .
C34 C29 O6 118.8(12) . .
C30 C29 O6 116.9(12) . .
C29 C30 C31 116.8(11) . .
C32 C31 C30 121.4(10) . .
C33 C32 C31 119.9(9) . .
C33 C32 C35 123.3(11) . .
C31 C32 C35 116.8(11) . .
C32 C33 C34 120.1(10) . .
C29 C34 C33 117.4(10) . .
O16 C35 O15 125.4(11) . .
O16 C35 C32 121.0(14) . .
O15 C35 C32 113.5(12) . .
C37 C36 C41 120.4(9) . .
C37 C36 O4 122.9(10) . .
C41 C36 O4 116.6(9) . .
C36 C37 C38 120.3(9) . .
C37 C38 C39 121.5(9) . .
C38 C39 C40 117.0(9) . .
C38 C39 C42 118.5(10) . .
C40 C39 C42 124.6(10) . .
C41 C40 C39 121.4(10) . .
C36 C41 C40 119.3(10) . .
O14 C42 O13 122.0(15) . .
O14 C42 C39 123.2(12) . .
O13 C42 C39 114.0(14) . .
C14A O9A Tb1 99.8(13) . .
C14A O10A Tb1 93.1(10) . .
C14A O10A Tb3 141.3(17) . .
Tb1 O10A Tb3 114.7(6) . .
C8 C9A C10A 122.7(14) . .
C11 C10A C9A 119.0(14) . .
C11 C12A C13A 119.3(14) . .
C12A C13A C8 121.4(15) . .
O9A C14A O10A 114.5(16) . .
O9A C14A C11 129.9(17) . .
O10A C14A C11 115.5(15) . .
C14B O9B Tb1 135.4(17) . .
C14B O10B Tb3 147.8(19) . .
C8 C9B C10B 119.3(14) . .
C9B C10B C11 122.2(14) . .
C11 C12B C13B 121.5(15) . .
C12B C13B C8 119.8(15) . .
O10B C14B O9B 121.6(18) . .
O10B C14B C11 127.3(17) . .
O9B C14B C11 111.1(15) . .
loop_
_geom_bond_atom_site_label_1
_geom_bond_atom_site_label_2
_geom_bond_distance
_geom_bond_site_symmetry_2
Tb1 O14 2.304(9) 4
Tb1 O9B 2.306(16) .
Tb1 O12 2.325(12) 7_566
Tb1 O19B 2.325(12) .
Tb1 O20 2.388(9) .
Tb1 O8 2.415(8) .
Tb1 O9A 2.434(16) .
Tb1 O18 2.464(8) 3_455
Tb1 O10A 2.563(12) .
Tb1 O17 2.656(9) 3_455
Tb1 C28 2.899(12) 3_455
Tb1 Tb2 3.7338(10) .
Tb2 O15 2.249(9) 4
Tb2 O16 2.276(7) 3_455
Tb2 O22 2.341(16) .
Tb2 O17 2.344(9) 3_455
Tb2 O7 2.388(7) .
Tb2 O20 2.391(10) .
Tb2 O23 2.445(8) .
Tb2 O8 2.537(7) .
Tb2 C7 2.800(10) .
Tb3 O10B 2.033(16) 7_566
Tb3 O10B 2.033(16) .
Tb3 O13 2.272(14) 6_566
Tb3 O13 2.272(13) 4
Tb3 O11 2.347(8) .
Tb3 O11 2.347(8) 7_566
Tb3 O10A 2.653(16) 7_566
Tb3 O10A 2.653(16) .
Tb3 O19A 2.71(2) .
Tb3 O19A 2.71(2) 7_566
P1 N2 1.559(8) .
P1 N1 1.576(11) .
P1 O4 1.587(9) .
P1 O1 1.611(8) .
P2 N2 1.577(9) .
P2 N3 1.578(9) .
P2 O5 1.580(6) .
P2 O2 1.611(8) .
P3 N1 1.550(12) .
P3 N3 1.598(9) .
P3 O6 1.600(9) .
P3 O3 1.617(10) .
O1 C1 1.419(11) .
O2 C15 1.393(11) .
O3 C8 1.366(12) .
O4 C36 1.396(12) .
O5 C22 1.380(11) .
O6 C29 1.437(12) .
O7 C7 1.231(13) .
O8 C7 1.258(12) .
O11 C21 1.179(16) .
O12 C21 1.213(17) .
O13 C42 1.268(15) .
O14 C42 1.160(16) .
O15 C35 1.327(16) .
O16 C35 1.178(15) .
O17 C28 1.295(14) .
O18 C28 1.257(15) .
C1 C2 1.360(11) .
C1 C6 1.384(10) .
C2 C3 1.394(10) .
C3 C4 1.382(10) .
C4 C5 1.359(10) .
C4 C7 1.497(13) .
C5 C6 1.378(10) .
C8 C9B 1.335(14) .
C8 C9A 1.366(14) .
C8 C13A 1.376(14) .
C8 C13B 1.377(14) .
C11 C10A 1.341(13) .
C11 C12B 1.346(15) .
C11 C12A 1.368(14) .
C11 C10B 1.405(14) .
C11 C14B 1.469(16) .
C11 C14A 1.538(16) .
C15 C16 1.365(10) .
C15 C20 1.371(10) .
C16 C17 1.404(10) .
C17 C18 1.368(10) .
C18 C19 1.355(10) .
C18 C21 1.464(14) .
C19 C20 1.380(10) .
C22 C27 1.376(10) .
C22 C23 1.379(10) .
C23 C24 1.381(10) .
C24 C25 1.376(10) .
C25 C26 1.378(10) .
C25 C28 1.497(16) .
C26 C27 1.361(10) .
C29 C34 1.366(12) .
C29 C30 1.367(12) .
C30 C31 1.379(11) .
C31 C32 1.375(11) .
C32 C33 1.374(11) .
C32 C35 1.483(14) .
C33 C34 1.394(11) .
C36 C37 1.346(10) .
C36 C41 1.354(11) .
C37 C38 1.361(11) .
C38 C39 1.362(10) .
C39 C40 1.390(11) .
C39 C42 1.459(17) .
C40 C41 1.367(11) .
O9A C14A 1.283(17) .
O10A C14A 1.306(17) .
C9A C10A 1.372(15) .
C12A C13A 1.370(15) .
O9B C14B 1.276(17) .
O10B C14B 1.249(16) .
C9B C10B 1.362(15) .
C12B C13B 1.370(15) .
