#------------------------------------------------------------------------------
#$Date: 2019-05-25 03:10:27 +0300 (Sat, 25 May 2019) $
#$Revision: 215502 $
#$URL: file:///home/coder/svn-repositories/cod/cif/7/12/35/7123541.cif $
#------------------------------------------------------------------------------
#
# This file is available in the Crystallography Open Database (COD),
# http://www.crystallography.net/
#
# All data on this site have been placed in the public domain by the
# contributors.
#
data_7123541
loop_
_publ_author_name
'Jeoung, Sungeun'
'Lee, Songho'
'Lee, Jae Hwa'
'Lee, Soochan'
'Choe, Wonyoung'
'Moon, Dohyun'
'Moon, Hoi Ri'
_publ_section_title
;
 Tuning of the flexibility in metal-organic frameworks based on pendant
 arm macrocycles
;
_journal_name_full               'Chemical Communications'
_journal_paper_doi               10.1039/C9CC02819F
_journal_year                    2019
_chemical_formula_moiety         'C44 H62 N16 Ni2 O8'
_chemical_formula_sum            'C44 H62 N16 Ni2 O8'
_chemical_formula_weight         1060.51
_chemical_name_systematic        as-flexMOF(CN)
_space_group_crystal_system      monoclinic
_space_group_IT_number           15
_space_group_name_Hall           '-C 2yc'
_space_group_name_H-M_alt        'C 1 2/c 1'
_symmetry_space_group_name_Hall  '-C 2yc'
_symmetry_space_group_name_H-M   'C 1 2/c 1'
_atom_sites_solution_hydrogens   geom
_audit_creation_method           SHELXL-2018/3
_audit_update_record
;
2019-05-17 deposited with the CCDC.    2019-05-24 downloaded from the CCDC.
;
_cell_angle_alpha                90
_cell_angle_beta                 93.86(3)
_cell_angle_gamma                90
_cell_formula_units_Z            4
_cell_length_a                   21.799(4)
_cell_length_b                   25.727(5)
_cell_length_c                   15.630(3)
_cell_measurement_reflns_used    88099
_cell_measurement_temperature    220(2)
_cell_measurement_theta_max      33.749
_cell_measurement_theta_min      0.401
_cell_volume                     8746(3)
_computing_cell_refinement       'HKL3000sm(Otwinowski & Minor, 1997)'
_computing_data_collection       'PAL BL2D-SMDC Program(Shin et.al, 2016)'
_computing_data_reduction        'HKL3000sm(Otwinowski & Minor, 1997)'
_computing_molecular_graphics    ORTEP3
_computing_publication_material  CIFTAB
_computing_structure_refinement  'SHELXL-2018(Sheldrick, 2015b)'
_computing_structure_solution    'SHELXT-2018(Sheldrick, 2015a)'
_diffrn_ambient_temperature      220(2)
_diffrn_measured_fraction_theta_full 0.998
_diffrn_measured_fraction_theta_max 0.999
_diffrn_measurement_device_type  'Rayonix MX225HS CCD area detector'
_diffrn_measurement_method       'omega scan'
_diffrn_radiation_type           synchrotron
_diffrn_radiation_wavelength     0.700
_diffrn_reflns_av_R_equivalents  0.0633
_diffrn_reflns_av_unetI/netI     0.0491
_diffrn_reflns_Laue_measured_fraction_full 0.998
_diffrn_reflns_Laue_measured_fraction_max 0.999
_diffrn_reflns_limit_h_max       28
_diffrn_reflns_limit_h_min       -28
_diffrn_reflns_limit_k_max       33
_diffrn_reflns_limit_k_min       -33
_diffrn_reflns_limit_l_max       20
_diffrn_reflns_limit_l_min       -20
_diffrn_reflns_number            35918
_diffrn_reflns_point_group_measured_fraction_full 0.998
_diffrn_reflns_point_group_measured_fraction_max 0.999
_diffrn_reflns_theta_full        24.835
_diffrn_reflns_theta_max         26.999
_diffrn_reflns_theta_min         1.718
_diffrn_source                   'PLSII 2D bending magnet'
_exptl_absorpt_coefficient_mu    0.449
_exptl_absorpt_correction_T_max  1.000
_exptl_absorpt_correction_T_min  0.959
_exptl_absorpt_correction_type   empirical
_exptl_absorpt_process_details   'HKL3000sm Scalepack(Otwinowski et.al,2003)'
_exptl_crystal_colour            'pale purple'
_exptl_crystal_density_diffrn    0.805
_exptl_crystal_description       block
_exptl_crystal_F_000             2232
_exptl_crystal_size_max          0.064
_exptl_crystal_size_mid          0.057
_exptl_crystal_size_min          0.043
_refine_diff_density_max         0.670
_refine_diff_density_min         -0.607
_refine_diff_density_rms         0.056
_refine_ls_extinction_method     none
_refine_ls_goodness_of_fit_ref   1.097
_refine_ls_hydrogen_treatment    constr
_refine_ls_matrix_type           full
_refine_ls_number_parameters     319
_refine_ls_number_reflns         9987
_refine_ls_number_restraints     6
_refine_ls_restrained_S_all      1.111
_refine_ls_R_factor_all          0.0649
_refine_ls_R_factor_gt           0.0515
_refine_ls_shift/su_max          0.000
_refine_ls_shift/su_mean         0.000
_refine_ls_structure_factor_coef Fsqd
_refine_ls_weighting_details
'w=1/[\s^2^(Fo^2^)+(0.0956P)^2^] where P=(Fo^2^+2Fc^2^)/3'
_refine_ls_weighting_scheme      calc
_refine_ls_wR_factor_gt          0.1618
_refine_ls_wR_factor_ref         0.1676
_reflns_Friedel_coverage         0.000
_reflns_number_gt                7287
_reflns_number_total             9987
_reflns_threshold_expression     'I > 2\s(I)'
_cod_data_source_file            c9cc02819f2.cif
_cod_data_source_block           asflex_CN_sq
_cod_database_code               7123541
_shelx_shelxl_version_number     2018/3
_shelx_space_group_comment
;
The symmetry employed for this shelxl refinement is uniquely defined
by the following loop, which should always be used as a source of
symmetry information in preference to the above space-group names.
They are only intended as comments.
;
_shelx_estimated_absorpt_t_min   0.972
_shelx_estimated_absorpt_t_max   0.981
_shelx_res_file
;
TITL asflex_CN in C2/c
    asflex_CN_sq.res
    created by SHELXL-2018/3 at 18:03:54 on 08-May-2019
CELL  0.70000  21.7985  25.7267  15.6300   90.000   93.857   90.000
ZERR    4.000   0.0044   0.0052   0.0031    0.000    0.030    0.000
LATT  7
SYMM -X, Y, 1/2-Z
SFAC C H N O NI
DISP C          0.0030         0.0016          10.98
DISP H          0.0000         0.0000           0.67
DISP N          0.0059         0.0032          18.71
DISP O          0.0105         0.0059          30.82
DISP Ni         0.3420         1.0875        4371.60
UNIT 176 248 64 32 8
ACTA
OMIT -3 54
OMIT 0 2 2
OMIT 4 2 4
OMIT 9 3 0
OMIT -4 8 3
OMIT 5 1 1
OMIT 4 2 0
OMIT 3 11 1
OMIT 3 3 4
OMIT 8 6 0
OMIT 9 1 1
OMIT 4 6 0
OMIT 6 0 6
OMIT 0 2 0
OMIT -10 4 1
L.S. 10 0  177
BOND $H
SIZE 0.064 0.057 0.043
TEMP -53.15
FMAP -2
PLAN -10
CONF
WPDB
EQIV $1 -x+1, -y+1, -z+1
HTAB N1 O2
HTAB N5 O4
HTAB N7 N4_$1
ABIN
LIST 4
WGHT    0.095600
FVAR       0.18985
N8    3    0.432987    0.227669    0.617537    11.00000    0.12426    0.28900 =
         0.24672    0.06475    0.02929    0.07238
NI1   5    0.500000    0.500000    0.000000    10.50000    0.04135    0.04569 =
         0.02407    0.00698   -0.00948    0.00507
NI2   5    0.750000    0.250000    0.500000    10.50000    0.05286    0.04397 =
         0.03829    0.00051   -0.01890    0.01169
O1    4    0.518572    0.467933    0.123584    11.00000    0.05085    0.05598 =
         0.02409    0.01003   -0.01473   -0.00104
O2    4    0.578013    0.521180    0.206631    11.00000    0.06210    0.04651 =
         0.04186    0.00539   -0.01615   -0.00701
O3    4    0.693216    0.302123    0.426095    11.00000    0.05656    0.05002 =
         0.04933    0.00711   -0.02627    0.01075
O4    4    0.607562    0.258709    0.387968    11.00000    0.06573    0.05811 =
         0.09214    0.02457   -0.03492    0.00020
N1    3    0.536727    0.570591    0.036649    11.00000    0.05583    0.05139 =
         0.02522    0.00472   -0.00956   -0.00062
AFIX  13
H1    2    0.545731    0.570102    0.099577    11.00000   -1.20000
AFIX   0
N2    3    0.436269    0.610568    0.053386    11.00000    0.07447    0.06065 =
         0.03542    0.00024   -0.00768    0.02116
N3    3    0.413634    0.517337    0.038688    11.00000    0.04554    0.06402 =
         0.03093    0.00595   -0.00638    0.00890
AFIX  13
H3    2    0.414942    0.512728    0.101668    11.00000   -1.20000
AFIX   0
N4    3    0.406122    0.670203    0.336863    11.00000    0.12182    0.13047 =
         0.05896   -0.01858   -0.00925    0.05987
N5    3    0.694694    0.187475    0.467008    11.00000    0.06035    0.04740 =
         0.05421    0.00229   -0.02357    0.00628
AFIX  13
H5    2    0.656416    0.201704    0.438390    11.00000   -1.20000
AFIX   0
N6    3    0.647479    0.185734    0.604527    11.00000    0.06511    0.07564 =
         0.06885    0.01887   -0.00769    0.00358
N7    3    0.705264    0.268341    0.607708    11.00000    0.06283    0.06224 =
         0.04669   -0.00200   -0.01309    0.01545
AFIX  13
H7    2    0.667769    0.288219    0.589383    11.00000   -1.20000
AFIX   0
C1    1    0.595193    0.574355   -0.004255    11.00000    0.06264    0.06645 =
         0.03396    0.00815   -0.00721   -0.01361
AFIX  23
H1A   2    0.621217    0.600857    0.024965    11.00000   -1.20000
H1AB  2    0.587395    0.584893   -0.064255    11.00000   -1.20000
AFIX   0
C2    1    0.494445    0.614327    0.015199    11.00000    0.07726    0.04747 =
         0.03377    0.00595   -0.01252    0.00476
AFIX  23
H2A   2    0.514565    0.646815    0.034053    11.00000   -1.20000
H2AB  2    0.486851    0.616053   -0.047252    11.00000   -1.20000
AFIX   0
C3    1    0.393971    0.571832    0.019688    11.00000    0.05881    0.07285 =
         0.03812    0.00632   -0.00858    0.02425
AFIX  23
H3A   2    0.388350    0.576170   -0.042639    11.00000   -1.20000
H3AB  2    0.354034    0.577685    0.043332    11.00000   -1.20000
AFIX   0
C4    1    0.371844    0.477586    0.000142    11.00000    0.04244    0.08679 =
         0.03667    0.01031   -0.00553   -0.00115
AFIX  23
H4A   2    0.360018    0.486584   -0.059628    11.00000   -1.20000
H4AB  2    0.334484    0.475683    0.031551    11.00000   -1.20000
AFIX   0
C5    1    0.440354    0.616781    0.146050    11.00000    0.08907    0.06843 =
         0.03816   -0.00135   -0.00629    0.02197
AFIX  23
H5A   2    0.479667    0.633212    0.164139    11.00000   -1.20000
H5AB  2    0.439443    0.582441    0.173074    11.00000   -1.20000
AFIX   0
ISOR 0.005 C6
C6    1    0.390039    0.648422    0.175437    11.00000    0.11253    0.14149 =
         0.06223   -0.02223   -0.00834    0.05108
AFIX  23
H6A   2    0.387480    0.680888    0.142595    11.00000   -1.20000
H6B   2    0.351180    0.629708    0.164136    11.00000   -1.20000
AFIX   0
C7    1    0.397956    0.660541    0.265847    11.00000    0.10930    0.12119 =
         0.05744   -0.01921   -0.00999    0.05731
C8    1    0.725581    0.158463    0.401666    11.00000    0.07879    0.05696 =
         0.07094   -0.01912   -0.02794    0.01468
AFIX  23
H8A   2    0.696007    0.135949    0.369490    11.00000   -1.20000
H8AB  2    0.758062    0.136564    0.428987    11.00000   -1.20000
AFIX   0
C9    1    0.676212    0.155989    0.539982    11.00000    0.06916    0.05519 =
         0.07668    0.01231   -0.02424    0.00260
AFIX  23
H9A   2    0.647573    0.128948    0.518266    11.00000   -1.20000
H9AB  2    0.712689    0.138641    0.566634    11.00000   -1.20000
AFIX   0
C10   1    0.686174    0.221585    0.655930    11.00000    0.07977    0.08030 =
         0.04752    0.00901   -0.00756    0.01472
AFIX  23
H10A  2    0.723104    0.203090    0.678467    11.00000   -1.20000
H10B  2    0.663862    0.233027    0.704952    11.00000   -1.20000
AFIX   0
C11   1    0.747101    0.303273    0.658108    11.00000    0.08042    0.07629 =
         0.04861   -0.01491   -0.01491    0.01833
AFIX  23
H11A  2    0.779895    0.283057    0.688419    11.00000   -1.20000
H11B  2    0.724490    0.321871    0.700755    11.00000   -1.20000
AFIX   0
C12   1    0.585217    0.203760    0.580403    11.00000    0.07694    0.09803 =
         0.08153    0.01837   -0.01122   -0.00181
AFIX  23
H12A  2    0.585919    0.241505    0.572077    11.00000   -1.20000
H12B  2    0.570988    0.187804    0.525687    11.00000   -1.20000
AFIX   0
C13   1    0.542415    0.191387    0.643903    11.00000    0.10419    0.21759 =
         0.18015    0.07653    0.04509    0.04134
AFIX  23
H13A  2    0.539147    0.153484    0.647866    11.00000   -1.20000
H13B  2    0.559358    0.204092    0.699697    11.00000   -1.20000
AFIX   0
C14   1    0.481638    0.212460    0.627971    11.00000    0.10631    0.22353 =
         0.18781    0.05582    0.02347    0.03547
C15   1    0.555309    0.477878    0.187734    11.00000    0.04095    0.04997 =
         0.02433    0.00436   -0.00542    0.00191
C16   1    0.574077    0.431157    0.242394    11.00000    0.04005    0.04618 =
         0.01961    0.00092   -0.01013    0.00409
C17   1    0.636520    0.426651    0.268982    11.00000    0.04151    0.05269 =
         0.03136    0.00685   -0.00955   -0.00218
AFIX  43
H17   2    0.663675    0.453501    0.256170    11.00000   -1.20000
AFIX   0
C18   1    0.659066    0.383567    0.313655    11.00000    0.03857    0.06039 =
         0.03210    0.00326   -0.01105    0.00832
AFIX  43
H18   2    0.701101    0.381430    0.331136    11.00000   -1.20000
AFIX   0
C19   1    0.619816    0.343671    0.332589    11.00000    0.04645    0.04573 =
         0.02604   -0.00163   -0.01271    0.01171
C20   1    0.557572    0.347692    0.306015    11.00000    0.04750    0.04044 =
         0.02419    0.00003   -0.01235    0.00218
AFIX  43
H20   2    0.530843    0.320417    0.318275    11.00000   -1.20000
AFIX   0
C21   1    0.534121    0.391020    0.261876    11.00000    0.03797    0.04107 =
         0.01948   -0.00286   -0.01270    0.00315
C22   1    0.641676    0.297490    0.386277    11.00000    0.05393    0.05141 =
         0.03735    0.00203   -0.01465    0.01269
HKLF 4




REM  asflex_CN in C2/c
REM wR2 = 0.1676, GooF = S = 1.097, Restrained GooF = 1.111 for all data
REM R1 = 0.0515 for 7287 Fo > 4sig(Fo) and 0.0649 for all 9987 data
REM 319 parameters refined using 6 restraints

END

WGHT      0.0955      0.0000

REM Highest difference peak  0.670,  deepest hole -0.607,  1-sigma level  0.056
Q1    1   0.7467  0.2498  0.4423  11.00000  0.05    0.67
Q2    1   0.4698  0.5229  0.0010  11.00000  0.05    0.65
Q3    1   0.5311  0.5228  0.0010  11.00000  0.05    0.62
Q4    1   0.4653  0.5001  0.0158  11.00000  0.05   -0.61
Q5    1   0.7867  0.2505  0.4793  11.00000  0.05   -0.58
Q6    1   0.7801  0.2285  0.4949  11.00000  0.05    0.55
Q7    1   0.7810  0.2737  0.5022  11.00000  0.05    0.54
Q8    1   0.5054  0.5009  0.0534  11.00000  0.05    0.54
Q9    1   0.4278  0.6714  0.1639  11.00000  0.05    0.51
Q10   1   0.7482  0.2746  0.4770  11.00000  0.05   -0.39
;
_shelx_res_checksum              34616
_shelx_fab_file
;
    2    2    0    -51.38      0.00
    3    3    0     72.65      0.00
    4    4    0      3.07      0.00
    5    5    0    -51.71      0.00
    6    6    0     -2.29      0.00
    7    7    0     23.86      0.00
    8    8    0     28.51      0.00
    9    9    0    -21.46      0.00
   10   10    0    -11.94      0.00
   11   11    0      8.71      0.00
   12   12    0      2.26      0.00
   13   13    0     -0.27      0.00
   14   14    0     -5.62      0.00
   15   15    0      7.35      0.00
   16   16    0     -1.58      0.00
   17   17    0     -2.09      0.00
   18   18    0     -0.06      0.00
   19   19    0      2.64      0.00
   20   20    0     -0.72      0.00
   21   21    0     -1.66      0.00
   22   22    0      0.64      0.00
   23   23    0     -4.54      0.00
   22   24    0      1.26      0.00
   21   23    0      0.15      0.00
   20   22    0      1.12      0.00
   19   21    0      2.06      0.00
   18   20    0     -0.79      0.00
   17   19    0     -5.11      0.00
   16   18    0      0.04      0.00
   15   17    0      5.38      0.00
   14   16    0     -0.22      0.00
   13   15    0     -7.75      0.00
   12   14    0      4.08      0.00
   11   13    0      7.07      0.00
   10   12    0    -13.60      0.00
    9   11    0    -13.34      0.00
    8   10    0     32.32      0.00
    7    9    0      6.62      0.00
    6    8    0      8.34      0.00
    5    7    0    -46.86      0.00
    4    6    0     12.75      0.00
    3    5    0      0.40      0.00
    2    4    0    -76.51      0.00
    1    3    0    -22.53      0.00
    0    2    0    197.10      0.00
    2    0    0   -193.02      0.00
    3    1    0     97.24      0.00
    4    2    0     13.66      0.00
    5    3    0     14.48      0.00
    6    4    0     -6.90      0.00
    7    5    0     41.16      0.00
    8    6    0     -0.57      0.00
    9    7    0     -7.15      0.00
   10    8    0    -17.22      0.00
   11    9    0      0.14      0.00
   12   10    0      8.46      0.00
   13   11    0     -2.23      0.00
   14   12    0     -3.73      0.00
   15   13    0      0.51      0.00
   16   14    0      5.35      0.00
   17   15    0     -0.83      0.00
   18   16    0     -2.70      0.00
   19   17    0      0.38      0.00
   20   18    0      2.56      0.00
   21   19    0     -5.03      0.00
   22   20    0      6.09      0.00
   23   21    0     -5.08      0.00
   24   22    0      3.13      0.00
   21   25    0      1.90      0.00
   20   24    0      1.30      0.00
   19   23    0     -0.39      0.00
   18   22    0      0.69      0.00
   17   21    0      0.38      0.00
   16   20    0      0.57      0.00
   15   19    0      1.44      0.00
   14   18    0      0.68      0.00
   13   17    0     -1.24      0.00
   12   16    0     -4.08      0.00
   11   15    0      0.18      0.00
   10   14    0      7.63      0.00
    9   13    0     -5.46      0.00
    8   12    0     -2.06      0.00
    7   11    0     34.81      0.00
    6   10    0    -12.60      0.00
    5    9    0    -60.08      0.00
    4    8    0    -13.26      0.00
    3    7    0     69.20      0.00
    2    6    0      0.33      0.00
    1    5    0     31.69      0.00
    0    4    0    122.71      0.00
    4    0    0     82.07      0.00
    5    1    0    -25.80      0.00
    6    2    0    -41.30      0.00
    7    3    0     51.09      0.00
    8    4    0    -35.17      0.00
    9    5    0     -7.95      0.00
   10    6    0     -6.44      0.00
   11    7    0      3.25      0.00
   12    8    0      5.31      0.00
   13    9    0      5.98      0.00
   14   10    0     -4.32      0.00
   15   11    0     -1.05      0.00
   16   12    0      2.78      0.00
   17   13    0     -0.32      0.00
   18   14    0     -4.13      0.00
   19   15    0     -0.86      0.00
   20   16    0      6.56      0.00
   21   17    0     -1.65      0.00
   22   18    0      1.24      0.00
   23   19    0     -0.44      0.00
   24   20    0     -2.23      0.00
   25   21    0      3.58      0.00
   21   27    0      1.30      0.00
   20   26    0     -3.22      0.00
   19   25    0      1.99      0.00
   18   24    0     -6.22      0.00
   17   23    0      2.04      0.00
   16   22    0     -2.78      0.00
   15   21    0      1.44      0.00
   14   20    0      1.82      0.00
   13   19    0     -3.57      0.00
   12   18    0     -3.12      0.00
   11   17    0      6.67      0.00
   10   16    0     -1.62      0.00
    9   15    0      1.89      0.00
    8   14    0      1.04      0.00
    7   13    0      2.05      0.00
    6   12    0     -8.10      0.00
    5   11    0    -35.76      0.00
    4   10    0     21.14      0.00
    3    9    0     47.24      0.00
    2    8    0    -10.14      0.00
    1    7    0     43.62      0.00
    0    6    0   -135.98      0.00
    6    0    0    -40.20      0.00
    7    1    0     76.98      0.00
    8    2    0    -56.77      0.00
    9    3    0    -13.15      0.00
   10    4    0     25.05      0.00
   11    5    0      0.77      0.00
   12    6    0    -11.81      0.00
   13    7    0     10.91      0.00
   14    8    0      3.10      0.00
   15    9    0     -8.32      0.00
   16   10    0      0.01      0.00
   17   11    0      2.11      0.00
   18   12    0     -2.97      0.00
   19   13    0      1.31      0.00
   20   14    0      1.70      0.00
   21   15    0     -5.23      0.00
   22   16    0      0.84      0.00
   23   17    0     -0.27      0.00
   24   18    0     -1.74      0.00
   25   19    0      3.99      0.00
   20   28    0      2.10      0.00
   19   27    0     -1.84      0.00
   18   26    0      1.52      0.00
   17   25    0      1.37      0.00
   16   24    0      0.65      0.00
   15   23    0     -1.08      0.00
   14   22    0      1.81      0.00
   13   21    0      0.06      0.00
   12   20    0      0.75      0.00
   11   19    0     -2.23      0.00
   10   18    0      4.75      0.00
    9   17    0      1.15      0.00
    8   16    0     -3.39      0.00
    7   15    0     -8.99      0.00
    6   14    0     -0.26      0.00
    5   13    0      2.30      0.00
    4   12    0      3.20      0.00
    3   11    0     29.13      0.00
    2   10    0     -6.99      0.00
    1    9    0      0.34      0.00
    0    8    0    -86.56      0.00
    8    0    0    -57.63      0.00
    9    1    0    -27.05      0.00
   10    2    0     48.27      0.00
   11    3    0      0.76      0.00
   12    4    0     -5.75      0.00
   13    5    0     -2.63      0.00
   14    6    0     10.89      0.00
   15    7    0     -7.12      0.00
   16    8    0     -4.60      0.00
   17    9    0      4.33      0.00
   18   10    0      5.67      0.00
   19   11    0     -1.22      0.00
   20   12    0     -1.84      0.00
   21   13    0      0.71      0.00
   22   14    0      2.84      0.00
   23   15    0     -2.14      0.00
   24   16    0      1.47      0.00
   25   17    0     -2.66      0.00
   26   18    0      1.55      0.00
   19   29    0     -2.59      0.00
   18   28    0      2.32      0.00
   17   27    0     -1.63      0.00
   16   26    0      3.99      0.00
   15   25    0     -2.83      0.00
   14   24    0      0.68      0.00
   13   23    0      2.33      0.00
   12   22    0     -2.50      0.00
   11   21    0      1.27      0.00
   10   20    0     -3.61      0.00
    9   19    0      7.96      0.00
    8   18    0     -5.80      0.00
    7   17    0     -6.95      0.00
    6   16    0      8.88      0.00
    5   15    0      3.15      0.00
    4   14    0      0.52      0.00
    3   13    0     13.45      0.00
    2   12    0     -8.88      0.00
    1   11    0    -48.10      0.00
    0   10    0     51.27      0.00
   10    0    0     36.91      0.00
   11    1    0     16.85      0.00
   12    2    0    -22.14      0.00
   13    3    0     -9.80      0.00
   14    4    0     16.43      0.00
   15    5    0     -6.46      0.00
   16    6    0     -9.54      0.00
   17    7    0      5.98      0.00
   18    8    0      2.40      0.00
   19    9    0     -0.97      0.00
   20   10    0     -4.49      0.00
   21   11    0      0.23      0.00
   22   12    0      2.14      0.00
   23   13    0      1.41      0.00
   24   14    0     -1.35      0.00
   25   15    0     -1.86      0.00
   26   16    0      3.78      0.00
   27   17    0      2.39      0.00
   18   30    0      2.12      0.00
   17   29    0     -3.53      0.00
   16   28    0      3.47      0.00
   15   27    0     -3.28      0.00
   14   26    0      1.29      0.00
   13   25    0     -3.84      0.00
   12   24    0      2.43      0.00
   11   23    0     -2.71      0.00
   10   22    0     -0.45      0.00
    9   21    0      0.14      0.00
    8   20    0      3.87      0.00
    7   19    0    -11.14      0.00
    6   18    0      3.04      0.00
    5   17    0      9.12      0.00
    4   16    0      9.53      0.00
    3   15    0    -14.75      0.00
    2   14    0    -16.68      0.00
    1   13    0     15.14      0.00
    0   12    0     21.47      0.00
   12    0    0     -8.07      0.00
   13    1    0    -20.74      0.00
   14    2    0      6.44      0.00
   15    3    0      5.51      0.00
   16    4    0     -6.79      0.00
   17    5    0      1.48      0.00
   18    6    0      6.85      0.00
   19    7    0     -1.26      0.00
   20    8    0     -3.68      0.00
   21    9    0     -2.76      0.00
   22   10    0      3.96      0.00
   23   11    0     -0.50      0.00
   24   12    0      0.02      0.00
   25   13    0     -3.63      0.00
   26   14    0      3.45      0.00
   27   15    0     -2.42      0.00
   28   16    0     -4.59      0.00
   17   31    0     -3.29      0.00
   16   30    0      1.24      0.00
   15   29    0      1.10      0.00
   14   28    0     -4.26      0.00
   13   27    0      1.15      0.00
   12   26    0      3.94      0.00
   11   25    0     -1.78      0.00
   10   24    0     -0.12      0.00
    9   23    0      3.93      0.00
    8   22    0     -1.51      0.00
    7   21    0     -2.09      0.00
    6   20    0      2.24      0.00
    5   19    0      6.45      0.00
    4   18    0      4.46      0.00
    3   17    0    -19.98      0.00
    2   16    0     -0.99      0.00
    1   15    0     12.22      0.00
    0   14    0    -14.87      0.00
   14    0    0      6.75      0.00
   15    1    0     14.78      0.00
   16    2    0     -5.23      0.00
   17    3    0      0.39      0.00
   18    4    0      1.02      0.00
   19    5    0      0.92      0.00
   20    6    0     -2.61      0.00
   21    7    0     -1.67      0.00
   22    8    0      3.90      0.00
   23    9    0      2.39      0.00
   24   10    0     -2.56      0.00
   25   11    0     -1.00      0.00
   26   12    0      3.35      0.00
   27   13    0      1.31      0.00
   28   14    0     -1.25      0.00
   16   32    0      0.73      0.00
   15   31    0      0.28      0.00
   14   30    0     -0.52      0.00
   13   29    0      3.43      0.00
   12   28    0      1.43      0.00
   11   27    0     -3.72      0.00
   10   26    0      2.37      0.00
    9   25    0     -2.94      0.00
    8   24    0      0.07      0.00
    7   23    0      3.85      0.00
    6   22    0     -5.43      0.00
    5   21    0      5.45      0.00
    4   20    0     -3.61      0.00
    3   19    0     -8.34      0.00
    2   18    0      3.37      0.00
    1   17    0      4.08      0.00
    0   16    0      7.35      0.00
   16    0    0     -1.54      0.00
   17    1    0     -4.39      0.00
   18    2    0     -3.73      0.00
   19    3    0      2.86      0.00
   20    4    0     -1.06      0.00
   21    5    0     -1.29      0.00
   22    6    0     -0.14      0.00
   23    7    0      2.24      0.00
   24    8    0     -1.35      0.00
   25    9    0     -0.09      0.00
   26   10    0     -1.06      0.00
   27   11    0     -1.86      0.00
   28   12    0      0.95      0.00
   29   13    0     -2.62      0.00
   15   33    0      0.15      0.00
   14   32    0      1.14      0.00
   13   31    0     -1.31      0.00
   12   30    0     -1.95      0.00
   11   29    0      2.46      0.00
   10   28    0     -2.27      0.00
    9   27    0      0.18      0.00
    8   26    0      1.40      0.00
    7   25    0      1.07      0.00
    6   24    0     -1.80      0.00
    5   23    0      0.35      0.00
    4   22    0      0.78      0.00
    3   21    0     -3.12      0.00
    2   20    0      1.00      0.00
    1   19    0      6.58      0.00
    0   18    0     -6.95      0.00
   18    0    0     -2.01      0.00
   19    1    0      1.03      0.00
   20    2    0      4.54      0.00
   21    3    0     -0.34      0.00
   22    4    0     -0.92      0.00
   23    5    0      1.04      0.00
   24    6    0      1.54      0.00
   25    7    0     -0.25      0.00
   26    8    0     -1.35      0.00
   27    9    0     -0.08      0.00
   28   10    0      0.38      0.00
   29   11    0      2.31      0.00
   14   34    0     -0.33      0.00
   13   33    0     -0.36      0.00
   12   32    0      0.89      0.00
   11   31    0     -1.78      0.00
   10   30    0      0.25      0.00
    9   29    0      0.08      0.00
    8   28    0      0.88      0.00
    7   27    0     -0.20      0.00
    6   26    0     -0.04      0.00
    5   25    0     -1.48      0.00
    4   24    0     -1.65      0.00
    3   23    0     -0.07      0.00
    2   22    0      5.14      0.00
    1   21    0      1.97      0.00
    0   20    0     -6.07      0.00
   20    0    0      2.90      0.00
   21    1    0      0.30      0.00
   22    2    0     -2.62      0.00
   23    3    0     -0.91      0.00
   24    4    0      1.77      0.00
   25    5    0     -3.44      0.00
   26    6    0      0.01      0.00
   27    7    0     -0.15      0.00
   28    8    0      1.99      0.00
   29    9    0     -0.12      0.00
   30   10    0     -2.36      0.00
   13   35    0      1.06      0.00
   12   34    0      0.48      0.00
   11   33    0     -1.17      0.00
   10   32    0      0.55      0.00
    9   31    0      0.87      0.00
    8   30    0     -1.08      0.00
    7   29    0     -0.26      0.00
    6   28    0      0.59      0.00
    5   27    0     -1.07      0.00
    4   26    0      0.48      0.00
    3   25    0      1.53      0.00
    2   24    0      1.10      0.00
    1   23    0     -0.72      0.00
    0   22    0     -4.37      0.00
   22    0    0     -1.84      0.00
   23    1    0     -1.74      0.00
   24    2    0      0.09      0.00
   25    3    0      2.06      0.00
   26    4    0     -0.85      0.00
   27    5    0      1.59      0.00
   28    6    0     -0.54      0.00
   29    7    0      0.19      0.00
   30    8    0      1.75      0.00
   31    9    0     -3.05      0.00
   12   36    0      0.33      0.00
   11   35    0     -2.50      0.00
   10   34    0      0.45      0.00
    9   33    0      2.90      0.00
    8   32    0      0.51      0.00
    7   31    0     -1.41      0.00
    6   30    0      1.15      0.00
    5   29    0     -1.97      0.00
    4   28    0      1.75      0.00
    3   27    0      0.31      0.00
    2   26    0      1.37      0.00
    1   25    0      0.14      0.00
    0   24    0     -3.07      0.00
   24    0    0     -0.38      0.00
   25    1    0      1.61      0.00
   26    2    0      1.67      0.00
   27    3    0      1.04      0.00
   28    4    0     -3.11      0.00
   29    5    0     -1.70      0.00
   30    6    0      4.58      0.00
    9   35    0      3.60      0.00
    8   34    0     -6.17      0.00
    7   33    0      0.98      0.00
    6   32    0     -0.29      0.00
    5   31    0      1.73      0.00
    4   30    0     -0.72      0.00
    3   29    0     -0.56      0.00
    2   28    0      0.50      0.00
    1   27    0     -1.21      0.00
    0   26    0     -1.37      0.00
   26    0    0      2.22      0.00
   27    1    0     -2.05      0.00
   28    2    0     -0.46      0.00
   29    3    0     -0.01      0.00
   30    4    0      2.19      0.00
   31    5    0     -2.48      0.00
   10   38    0     -3.21      0.00
    8   36    0     -0.65      0.00
    7   35    0     -1.07      0.00
    6   34    0      1.34      0.00
    5   33    0      0.17      0.00
    4   32    0     -0.63      0.00
    3   31    0      0.64      0.00
    2   30    0     -0.38      0.00
    1   29    0     -1.59      0.00
    0   28    0      1.00      0.00
   28    0    0     -2.91      0.00
   29    1    0      0.75      0.00
   30    2    0      0.84      0.00
   31    3    0      0.46      0.00
   32    4    0     -1.92      0.00
    8   38    0      0.14      0.00
    7   37    0     -1.85      0.00
    6   36    0      1.03      0.00
    5   35    0      1.95      0.00
    4   34    0      0.44      0.00
    3   33    0     -0.27      0.00
    2   32    0     -2.14      0.00
    1   31    0      0.86      0.00
    0   30    0      3.75      0.00
   30    0    0      0.67      0.00
   31    1    0     -1.25      0.00
   32    2    0      2.64      0.00
    5   37    0      0.50      0.00
    4   36    0     -1.14      0.00
    3   35    0     -2.06      0.00
    2   34    0      1.27      0.00
    1   33    0      0.11      0.00
    0   32    0     -0.96      0.00
   32    0    0      0.41      0.00
   33    1    0     -1.44      0.00
    3   37    0     -2.80      0.00
    2   36    0      0.64      0.00
    1   35    0      0.47      0.00
    0   34    0      0.46      0.00
    0   36    0     -1.54      0.00
    1   37    0      1.55      0.00
   31    7    0     -2.32      0.00
   32    6    0     -0.69      0.00
  -29   13    1      1.58      0.00
  -28   14    1     -1.89      0.00
  -30   10    1     -0.86      0.00
  -29   11    1     -0.63      0.00
  -28   12    1      1.22      0.00
  -27   13    1     -0.63      0.00
  -26   14    1      1.51      0.00
  -25   15    1      0.49      0.00
  -32    6    1     -1.74      0.00
  -31    7    1      0.92      0.00
  -30    8    1      1.12      0.00
  -29    9    1      0.51      0.00
  -28   10    1     -1.44      0.00
  -27   11    1     -0.80      0.00
  -26   12    1     -0.49      0.00
  -25   13    1      2.20      0.00
  -24   14    1     -1.39      0.00
   -4   34    1     -0.75      0.00
   -3   35    1      0.54      0.00
   -2   36    1      0.95      0.00
   -1   37    1     -0.18      0.00
  -32    4    1     -1.98      0.00
  -31    5    1      0.80      0.00
  -30    6    1     -1.16      0.00
  -29    7    1     -0.78      0.00
  -28    8    1      1.49      0.00
  -27    9    1     -0.29      0.00
  -26   10    1      1.42      0.00
  -25   11    1      0.42      0.00
  -24   12    1      1.04      0.00
  -23   13    1     -0.51      0.00
  -22   14    1      1.13      0.00
   -4   32    1      0.84      0.00
   -3   33    1      0.28      0.00
   -2   34    1      0.90      0.00
   -1   35    1      0.48      0.00
    0   36    1     -3.58      0.00
    1   37    1      1.72      0.00
  -31    3    1      0.06      0.00
  -30    4    1     -0.37      0.00
  -29    5    1      2.10      0.00
  -28    6    1      0.71      0.00
  -27    7    1     -1.48      0.00
  -26    8    1      1.75      0.00
  -25    9    1     -0.49      0.00
  -24   10    1      0.03      0.00
  -23   11    1     -2.72      0.00
  -22   12    1     -2.70      0.00
  -21   13    1     -1.13      0.00
  -20   14    1      1.44      0.00
   -5   29    1      0.39      0.00
   -4   30    1     -1.40      0.00
   -3   31    1     -0.82      0.00
   -2   32    1     -0.31      0.00
   -1   33    1     -2.21      0.00
    0   34    1      0.40      0.00
    1   35    1      1.72      0.00
    2   36    1      0.16      0.00
    3   37    1     -0.96      0.00
  -31    1    1     -1.95      0.00
  -30    2    1     -0.64      0.00
  -29    3    1      2.18      0.00
  -28    4    1     -1.87      0.00
  -27    5    1     -0.36      0.00
  -26    6    1      1.42      0.00
  -25    7    1     -2.02      0.00
  -24    8    1      0.97      0.00
  -23    9    1     -1.55      0.00
  -22   10    1      0.05      0.00
  -21   11    1      0.83      0.00
  -20   12    1      1.19      0.00
  -19   13    1      5.29      0.00
   -5   27    1      1.14      0.00
   -4   28    1      0.56      0.00
   -3   29    1     -0.01      0.00
   -2   30    1      0.29      0.00
   -1   31    1     -0.61      0.00
    0   32    1      2.02      0.00
    1   33    1     -0.53      0.00
    2   34    1     -1.04      0.00
    3   35    1     -0.05      0.00
    4   36    1      0.91      0.00
    5   37    1     -3.06      0.00
  -32    2    1      1.55      0.00
  -29    1    1      0.79      0.00
  -28    2    1     -0.46      0.00
  -27    3    1      3.88      0.00
  -26    4    1     -1.11      0.00
  -25    5    1     -4.16      0.00
  -24    6    1     -0.49      0.00
  -23    7    1      1.25      0.00
  -22    8    1     -0.40      0.00
  -21    9    1      1.80      0.00
  -20   10    1      3.77      0.00
  -19   11    1      0.47      0.00
  -18   12    1     -3.03      0.00
  -17   13    1     -9.98      0.00
   -5   25    1      0.29      0.00
   -4   26    1      0.23      0.00
   -3   27    1     -1.88      0.00
   -2   28    1      0.92      0.00
   -1   29    1     -0.62      0.00
    0   30    1      0.33      0.00
    1   31    1      2.21      0.00
    2   32    1     -0.91      0.00
    3   33    1     -0.28      0.00
    4   34    1     -0.02      0.00
    5   35    1      0.46      0.00
    6   36    1      1.06      0.00
    7   37    1      1.21      0.00
    8   38    1     -0.74      0.00
  -27    1    1     -2.02      0.00
  -26    2    1     -0.75      0.00
  -25    3    1     -1.78      0.00
  -24    4    1      3.24      0.00
  -23    5    1     -0.18      0.00
  -22    6    1      1.05      0.00
  -21    7    1      2.00      0.00
  -20    8    1      0.43      0.00
  -19    9    1     -2.31      0.00
  -18   10    1     -2.65      0.00
  -17   11    1     -2.09      0.00
  -16   12    1      2.10      0.00
   -5   23    1     -1.72      0.00
   -4   24    1     -2.76      0.00
   -3   25    1     -0.01      0.00
   -2   26    1     -0.46      0.00
   -1   27    1     -0.83      0.00
    0   28    1      1.93      0.00
    1   29    1     -1.00      0.00
    2   30    1     -0.73      0.00
    3   31    1     -0.46      0.00
    4   32    1      0.78      0.00
    5   33    1      0.45      0.00
    6   34    1     -2.54      0.00
    7   35    1      2.96      0.00
    8   36    1     -2.24      0.00
    9   37    1      0.24      0.00
   10   38    1     -1.66      0.00
  -25    1    1     -0.28      0.00
  -24    2    1     -2.36      0.00
  -23    3    1      2.49      0.00
  -22    4    1      3.01      0.00
  -21    5    1      0.84      0.00
  -20    6    1     -4.01      0.00
  -19    7    1     -2.13      0.00
  -18    8    1     -0.99      0.00
  -17    9    1     -3.37      0.00
  -16   10    1     -0.33      0.00
  -15   11    1     11.17      0.00
  -14   12    1      3.56      0.00
   -5   21    1     -2.08      0.00
   -4   22    1      0.15      0.00
   -3   23    1      2.96      0.00
   -2   24    1     -0.44      0.00
   -1   25    1     -0.36      0.00
    0   26    1      1.65      0.00
    1   27    1     -0.48      0.00
    2   28    1     -0.04      0.00
    3   29    1     -1.85      0.00
    4   30    1      0.53      0.00
    5   31    1      1.09      0.00
    6   32    1     -1.49      0.00
    7   33    1      1.82      0.00
    8   34    1      0.10      0.00
    9   35    1     -2.92      0.00
   10   36    1     -0.46      0.00
   11   37    1      3.24      0.00
  -23    1    1      1.29      0.00
  -22    2    1      0.82      0.00
  -21    3    1     -0.18      0.00
  -20    4    1     -5.06      0.00
  -19    5    1     -3.41      0.00
  -18    6    1      3.02      0.00
  -17    7    1      5.47      0.00
  -16    8    1      2.60      0.00
  -15    9    1      6.92      0.00
  -14   10    1     -1.97      0.00
  -13   11    1    -11.53      0.00
   -5   19    1     -7.39      0.00
   -4   20    1      0.81      0.00
   -3   21    1     -1.94      0.00
   -2   22    1      3.87      0.00
   -1   23    1      0.49      0.00
    0   24    1     -1.60      0.00
    1   25    1      1.74      0.00
    2   26    1     -0.10      0.00
    3   27    1     -0.89      0.00
    4   28    1      0.96      0.00
    5   29    1      0.69      0.00
    6   30    1     -0.10      0.00
    7   31    1      0.61      0.00
    8   32    1     -1.27      0.00
    9   33    1      0.55      0.00
   10   34    1      2.22      0.00
   11   35    1     -1.00      0.00
   12   36    1     -0.14      0.00
  -31    9    1     -1.57      0.00
  -21    1    1     -0.34      0.00
  -20    2    1     -3.23      0.00
  -19    3    1      1.24      0.00
  -18    4    1      4.70      0.00
  -17    5    1      3.63      0.00
  -16    6    1     -1.14      0.00
  -15    7    1     -4.37      0.00
  -14    8    1     -1.87      0.00
  -13    9    1    -10.78      0.00
  -12   10    1     -1.91      0.00
   -5   17    1     -3.30      0.00
   -4   18    1      3.20      0.00
   -3   19    1      3.93      0.00
   -2   20    1      4.78      0.00
   -1   21    1     -3.22      0.00
    0   22    1     -1.27      0.00
    1   23    1      0.21      0.00
    2   24    1     -1.77      0.00
    3   25    1     -0.15      0.00
    4   26    1     -0.22      0.00
    5   27    1      0.37      0.00
    6   28    1      1.21      0.00
    7   29    1     -1.62      0.00
    8   30    1     -1.00      0.00
    9   31    1     -0.18      0.00
   10   32    1     -0.96      0.00
   11   33    1      2.75      0.00
   12   34    1      1.03      0.00
   13   35    1     -0.80      0.00
  -19    1    1     -1.38      0.00
  -18    2    1      1.62      0.00
  -17    3    1      3.64      0.00
  -16    4    1     -2.27      0.00
  -15    5    1     -6.54      0.00
  -14    6    1     -3.65      0.00
  -13    7    1      0.73      0.00
  -12    8    1      8.71      0.00
  -11    9    1     13.57      0.00
  -10   10    1      6.39      0.00
   -5   15    1     -1.33      0.00
   -4   16    1     13.38      0.00
   -3   17    1     -3.12      0.00
   -2   18    1     -2.93      0.00
   -1   19    1      4.65      0.00
    0   20    1     -2.98      0.00
    1   21    1     -3.27      0.00
    2   22    1      0.87      0.00
    3   23    1      4.06      0.00
    4   24    1     -0.95      0.00
    5   25    1     -1.39      0.00
    6   26    1     -0.09      0.00
    7   27    1      0.75      0.00
    8   28    1     -0.95      0.00
    9   29    1      2.30      0.00
   10   30    1     -0.15      0.00
   11   31    1      0.14      0.00
   12   32    1     -2.22      0.00
   13   33    1     -1.74      0.00
   14   34    1     -0.34      0.00
  -17    1    1      2.29      0.00
  -16    2    1     -1.88      0.00
  -15    3    1     -7.87      0.00
  -14    4    1      1.32      0.00
  -13    5    1      6.52      0.00
  -12    6    1      4.90      0.00
  -11    7    1     -1.90      0.00
  -10    8    1     -2.81      0.00
   -9    9    1    -30.31      0.00
   -4   14    1     16.83      0.00
   -3   15    1    -18.42      0.00
   -2   16    1     -3.82      0.00
   -1   17    1      5.62      0.00
    0   18    1     -7.56      0.00
    1   19    1     -4.78      0.00
    2   20    1      2.49      0.00
    3   21    1      3.24      0.00
    4   22    1     -0.17      0.00
    5   23    1     -0.63      0.00
    6   24    1      1.14      0.00
    7   25    1      1.43      0.00
    8   26    1     -2.12      0.00
    9   27    1      1.64      0.00
   10   28    1     -0.78      0.00
   11   29    1      0.93      0.00
   12   30    1     -2.00      0.00
   13   31    1      1.57      0.00
   14   32    1     -0.74      0.00
   15   33    1      2.21      0.00
  -15    1    1     -4.18      0.00
  -14    2    1      1.18      0.00
  -13    3    1      2.59      0.00
  -12    4    1     16.00      0.00
  -11    5    1      3.71      0.00
  -10    6    1    -12.24      0.00
   -9    7    1    -22.31      0.00
   -8    8    1     35.58      0.00
   -4   12    1     -3.16      0.00
   -3   13    1     -4.42      0.00
   -2   14    1    -18.31      0.00
   -1   15    1      2.87      0.00
    0   16    1      5.54      0.00
    1   17    1      3.21      0.00
    2   18    1     -0.07      0.00
    3   19    1      7.07      0.00
    4   20    1      0.80      0.00
    5   21    1     -6.05      0.00
    6   22    1     -0.56      0.00
    7   23    1     -1.23      0.00
    8   24    1      1.81      0.00
    9   25    1     -1.29      0.00
   10   26    1     -2.60      0.00
   11   27    1      2.20      0.00
   12   28    1     -1.06      0.00
   13   29    1     -0.32      0.00
   14   30    1      3.70      0.00
   15   31    1     -1.10      0.00
   16   32    1     -0.74      0.00
  -13    1    1      5.87      0.00
  -12    2    1      9.01      0.00
  -11    3    1    -23.09      0.00
  -10    4    1    -10.33      0.00
   -9    5    1    -14.61      0.00
   -8    6    1     17.22      0.00
   -7    7    1     21.31      0.00
   -4   10    1     38.46      0.00
   -3   11    1     -6.72      0.00
   -2   12    1    -50.34      0.00
   -1   13    1     26.95      0.00
    0   14    1     17.47      0.00
    1   15    1    -11.75      0.00
    2   16    1      1.75      0.00
    3   17    1      3.84      0.00
    4   18    1     -5.88      0.00
    5   19    1     -0.22      0.00
    6   20    1     -4.37      0.00
    7   21    1      5.69      0.00
    8   22    1      1.63      0.00
    9   23    1     -1.83      0.00
   10   24    1      2.55      0.00
   11   25    1     -0.08      0.00
   12   26    1      2.73      0.00
   13   27    1     -3.17      0.00
   14   28    1      1.66      0.00
   15   29    1     -1.60      0.00
   16   30    1      0.65      0.00
   17   31    1     -0.22      0.00
  -28   16    1      3.43      0.00
  -27   15    1      0.33      0.00
  -11    1    1      0.25      0.00
  -10    2    1      3.47      0.00
   -9    3    1     -1.68      0.00
   -8    4    1     -0.05      0.00
   -7    5    1     39.62      0.00
   -6    6    1    -13.92      0.00
   -3    9    1    -38.13      0.00
   -2   10    1    -55.89      0.00
   -1   11    1     35.54      0.00
    0   12    1     -5.85      0.00
    1   13    1     11.92      0.00
    2   14    1     -0.37      0.00
    3   15    1     -3.66      0.00
    4   16    1     -9.77      0.00
    5   17    1      3.89      0.00
    6   18    1      3.27      0.00
    7   19    1     -3.51      0.00
    8   20    1      1.33      0.00
    9   21    1      1.74      0.00
   10   22    1     -4.60      0.00
   11   23    1      0.03      0.00
   12   24    1     -0.18      0.00
   13   25    1     -1.47      0.00
   14   26    1     -0.13      0.00
   15   27    1      0.92      0.00
   16   28    1     -0.80      0.00
   17   29    1     -0.60      0.00
   18   30    1     -1.26      0.00
  -27   17    1     -1.29      0.00
  -26   16    1     -2.78      0.00
   -9    1    1     -6.30      0.00
   -8    2    1    -19.70      0.00
   -7    3    1     30.92      0.00
   -6    4    1     44.61      0.00
   -5    5    1    -79.30      0.00
   -3    7    1     35.03      0.00
   -2    8    1    -47.06      0.00
   -1    9    1     52.84      0.00
    0   10    1     47.04      0.00
    1   11    1      0.08      0.00
    2   12    1    -15.31      0.00
    3   13    1    -12.24      0.00
    4   14    1     -9.41      0.00
    5   15    1     15.03      0.00
    6   16    1      0.52      0.00
    7   17    1     -4.38      0.00
    8   18    1      7.14      0.00
    9   19    1     -1.48      0.00
   10   20    1      1.16      0.00
   11   21    1     -3.17      0.00
   12   22    1      2.92      0.00
   13   23    1      0.41      0.00
   14   24    1      0.25      0.00
   15   25    1      1.32      0.00
   16   26    1     -0.46      0.00
   17   27    1     -2.24      0.00
   18   28    1      1.77      0.00
   19   29    1      3.86      0.00
  -26   18    1      1.45      0.00
  -25   17    1      1.40      0.00
  -24   16    1      0.10      0.00
  -23   15    1      0.59      0.00
   -7    1    1     14.04      0.00
   -6    2    1     60.65      0.00
   -5    3    1   -115.80      0.00
   -4    4    1     -5.79      0.00
   -3    5    1     23.64      0.00
   -2    6    1    -52.25      0.00
   -1    7    1    103.67      0.00
    0    8    1     -9.19      0.00
    1    9    1    -85.94      0.00
    2   10    1     21.85      0.00
    3   11    1     -7.29      0.00
    4   12    1    -19.46      0.00
    5   13    1     18.50      0.00
    6   14    1     19.25      0.00
    7   15    1     -9.01      0.00
    8   16    1    -13.38      0.00
    9   17    1     11.02      0.00
   10   18    1     -4.15      0.00
   11   19    1     -2.26      0.00
   12   20    1     -0.40      0.00
   13   21    1      4.10      0.00
   14   22    1     -2.45      0.00
   15   23    1      0.88      0.00
   16   24    1     -1.76      0.00
   17   25    1      0.30      0.00
   18   26    1      2.90      0.00
   19   27    1     -0.16      0.00
   20   28    1     -1.24      0.00
  -25   19    1      2.53      0.00
  -24   18    1     -6.06      0.00
  -23   17    1      4.88      0.00
  -22   16    1     -2.86      0.00
  -21   15    1     -1.29      0.00
   -5    1    1     -4.71      0.00
   -4    2    1   -115.34      0.00
   -3    3    1    143.58      0.00
   -2    4    1     95.68      0.00
   -1    5    1    -17.92      0.00
    0    6    1    -70.19      0.00
    1    7    1    -67.70      0.00
    2    8    1     46.85      0.00
    3    9    1     13.34      0.00
    4   10    1    -20.94      0.00
    5   11    1     23.68      0.00
    6   12    1     22.78      0.00
    7   13    1    -20.10      0.00
    8   14    1    -15.81      0.00
    9   15    1     11.19      0.00
   10   16    1      5.87      0.00
   11   17    1    -11.30      0.00
   12   18    1      5.17      0.00
   13   19    1      2.52      0.00
   14   20    1     -0.38      0.00
   15   21    1     -3.77      0.00
   16   22    1      1.13      0.00
   17   23    1      0.36      0.00
   18   24    1      2.30      0.00
   19   25    1     -7.17      0.00
   20   26    1      2.46      0.00
   21   27    1     -2.44      0.00
  -25   21    1     -0.08      0.00
  -24   20    1     -1.03      0.00
  -23   19    1      2.72      0.00
  -22   18    1     -0.09      0.00
  -21   17    1     -3.12      0.00
  -20   16    1     -0.80      0.00
  -19   15    1      3.91      0.00
  -18   14    1      1.87      0.00
   -3    1    1     60.63      0.00
   -2    2    1     41.58      0.00
   -1    3    1    -70.43      0.00
    0    4    1     20.51      0.00
    1    5    1    -14.36      0.00
    2    6    1     89.24      0.00
    3    7    1     -7.73      0.00
    4    8    1      8.99      0.00
    5    9    1     -3.99      0.00
    6   10    1     -2.25      0.00
    7   11    1     -6.59      0.00
    8   12    1     -7.62      0.00
    9   13    1     -2.29      0.00
   10   14    1     10.82      0.00
   11   15    1      0.25      0.00
   12   16    1     -5.30      0.00
   13   17    1      3.05      0.00
   14   18    1     -0.11      0.00
   15   19    1     -0.57      0.00
   16   20    1      0.51      0.00
   17   21    1     -0.64      0.00
   18   22    1      1.17      0.00
   19   23    1      0.54      0.00
   20   24    1      1.73      0.00
   21   25    1      0.49      0.00
  -24   22    1     -0.27      0.00
  -23   21    1     -0.69      0.00
  -22   20    1      1.02      0.00
  -21   19    1     -1.95      0.00
  -20   18    1      2.67      0.00
  -19   17    1      0.71      0.00
  -18   16    1      0.94      0.00
  -17   15    1     -7.46      0.00
  -16   14    1      2.40      0.00
  -15   13    1      3.93      0.00
   -1    1    1   -110.67      0.00
    0    2    1    -88.23      0.00
    1    3    1   -145.02      0.00
    2    4    1     59.45      0.00
    3    5    1     16.94      0.00
    4    6    1      3.12      0.00
    5    7    1    -35.22      0.00
    6    8    1     -8.79      0.00
    7    9    1     42.27      0.00
    8   10    1    -41.41      0.00
    9   11    1      7.36      0.00
   10   12    1     19.13      0.00
   11   13    1     -8.10      0.00
   12   14    1     -2.88      0.00
   13   15    1      2.78      0.00
   14   16    1     -0.36      0.00
   15   17    1     -0.77      0.00
   16   18    1      0.37      0.00
   17   19    1     -1.58      0.00
   18   20    1      1.14      0.00
   19   21    1     -1.59      0.00
   20   22    1      3.48      0.00
   21   23    1     -3.84      0.00
   22   24    1      2.29      0.00
  -23   23    1      0.38      0.00
  -22   22    1      1.62      0.00
  -21   21    1      2.22      0.00
  -20   20    1     -0.74      0.00
  -19   19    1     -3.93      0.00
  -18   18    1      5.00      0.00
  -17   17    1     -2.83      0.00
  -16   16    1     -2.44      0.00
  -15   15    1      5.91      0.00
  -14   14    1      1.62      0.00
  -13   13    1     -3.10      0.00
  -12   12    1    -13.00      0.00
  -11   11    1     12.60      0.00
    1    1    1    382.45      0.00
    2    2    1    -80.79      0.00
    3    3    1     90.59      0.00
    4    4    1     14.04      0.00
    5    5    1    -75.29      0.00
    6    6    1      2.88      0.00
    7    7    1      5.97      0.00
    8    8    1      8.00      0.00
    9    9    1    -11.33      0.00
   10   10    1      6.92      0.00
   11   11    1      8.40      0.00
   12   12    1     -3.24      0.00
   13   13    1     -5.48      0.00
   14   14    1      1.01      0.00
   15   15    1      1.17      0.00
   16   16    1      1.82      0.00
   17   17    1     -2.65      0.00
   18   18    1      0.48      0.00
   19   19    1      0.26      0.00
   20   20    1      1.37      0.00
   21   21    1     -5.91      0.00
   22   22    1      4.47      0.00
   23   23    1     -3.77      0.00
  -22   24    1      0.04      0.00
  -21   23    1     -1.73      0.00
  -20   22    1     -1.27      0.00
  -19   21    1     -2.72      0.00
  -18   20    1      5.02      0.00
  -17   19    1     -0.35      0.00
  -16   18    1     -1.14      0.00
  -15   17    1      0.96      0.00
  -14   16    1      2.87      0.00
  -13   15    1     -4.35      0.00
  -12   14    1     -3.60      0.00
  -11   13    1      4.36      0.00
  -10   12    1      6.13      0.00
   -9   11    1     -3.61      0.00
   -8   10    1     16.61      0.00
   -7    9    1      1.74      0.00
   -6    8    1    -42.91      0.00
   -5    7    1      1.32      0.00
   -4    6    1    -14.67      0.00
    3    1    1    -31.27      0.00
    4    2    1     -0.95      0.00
    5    3    1    -91.36      0.00
    6    4    1     38.02      0.00
    7    5    1     25.05      0.00
    8    6    1      9.84      0.00
    9    7    1     -4.72      0.00
   10    8    1      0.54      0.00
   11    9    1      5.40      0.00
   12   10    1     -4.68      0.00
   13   11    1     -5.99      0.00
   14   12    1     -0.89      0.00
   15   13    1      3.22      0.00
   16   14    1      3.00      0.00
   17   15    1      0.54      0.00
   18   16    1     -4.21      0.00
   19   17    1      2.32      0.00
   20   18    1      2.27      0.00
   21   19    1     -0.08      0.00
   22   20    1     -0.63      0.00
   23   21    1      0.19      0.00
   24   22    1      0.27      0.00
  -22   26    1      1.81      0.00
  -21   25    1      0.51      0.00
  -20   24    1     -0.48      0.00
  -19   23    1      0.28      0.00
  -18   22    1     -0.43      0.00
  -17   21    1      0.19      0.00
  -16   20    1     -2.93      0.00
  -15   19    1     -0.36      0.00
  -14   18    1     -0.53      0.00
  -13   17    1      4.76      0.00
  -12   16    1     -8.34      0.00
  -11   15    1      4.67      0.00
  -10   14    1      8.22      0.00
   -9   13    1     -4.48      0.00
   -8   12    1     -2.35      0.00
   -7   11    1     -1.85      0.00
   -6   10    1    -37.45      0.00
   -5    9    1     12.69      0.00
   -4    8    1     39.34      0.00
    5    1    1     -8.67      0.00
    6    2    1     45.22      0.00
    7    3    1    -18.03      0.00
    8    4    1    -12.48      0.00
    9    5    1     30.77      0.00
   10    6    1    -22.24      0.00
   11    7    1     -6.98      0.00
   12    8    1      7.38      0.00
   13    9    1     -5.37      0.00
   14   10    1      0.98      0.00
   15   11    1      0.28      0.00
   16   12    1      6.02      0.00
   17   13    1     -3.57      0.00
   18   14    1     -8.08      0.00
   19   15    1      4.16      0.00
   20   16    1      4.72      0.00
   21   17    1     -2.16      0.00
   22   18    1     -2.68      0.00
   23   19    1      1.00      0.00
   24   20    1      2.81      0.00
   25   21    1     -0.63      0.00
  -21   27    1     -0.73      0.00
  -20   26    1      0.25      0.00
  -19   25    1      2.04      0.00
  -18   24    1     -3.34      0.00
  -17   23    1      3.92      0.00
  -16   22    1      2.62      0.00
  -15   21    1      0.19      0.00
  -14   20    1     -2.02      0.00
  -13   19    1     -0.60      0.00
  -12   18    1      4.08      0.00
  -11   17    1     -0.25      0.00
  -10   16    1     -4.11      0.00
   -9   15    1      7.26      0.00
   -8   14    1     -0.59      0.00
   -7   13    1    -16.58      0.00
   -6   12    1     -9.02      0.00
   -5   11    1     32.53      0.00
    7    1    1    -26.41      0.00
    8    2    1      7.81      0.00
    9    3    1     54.60      0.00
   10    4    1    -41.14      0.00
   11    5    1     -9.41      0.00
   12    6    1      7.84      0.00
   13    7    1      5.41      0.00
   14    8    1     -2.42      0.00
   15    9    1      1.01      0.00
   16   10    1      2.36      0.00
   17   11    1      1.28      0.00
   18   12    1     -4.99      0.00
   19   13    1      2.11      0.00
   20   14    1      3.66      0.00
   21   15    1     -3.75      0.00
   22   16    1     -4.94      0.00
   23   17    1      5.20      0.00
   24   18    1     -2.49      0.00
   25   19    1      0.04      0.00
  -20   28    1     -0.64      0.00
  -19   27    1     -2.78      0.00
  -18   26    1      1.62      0.00
  -17   25    1     -0.76      0.00
  -16   24    1     -0.40      0.00
  -15   23    1     -1.14      0.00
  -14   22    1     -2.90      0.00
  -13   21    1      2.12      0.00
  -12   20    1      1.39      0.00
  -11   19    1     -2.32      0.00
  -10   18    1     -0.39      0.00
   -9   17    1     -2.87      0.00
   -8   16    1      3.89      0.00
   -7   15    1     -6.97      0.00
   -6   14    1     -5.82      0.00
   -5   13    1     30.42      0.00
    9    1    1     17.18      0.00
   10    2    1    -23.12      0.00
   11    3    1    -20.40      0.00
   12    4    1      6.47      0.00
   13    5    1     19.73      0.00
   14    6    1     -1.53      0.00
   15    7    1     -9.72      0.00
   16    8    1      3.69      0.00
   17    9    1      3.56      0.00
   18   10    1     -2.37      0.00
   19   11    1     -2.62      0.00
   20   12    1      3.04      0.00
   21   13    1      0.39      0.00
   22   14    1     -0.40      0.00
   23   15    1      2.32      0.00
   24   16    1     -1.18      0.00
   25   17    1      0.01      0.00
   26   18    1     -0.23      0.00
  -19   29    1      3.21      0.00
  -18   28    1      1.45      0.00
  -17   27    1     -1.42      0.00
  -16   26    1      0.04      0.00
  -15   25    1      0.18      0.00
  -14   24    1     -0.64      0.00
  -13   23    1     -0.14      0.00
  -12   22    1      1.84      0.00
  -11   21    1      2.44      0.00
  -10   20    1     -5.58      0.00
   -9   19    1      1.46      0.00
   -8   18    1      1.61      0.00
   -7   17    1     -0.79      0.00
   -6   16    1      0.51      0.00
   11    1    1    -19.86      0.00
   12    2    1      8.59      0.00
   13    3    1     20.22      0.00
   14    4    1      2.79      0.00
   15    5    1    -16.06      0.00
   16    6    1      0.03      0.00
   17    7    1      3.69      0.00
   18    8    1      2.00      0.00
   19    9    1     -9.94      0.00
   20   10    1      4.81      0.00
   21   11    1      2.77      0.00
   22   12    1     -0.86      0.00
   23   13    1     -0.93      0.00
   24   14    1     -1.05      0.00
   25   15    1      1.52      0.00
   26   16    1      0.02      0.00
   27   17    1      0.86      0.00
  -18   30    1     -1.93      0.00
  -17   29    1     -1.92      0.00
  -16   28    1      2.95      0.00
  -15   27    1      1.92      0.00
  -14   26    1      0.03      0.00
  -13   25    1     -3.59      0.00
  -12   24    1      5.23      0.00
  -11   23    1     -1.04      0.00
  -10   22    1     -1.31      0.00
   -9   21    1     -3.86      0.00
   -8   20    1      6.73      0.00
   -7   19    1     -0.23      0.00
   -6   18    1      1.42      0.00
   13    1    1     15.29      0.00
   14    2    1     -2.05      0.00
   15    3    1    -19.09      0.00
   16    4    1      0.64      0.00
   17    5    1      6.67      0.00
   18    6    1      2.56      0.00
   19    7    1     -1.87      0.00
   20    8    1     -1.91      0.00
   21    9    1      4.73      0.00
   22   10    1     -1.54      0.00
   23   11    1     -2.19      0.00
   24   12    1     -1.76      0.00
   25   13    1      2.10      0.00
   26   14    1     -1.34      0.00
   27   15    1      0.67      0.00
  -17   31    1     -0.44      0.00
  -16   30    1      0.67      0.00
  -15   29    1     -3.39      0.00
  -14   28    1     -1.15      0.00
  -13   27    1      0.55      0.00
  -12   26    1      0.17      0.00
  -11   25    1     -1.62      0.00
  -10   24    1     -0.58      0.00
   -9   23    1      0.97      0.00
   -8   22    1     -1.20      0.00
   -7   21    1      6.29      0.00
   -6   20    1     -2.53      0.00
   15    1    1     -7.28      0.00
   16    2    1      2.84      0.00
   17    3    1      4.01      0.00
   18    4    1      4.83      0.00
   19    5    1     -2.20      0.00
   20    6    1     -4.81      0.00
   21    7    1      2.54      0.00
   22    8    1      0.95      0.00
   23    9    1     -1.38      0.00
   24   10    1      0.66      0.00
   25   11    1     -0.30      0.00
   26   12    1      2.02      0.00
   27   13    1      1.24      0.00
   28   14    1      0.15      0.00
  -16   32    1      0.47      0.00
  -15   31    1     -2.43      0.00
  -14   30    1      4.18      0.00
  -13   29    1     -0.45      0.00
  -12   28    1     -0.45      0.00
  -11   27    1      0.42      0.00
  -10   26    1      2.21      0.00
   -9   25    1     -0.48      0.00
   -8   24    1     -1.33      0.00
   -7   23    1      1.22      0.00
   -6   22    1     -2.59      0.00
   17    1    1      2.28      0.00
   18    2    1      0.94      0.00
   19    3    1      0.88      0.00
   20    4    1     -5.45      0.00
   21    5    1      0.31      0.00
   22    6    1      2.58      0.00
   23    7    1     -0.78      0.00
   24    8    1     -0.72      0.00
   25    9    1      0.03      0.00
   26   10    1      0.90      0.00
   27   11    1     -1.17      0.00
   28   12    1     -4.01      0.00
   29   13    1      2.17      0.00
  -15   33    1     -1.49      0.00
  -14   32    1      3.33      0.00
  -13   31    1     -0.23      0.00
  -12   30    1     -1.69      0.00
  -11   29    1      2.39      0.00
  -10   28    1     -3.39      0.00
   -9   27    1      2.80      0.00
   -8   26    1     -2.76      0.00
   -7   25    1      0.88      0.00
   -6   24    1      2.27      0.00
   19    1    1      3.10      0.00
   20    2    1     -6.19      0.00
   21    3    1     -0.01      0.00
   22    4    1      2.50      0.00
   23    5    1      2.45      0.00
   24    6    1     -0.52      0.00
   25    7    1     -0.44      0.00
   26    8    1     -1.21      0.00
   27    9    1      1.43      0.00
   28   10    1      1.42      0.00
   29   11    1      0.26      0.00
  -14   34    1      0.87      0.00
  -13   33    1     -0.53      0.00
  -12   32    1     -0.71      0.00
  -11   31    1     -1.04      0.00
  -10   30    1      1.84      0.00
   -9   29    1     -0.49      0.00
   -8   28    1     -1.01      0.00
   -7   27    1     -0.04      0.00
   -6   26    1      0.69      0.00
   21    1    1     -0.07      0.00
   22    2    1      0.71      0.00
   23    3    1      2.03      0.00
   24    4    1     -2.12      0.00
   25    5    1      1.08      0.00
   26    6    1     -3.12      0.00
   27    7    1      0.82      0.00
   28    8    1      2.12      0.00
   29    9    1     -2.17      0.00
   30   10    1     -0.60      0.00
  -13   35    1     -1.98      0.00
  -12   34    1     -0.32      0.00
  -11   33    1      1.38      0.00
  -10   32    1     -1.75      0.00
   -9   31    1      0.90      0.00
   -8   30    1      0.62      0.00
   -7   29    1     -0.90      0.00
   -6   28    1      0.08      0.00
   23    1    1      2.19      0.00
   24    2    1     -0.38      0.00
   25    3    1     -1.57      0.00
   26    4    1     -1.31      0.00
   27    5    1      0.49      0.00
   28    6    1      3.91      0.00
   29    7    1     -4.64      0.00
   30    8    1      1.11      0.00
  -12   36    1      1.77      0.00
  -11   35    1     -1.78      0.00
  -10   34    1      0.12      0.00
   -9   33    1     -0.56      0.00
   -8   32    1      2.09      0.00
   -7   31    1     -3.87      0.00
   -6   30    1      2.42      0.00
   25    1    1      0.66      0.00
   26    2    1      0.25      0.00
   27    3    1     -0.51      0.00
   28    4    1      1.27      0.00
   29    5    1     -0.73      0.00
   30    6    1     -1.26      0.00
   31    7    1      4.27      0.00
  -10   36    1     -0.10      0.00
   -9   35    1      2.21      0.00
   -8   34    1     -0.32      0.00
   -7   33    1      2.06      0.00
   -6   32    1     -0.50      0.00
   -5   31    1      0.33      0.00
   27    1    1     -1.78      0.00
   28    2    1      0.09      0.00
   29    3    1      1.10      0.00
   30    4    1      0.69      0.00
   31    5    1     -1.39      0.00
   -8   36    1     -0.99      0.00
   -7   35    1     -3.12      0.00
   -6   34    1     -0.61      0.00
   -5   33    1      0.21      0.00
   29    1    1      0.79      0.00
   30    2    1      0.31      0.00
   31    3    1     -1.28      0.00
   32    4    1      2.34      0.00
   -7   37    1      1.43      0.00
   -6   36    1      1.22      0.00
   -5   35    1      0.68      0.00
   31    1    1     -0.06      0.00
   32    2    1     -0.61      0.00
   33    3    1      1.20      0.00
   -5   37    1     -0.94      0.00
   -4   36    1      0.05      0.00
   33    1    1     -1.35      0.00
   -4   38    1     -0.09      0.00
   -3   37    1     -0.33      0.00
   -2   38    1      0.74      0.00
  -29   13    2      0.90      0.00
  -28   14    2      1.21      0.00
  -29   11    2      0.15      0.00
  -28   12    2      0.01      0.00
  -27   13    2      0.85      0.00
  -26   14    2      0.19      0.00
  -31    7    2      1.13      0.00
  -30    8    2      1.77      0.00
  -29    9    2     -0.60      0.00
  -28   10    2     -0.58      0.00
  -27   11    2     -1.57      0.00
  -26   12    2      0.14      0.00
  -25   13    2     -2.52      0.00
  -24   14    2      1.90      0.00
   -4   34    2     -0.51      0.00
   -3   35    2      0.16      0.00
   -2   36    2      0.82      0.00
  -33    3    2     -2.46      0.00
  -32    4    2     -0.64      0.00
  -31    5    2      0.05      0.00
  -29    7    2     -2.54      0.00
  -28    8    2     -1.14      0.00
  -27    9    2      1.28      0.00
  -26   10    2     -0.13      0.00
  -25   11    2      0.43      0.00
  -24   12    2      1.03      0.00
  -23   13    2      1.32      0.00
  -22   14    2      1.07      0.00
   -4   32    2     -0.18      0.00
   -3   33    2     -0.68      0.00
   -2   34    2      1.17      0.00
   -1   35    2     -0.58      0.00
    0   36    2      0.94      0.00
    1   37    2     -1.52      0.00
  -33    1    2     -1.01      0.00
  -32    2    2     -2.13      0.00
  -31    3    2      4.46      0.00
  -30    4    2     -0.37      0.00
  -29    5    2     -1.92      0.00
  -28    6    2      2.57      0.00
  -27    7    2      0.96      0.00
  -26    8    2     -0.67      0.00
  -25    9    2      0.25      0.00
  -24   10    2      1.05      0.00
  -23   11    2      0.48      0.00
  -22   12    2     -1.00      0.00
  -21   13    2     -2.01      0.00
  -20   14    2     -4.00      0.00
   -5   29    2     -1.05      0.00
   -4   30    2      0.30      0.00
   -3   31    2     -1.37      0.00
   -2   32    2      1.67      0.00
   -1   33    2     -1.17      0.00
    0   34    2     -0.26      0.00
    1   35    2      0.72      0.00
    2   36    2     -0.22      0.00
    3   37    2     -0.85      0.00
    4   38    2      0.31      0.00
  -32    0    2     -1.77      0.00
  -30    2    2      0.46      0.00
  -29    3    2     -2.64      0.00
  -28    4    2      1.60      0.00
  -27    5    2     -3.05      0.00
  -26    6    2     -0.12      0.00
  -25    7    2      1.06      0.00
  -24    8    2      2.14      0.00
  -23    9    2      0.18      0.00
  -22   10    2     -3.26      0.00
  -21   11    2     -1.04      0.00
  -20   12    2      0.29      0.00
  -19   13    2      0.36      0.00
   -5   27    2     -0.15      0.00
   -4   28    2      0.47      0.00
   -3   29    2      0.39      0.00
   -2   30    2      1.45      0.00
   -1   31    2      0.75      0.00
    0   32    2     -1.49      0.00
    1   33    2     -1.16      0.00
    2   34    2      1.22      0.00
    3   35    2     -0.36      0.00
    4   36    2     -1.58      0.00
    5   37    2      3.01      0.00
  -31    1    2      1.55      0.00
  -30    0    2      2.94      0.00
  -29    1    2     -3.83      0.00
  -28    2    2      2.37      0.00
  -27    3    2     -0.44      0.00
  -26    4    2      2.76      0.00
  -25    5    2      0.42      0.00
  -24    6    2     -0.11      0.00
  -23    7    2     -2.45      0.00
  -22    8    2     -2.19      0.00
  -21    9    2     -1.18      0.00
  -20   10    2      3.12      0.00
  -19   11    2      3.62      0.00
  -18   12    2     -0.24      0.00
  -17   13    2      0.12      0.00
   -5   25    2      1.63      0.00
   -4   26    2      0.91      0.00
   -3   27    2      0.24      0.00
   -2   28    2     -0.65      0.00
   -1   29    2      0.32      0.00
    0   30    2     -0.31      0.00
    1   31    2     -1.22      0.00
    2   32    2      2.67      0.00
    3   33    2     -0.35      0.00
    4   34    2      0.00      0.00
    5   35    2      1.22      0.00
    6   36    2     -1.43      0.00
    7   37    2     -0.36      0.00
    8   38    2      0.47      0.00
  -28    0    2      3.24      0.00
  -27    1    2     -1.23      0.00
  -26    2    2     -1.09      0.00
  -25    3    2      1.58      0.00
  -24    4    2     -1.28      0.00
  -23    5    2     -0.70      0.00
  -22    6    2     -1.16      0.00
  -21    7    2     -0.49      0.00
  -20    8    2      4.58      0.00
  -19    9    2      0.85      0.00
  -18   10    2     -0.51      0.00
  -17   11    2     -0.39      0.00
  -16   12    2     -2.97      0.00
   -5   23    2      1.02      0.00
   -4   24    2      1.06      0.00
   -3   25    2     -3.43      0.00
   -2   26    2      0.12      0.00
   -1   27    2     -0.75      0.00
    0   28    2     -0.27      0.00
    1   29    2     -0.30      0.00
    2   30    2      0.07      0.00
    3   31    2      0.82      0.00
    4   32    2     -0.32      0.00
    5   33    2     -1.25      0.00
    6   34    2      1.67      0.00
    7   35    2     -1.94      0.00
    8   36    2      0.15      0.00
  -26    0    2      2.96      0.00
  -25    1    2     -1.18      0.00
  -24    2    2     -2.05      0.00
  -23    3    2     -2.32      0.00
  -22    4    2      2.55      0.00
  -21    5    2      1.19      0.00
  -20    6    2      3.16      0.00
  -19    7    2      0.46      0.00
  -18    8    2     -1.15      0.00
  -17    9    2     -5.07      0.00
  -16   10    2     -6.09      0.00
  -15   11    2      1.32      0.00
  -14   12    2      6.97      0.00
   -5   21    2      1.48      0.00
   -4   22    2      1.83      0.00
   -3   23    2      0.16      0.00
   -2   24    2     -0.31      0.00
   -1   25    2     -1.17      0.00
    0   26    2      0.67      0.00
    1   27    2      1.67      0.00
    2   28    2     -0.84      0.00
    3   29    2      0.15      0.00
    4   30    2     -0.49      0.00
    5   31    2     -2.55      0.00
    6   32    2      3.51      0.00
    7   33    2     -1.24      0.00
    8   34    2     -1.04      0.00
    9   35    2      2.07      0.00
   10   36    2      0.57      0.00
   11   37    2     -2.14      0.00
  -30    6    2      0.80      0.00
  -24    0    2     -2.87      0.00
  -23    1    2      2.54      0.00
  -22    2    2      2.52      0.00
  -21    3    2      0.40      0.00
  -20    4    2     -0.43      0.00
  -19    5    2     -1.03      0.00
  -18    6    2     -3.40      0.00
  -17    7    2     -4.61      0.00
  -16    8    2      4.35      0.00
  -15    9    2      7.58      0.00
  -14   10    2      5.42      0.00
  -13   11    2     -3.53      0.00
   -5   19    2     -2.03      0.00
   -4   20    2     -0.70      0.00
   -3   21    2     -2.52      0.00
   -2   22    2     -4.20      0.00
   -1   23    2      1.14      0.00
    0   24    2      2.33      0.00
    1   25    2      0.60      0.00
    2   26    2      0.07      0.00
    3   27    2     -0.16      0.00
    4   28    2      0.04      0.00
    5   29    2      0.54      0.00
    6   30    2      0.36      0.00
    7   31    2      0.86      0.00
    8   32    2     -1.36      0.00
    9   33    2      1.32      0.00
   10   34    2      0.59      0.00
   11   35    2      1.76      0.00
   12   36    2     -3.84      0.00
  -31    9    2     -1.42      0.00
  -22    0    2      1.94      0.00
  -21    1    2      0.79      0.00
  -20    2    2     -4.21      0.00
  -19    3    2      0.48      0.00
  -18    4    2      0.32      0.00
  -17    5    2     -1.31      0.00
  -16    6    2      0.72      0.00
  -15    7    2      3.71      0.00
  -14    8    2      2.14      0.00
  -13    9    2     -4.52      0.00
  -12   10    2     -6.28      0.00
  -11   11    2     -4.77      0.00
   -5   17    2     -5.36      0.00
   -4   18    2     -0.72      0.00
   -3   19    2     -5.54      0.00
   -2   20    2      6.44      0.00
   -1   21    2      1.97      0.00
    0   22    2     -0.50      0.00
    1   23    2      0.71      0.00
    2   24    2     -0.39      0.00
    3   25    2     -2.53      0.00
    4   26    2     -0.24      0.00
    5   27    2      0.44      0.00
    6   28    2      0.80      0.00
    7   29    2     -0.75      0.00
    8   30    2     -1.46      0.00
    9   31    2      0.60      0.00
   10   32    2     -2.21      0.00
   11   33    2      0.11      0.00
   12   34    2      0.81      0.00
   13   35    2      1.13      0.00
  -30   10    2      0.26      0.00
  -20    0    2     -2.32      0.00
  -19    1    2     -0.98      0.00
  -18    2    2     -2.21      0.00
  -17    3    2      1.80      0.00
  -16    4    2      3.25      0.00
  -15    5    2      2.58      0.00
  -14    6    2      1.49      0.00
  -13    7    2     -4.57      0.00
  -12    8    2     -4.15      0.00
  -11    9    2     -3.86      0.00
  -10   10    2     20.70      0.00
   -5   15    2    -12.27      0.00
   -4   16    2    -10.04      0.00
   -3   17    2      2.44      0.00
   -2   18    2      9.65      0.00
   -1   19    2      0.14      0.00
    0   20    2     -0.31      0.00
    1   21    2     -1.65      0.00
    2   22    2      1.38      0.00
    3   23    2     -1.86      0.00
    4   24    2      0.17      0.00
    5   25    2      2.59      0.00
    6   26    2     -0.69      0.00
    7   27    2     -1.17      0.00
    8   28    2      0.66      0.00
    9   29    2      1.09      0.00
   10   30    2     -0.12      0.00
   11   31    2      1.59      0.00
   12   32    2     -2.86      0.00
   13   33    2     -0.47      0.00
   14   34    2     -1.39      0.00
  -30   12    2      1.98      0.00
  -18    0    2     -0.35      0.00
  -17    1    2      7.38      0.00
  -16    2    2      1.97      0.00
  -15    3    2     -3.23      0.00
  -14    4    2     -1.99      0.00
  -13    5    2     -1.04      0.00
  -12    6    2     -4.63      0.00
  -11    7    2    -13.60      0.00
  -10    8    2     11.52      0.00
   -9    9    2      3.17      0.00
   -5   13    2     -3.15      0.00
   -4   14    2      5.60      0.00
   -3   15    2      1.67      0.00
   -2   16    2     12.93      0.00
   -1   17    2      2.72      0.00
    0   18    2     -9.03      0.00
    1   19    2     -5.70      0.00
    2   20    2      0.82      0.00
    3   21    2      1.21      0.00
    4   22    2     -1.65      0.00
    5   23    2      0.40      0.00
    6   24    2      2.15      0.00
    7   25    2     -0.90      0.00
    8   26    2     -0.20      0.00
    9   27    2     -0.68      0.00
   10   28    2      0.52      0.00
   11   29    2     -0.40      0.00
   12   30    2      3.35      0.00
   13   31    2     -1.04      0.00
   14   32    2      1.36      0.00
   15   33    2      1.42      0.00
  -16    0    2     -0.20      0.00
  -15    1    2     -8.54      0.00
  -14    2    2     -4.42      0.00
  -13    3    2     -1.57      0.00
  -12    4    2      3.50      0.00
  -11    5    2     -0.32      0.00
  -10    6    2     17.30      0.00
   -9    7    2     19.43      0.00
   -8    8    2      0.31      0.00
   -5   11    2     10.18      0.00
   -4   12    2    -11.86      0.00
   -3   13    2      2.52      0.00
   -2   14    2     14.46      0.00
   -1   15    2     -1.36      0.00
    0   16    2    -14.39      0.00
    1   17    2     -2.44      0.00
    2   18    2      5.55      0.00
    3   19    2      7.08      0.00
    4   20    2     -2.52      0.00
    5   21    2      0.71      0.00
    6   22    2     -0.27      0.00
    7   23    2     -0.80      0.00
    8   24    2     -2.23      0.00
    9   25    2      2.20      0.00
   10   26    2     -0.04      0.00
   11   27    2     -1.24      0.00
   12   28    2      0.52      0.00
   13   29    2     -1.20      0.00
   14   30    2     -2.73      0.00
   15   31    2      2.35      0.00
   16   32    2     -1.81      0.00
  -14    0    2      3.41      0.00
  -13    1    2     -3.10      0.00
  -12    2    2     16.74      0.00
  -11    3    2      4.05      0.00
  -10    4    2    -18.71      0.00
   -9    5    2     18.70      0.00
   -8    6    2    -16.16      0.00
   -7    7    2    -32.20      0.00
   -6    8    2     -8.35      0.00
   -5    9    2     14.14      0.00
   -4   10    2     -0.90      0.00
   -3   11    2     39.07      0.00
   -2   12    2    -27.99      0.00
   -1   13    2      4.76      0.00
    0   14    2     -9.79      0.00
    1   15    2      2.10      0.00
    2   16    2     -3.50      0.00
    3   17    2      8.71      0.00
    4   18    2      0.08      0.00
    5   19    2     -5.82      0.00
    6   20    2      1.76      0.00
    7   21    2     -0.55      0.00
    8   22    2      3.77      0.00
    9   23    2     -1.63      0.00
   10   24    2     -0.97      0.00
   11   25    2      2.82      0.00
   12   26    2     -0.84      0.00
   13   27    2     -0.44      0.00
   14   28    2      0.01      0.00
   15   29    2      0.61      0.00
   16   30    2      2.44      0.00
   17   31    2     -1.73      0.00
  -28   16    2     -0.87      0.00
  -27   15    2     -0.60      0.00
  -12    0    2     12.26      0.00
  -11    1    2      9.65      0.00
  -10    2    2    -15.28      0.00
   -9    3    2     -1.52      0.00
   -8    4    2      5.85      0.00
   -7    5    2    -15.93      0.00
   -6    6    2    -12.00      0.00
   -5    7    2     47.56      0.00
   -4    8    2     55.27      0.00
   -3    9    2    -14.47      0.00
   -2   10    2    -60.38      0.00
   -1   11    2     13.78      0.00
    0   12    2    -13.70      0.00
    1   13    2      5.11      0.00
    2   14    2      1.82      0.00
    3   15    2      7.91      0.00
    4   16    2      6.61      0.00
    5   17    2     -8.27      0.00
    6   18    2     -4.88      0.00
    7   19    2      6.62      0.00
    8   20    2     -2.87      0.00
    9   21    2     -2.27      0.00
   10   22    2     -0.87      0.00
   11   23    2      0.38      0.00
   12   24    2      0.15      0.00
   13   25    2     -2.18      0.00
   14   26    2      1.03      0.00
   15   27    2      1.17      0.00
   16   28    2     -0.67      0.00
   17   29    2     -3.32      0.00
   18   30    2      1.42      0.00
  -27   17    2      7.06      0.00
  -26   16    2     -1.42      0.00
  -25   15    2     -0.54      0.00
  -10    0    2    -19.28      0.00
   -9    1    2    -31.88      0.00
   -8    2    2      7.15      0.00
   -7    3    2     16.50      0.00
   -6    4    2    -16.52      0.00
   -5    5    2     53.90      0.00
   -4    6    2    -17.76      0.00
   -3    7    2    -29.90      0.00
   -2    8    2    -27.54      0.00
   -1    9    2      3.43      0.00
    0   10    2     22.30      0.00
    1   11    2     41.66      0.00
    2   12    2     -4.84      0.00
    3   13    2     -7.55      0.00
    4   14    2      1.06      0.00
    5   15    2     -4.44      0.00
    6   16    2     -2.57      0.00
    7   17    2     -4.10      0.00
    8   18    2      6.76      0.00
    9   19    2      1.57      0.00
   10   20    2     -1.81      0.00
   11   21    2      3.34      0.00
   12   22    2      1.85      0.00
   13   23    2     -0.30      0.00
   14   24    2     -1.61      0.00
   15   25    2      1.35      0.00
   16   26    2      0.06      0.00
   17   27    2      1.31      0.00
   18   28    2     -0.97      0.00
   19   29    2      1.69      0.00
  -26   18    2     -1.75      0.00
  -25   17    2      0.06      0.00
  -24   16    2     -4.76      0.00
  -23   15    2      0.40      0.00
   -8    0    2      1.58      0.00
   -7    1    2     80.13      0.00
   -6    2    2    -16.03      0.00
   -5    3    2    -15.11      0.00
   -4    4    2    -35.16      0.00
   -3    5    2     30.42      0.00
   -2    6    2    -78.51      0.00
   -1    7    2    -33.64      0.00
    0    8    2     99.51      0.00
    1    9    2    -15.97      0.00
    2   10    2    -17.35      0.00
    3   11    2    -41.04      0.00
    4   12    2     24.25      0.00
    5   13    2     -2.94      0.00
    6   14    2    -12.19      0.00
    7   15    2      5.61      0.00
    8   16    2     11.32      0.00
    9   17    2     -5.69      0.00
   10   18    2      0.25      0.00
   11   19    2     -3.39      0.00
   12   20    2      2.28      0.00
   13   21    2     -3.80      0.00
   14   22    2      0.07      0.00
   15   23    2      0.95      0.00
   16   24    2     -0.56      0.00
   17   25    2      0.94      0.00
   18   26    2     -1.44      0.00
   19   27    2      0.53      0.00
   20   28    2     -0.37      0.00
  -25   19    2     -0.22      0.00
  -24   18    2     -3.63      0.00
  -23   17    2      5.88      0.00
  -22   16    2      2.15      0.00
  -21   15    2      1.84      0.00
   -6    0    2     -3.17      0.00
   -5    1    2    -94.42      0.00
   -4    2    2     79.34      0.00
   -3    3    2    -32.61      0.00
   -2    4    2     70.31      0.00
   -1    5    2      7.85      0.00
    0    6    2     60.58      0.00
    1    7    2    -27.83      0.00
    2    8    2    -18.65      0.00
    3    9    2    -19.31      0.00
    4   10    2     17.83      0.00
    5   11    2     -0.39      0.00
    6   12    2     10.61      0.00
    7   13    2     -4.39      0.00
    8   14    2      2.28      0.00
    9   15    2      5.69      0.00
   10   16    2     -7.24      0.00
   11   17    2     -0.07      0.00
   12   18    2     -4.31      0.00
   13   19    2      6.61      0.00
   14   20    2     -0.79      0.00
   15   21    2     -0.15      0.00
   16   22    2     -0.43      0.00
   17   23    2      1.41      0.00
   18   24    2     -2.97      0.00
   19   25    2      1.51      0.00
   20   26    2     -1.03      0.00
  -25   21    2      0.09      0.00
  -24   20    2      0.71      0.00
  -23   19    2     -1.88      0.00
  -22   18    2      2.75      0.00
  -21   17    2     -1.84      0.00
  -20   16    2     -2.56      0.00
  -19   15    2     -0.88      0.00
  -18   14    2      3.37      0.00
   -4    0    2    -32.59      0.00
   -3    1    2     28.36      0.00
   -2    2    2    -53.27      0.00
   -1    3    2    -54.58      0.00
    0    4    2     71.83      0.00
    1    5    2     31.62      0.00
    2    6    2    -78.60      0.00
    3    7    2     69.87      0.00
    4    8    2    -53.04      0.00
    5    9    2     22.18      0.00
    6   10    2     24.59      0.00
    7   11    2    -24.84      0.00
    8   12    2     -0.61      0.00
    9   13    2     12.49      0.00
   10   14    2     -9.74      0.00
   11   15    2     -5.20      0.00
   12   16    2      6.22      0.00
   13   17    2      2.49      0.00
   14   18    2     -0.19      0.00
   15   19    2     -3.82      0.00
   16   20    2      1.59      0.00
   17   21    2      0.40      0.00
   18   22    2     -0.59      0.00
   19   23    2      1.23      0.00
   20   24    2      1.48      0.00
   21   25    2      0.23      0.00
  -24   22    2      0.10      0.00
  -23   21    2      0.74      0.00
  -22   20    2      1.78      0.00
  -21   19    2     -0.07      0.00
  -20   18    2     -1.47      0.00
  -19   17    2     -2.81      0.00
  -18   16    2      3.15      0.00
  -17   15    2      5.04      0.00
  -16   14    2     -4.18      0.00
  -15   13    2     -0.93      0.00
   -2    0    2     94.99      0.00
   -1    1    2     42.66      0.00
    0    2    2    -15.84      0.00
    1    3    2    -80.93      0.00
    2    4    2   -155.93      0.00
    3    5    2    101.82      0.00
    4    6    2    -25.52      0.00
    5    7    2      0.36      0.00
    6    8    2     21.33      0.00
    7    9    2      3.11      0.00
    8   10    2     -6.40      0.00
    9   11    2    -10.08      0.00
   10   12    2      4.05      0.00
   11   13    2      3.93      0.00
   12   14    2     -6.39      0.00
   13   15    2      4.77      0.00
   14   16    2      2.88      0.00
   15   17    2     -2.14      0.00
   16   18    2     -3.17      0.00
   17   19    2      0.67      0.00
   18   20    2      3.72      0.00
   19   21    2     -1.59      0.00
   20   22    2     -1.71      0.00
   21   23    2      1.29      0.00
   22   24    2     -2.87      0.00
  -23   23    2     -2.71      0.00
  -22   22    2      0.98      0.00
  -21   21    2     -1.32      0.00
  -20   20    2      0.79      0.00
  -19   19    2     -3.45      0.00
  -18   18    2      2.59      0.00
  -17   17    2      1.09      0.00
  -16   16    2     -1.32      0.00
  -15   15    2     -0.49      0.00
  -14   14    2     -4.08      0.00
  -13   13    2      4.22      0.00
  -12   12    2     -4.70      0.00
    0    0    2    -30.03      0.00
    1    1    2    -60.58      0.00
    2    2    2    170.54      0.00
    3    3    2    110.87      0.00
    4    4    2    -31.55      0.00
    5    5    2    -37.46      0.00
    6    6    2     22.70      0.00
    7    7    2     35.28      0.00
    8    8    2    -65.49      0.00
    9    9    2      7.23      0.00
   10   10    2     11.91      0.00
   11   11    2      1.16      0.00
   12   12    2     -1.26      0.00
   13   13    2      1.01      0.00
   14   14    2      4.04      0.00
   15   15    2     -4.76      0.00
   16   16    2     -2.89      0.00
   17   17    2      2.42      0.00
   18   18    2      1.99      0.00
   19   19    2     -0.75      0.00
   20   20    2     -3.58      0.00
   21   21    2     -0.25      0.00
   22   22    2      0.64      0.00
   23   23    2      1.15      0.00
  -22   24    2      3.58      0.00
  -21   23    2     -0.63      0.00
  -20   22    2      2.54      0.00
  -19   21    2     -1.15      0.00
  -18   20    2      0.45      0.00
  -17   19    2      0.87      0.00
  -16   18    2      1.26      0.00
  -15   17    2     -3.14      0.00
  -14   16    2     -4.14      0.00
  -13   15    2      4.11      0.00
  -12   14    2      4.91      0.00
  -11   13    2     -4.03      0.00
  -10   12    2      3.71      0.00
   -9   11    2      6.99      0.00
   -8   10    2    -15.92      0.00
   -7    9    2    -22.44      0.00
    2    0    2    -92.39      0.00
    3    1    2     -7.06      0.00
    4    2    2    -29.18      0.00
    5    3    2    -22.18      0.00
    6    4    2    -10.25      0.00
    7    5    2     38.25      0.00
    8    6    2    -16.71      0.00
    9    7    2    -29.77      0.00
   10    8    2     31.84      0.00
   11    9    2     12.58      0.00
   12   10    2    -11.14      0.00
   13   11    2     -5.31      0.00
   14   12    2      3.67      0.00
   15   13    2      1.60      0.00
   16   14    2     -2.28      0.00
   17   15    2     -1.62      0.00
   18   16    2      4.16      0.00
   19   17    2      3.05      0.00
   20   18    2     -4.25      0.00
   21   19    2      1.18      0.00
   22   20    2      5.34      0.00
   23   21    2     -5.03      0.00
   24   22    2      2.63      0.00
  -21   25    2     -2.25      0.00
  -20   24    2     -0.19      0.00
  -19   23    2     -0.18      0.00
  -18   22    2     -1.97      0.00
  -17   21    2      1.86      0.00
  -16   20    2      1.51      0.00
  -15   19    2      0.16      0.00
  -14   18    2     -4.00      0.00
  -13   17    2      4.86      0.00
  -12   16    2      0.24      0.00
  -11   15    2      6.01      0.00
  -10   14    2     -8.34      0.00
   -9   13    2     -5.00      0.00
   -8   12    2      2.73      0.00
   -7   11    2     -0.64      0.00
   -6   10    2     -0.94      0.00
    4    0    2    123.93      0.00
    5    1    2    -60.55      0.00
    6    2    2    -28.49      0.00
    7    3    2     62.66      0.00
    8    4    2    -27.59      0.00
    9    5    2    -43.21      0.00
   10    6    2     39.81      0.00
   11    7    2     13.40      0.00
   12    8    2    -16.17      0.00
   13    9    2     -6.28      0.00
   14   10    2      0.56      0.00
   15   11    2      5.17      0.00
   16   12    2     -3.73      0.00
   17   13    2     -3.25      0.00
   18   14    2      1.73      0.00
   19   15    2      2.49      0.00
   20   16    2     -6.64      0.00
   21   17    2      2.17      0.00
   22   18    2      1.17      0.00
   23   19    2     -1.87      0.00
   24   20    2      3.27      0.00
  -21   27    2      0.70      0.00
  -20   26    2     -0.31      0.00
  -19   25    2      1.57      0.00
  -18   24    2     -0.94      0.00
  -17   23    2     -1.53      0.00
  -16   22    2      1.23      0.00
  -15   21    2     -1.27      0.00
  -14   20    2     -1.83      0.00
  -13   19    2     -2.29      0.00
  -12   18    2     10.19      0.00
  -11   17    2     -4.73      0.00
  -10   16    2     -9.19      0.00
   -9   15    2      0.10      0.00
   -8   14    2      7.25      0.00
   -7   13    2     -4.51      0.00
   -6   12    2      2.51      0.00
    6    0    2    -22.43      0.00
    7    1    2      3.74      0.00
    8    2    2      5.84      0.00
    9    3    2      1.13      0.00
   10    4    2     23.95      0.00
   11    5    2     -0.78      0.00
   12    6    2     -6.18      0.00
   13    7    2     -8.67      0.00
   14    8    2      0.39      0.00
   15    9    2      4.77      0.00
   16   10    2      4.73      0.00
   17   11    2     -3.50      0.00
   18   12    2      2.30      0.00
   19   13    2      1.92      0.00
   20   14    2     -1.03      0.00
   21   15    2      0.60      0.00
   22   16    2     -0.80      0.00
   23   17    2      0.39      0.00
   24   18    2     -0.71      0.00
   25   19    2     -3.05      0.00
  -20   28    2      0.61      0.00
  -19   27    2      2.09      0.00
  -18   26    2      1.96      0.00
  -17   25    2     -3.37      0.00
  -16   24    2      1.44      0.00
  -15   23    2      4.32      0.00
  -14   22    2     -1.77      0.00
  -13   21    2      0.18      0.00
  -12   20    2      0.07      0.00
  -11   19    2      1.92      0.00
  -10   18    2     -2.64      0.00
   -9   17    2     -4.70      0.00
   -8   16    2      9.01      0.00
   -7   15    2      2.85      0.00
   -6   14    2      1.38      0.00
    8    0    2     47.71      0.00
    9    1    2     14.31      0.00
   10    2    2    -27.22      0.00
   11    3    2      3.66      0.00
   12    4    2     -5.41      0.00
   13    5    2     -7.13      0.00
   14    6    2     -2.42      0.00
   15    7    2      9.99      0.00
   16    8    2      2.31      0.00
   17    9    2     -3.46      0.00
   18   10    2     -3.52      0.00
   19   11    2      0.24      0.00
   20   12    2      2.44      0.00
   21   13    2     -0.27      0.00
   22   14    2     -2.39      0.00
   23   15    2      1.52      0.00
   24   16    2     -3.21      0.00
   25   17    2      5.77      0.00
   26   18    2     -1.42      0.00
  -19   29    2     -0.52      0.00
  -18   28    2     -2.22      0.00
  -17   27    2     -0.40      0.00
  -16   26    2     -0.53      0.00
  -15   25    2      1.55      0.00
  -14   24    2     -0.44      0.00
  -13   23    2     -3.41      0.00
  -12   22    2      0.87      0.00
  -11   21    2      0.15      0.00
  -10   20    2     -1.34      0.00
   -9   19    2     -0.99      0.00
   -8   18    2      0.47      0.00
   -7   17    2      8.14      0.00
   -6   16    2      0.38      0.00
   10    0    2    -21.23      0.00
   11    1    2    -14.45      0.00
   12    2    2     -1.95      0.00
   13    3    2      3.56      0.00
   14    4    2      6.37      0.00
   15    5    2      3.58      0.00
   16    6    2     -0.20      0.00
   17    7    2     -1.34      0.00
   18    8    2     -5.55      0.00
   19    9    2      1.28      0.00
   20   10    2      2.21      0.00
   21   11    2      0.39      0.00
   22   12    2     -1.26      0.00
   23   13    2      0.38      0.00
   24   14    2      1.01      0.00
   25   15    2      1.16      0.00
   26   16    2     -0.12      0.00
   27   17    2     -1.63      0.00
  -18   30    2     -0.54      0.00
  -17   29    2      1.86      0.00
  -16   28    2     -0.44      0.00
  -15   27    2     -3.07      0.00
  -14   26    2      0.73      0.00
  -13   25    2     -0.79      0.00
  -12   24    2     -0.21      0.00
  -11   23    2      1.91      0.00
  -10   22    2      1.21      0.00
   -9   21    2     -1.95      0.00
   -8   20    2      2.49      0.00
   -7   19    2     -0.46      0.00
   -6   18    2      1.24      0.00
   12    0    2     14.23      0.00
   13    1    2      7.55      0.00
   14    2    2     11.10      0.00
   15    3    2     -7.50      0.00
   16    4    2     -4.58      0.00
   17    5    2      2.73      0.00
   18    6    2     -2.43      0.00
   19    7    2     -1.32      0.00
   20    8    2      5.62      0.00
   21    9    2     -0.74      0.00
   22   10    2     -0.81      0.00
   23   11    2     -2.35      0.00
   24   12    2     -0.16      0.00
   25   13    2      1.53      0.00
   26   14    2     -1.26      0.00
   27   15    2     -1.57      0.00
  -17   31    2      2.08      0.00
  -16   30    2     -1.46      0.00
  -15   29    2     -0.15      0.00
  -14   28    2      7.09      0.00
  -13   27    2     -1.01      0.00
  -12   26    2     -1.33      0.00
  -11   25    2      1.81      0.00
  -10   24    2      0.29      0.00
   -9   23    2      1.58      0.00
   -8   22    2     -5.15      0.00
   -7   21    2      3.76      0.00
   -6   20    2     -1.51      0.00
   14    0    2      8.19      0.00
   15    1    2     -7.46      0.00
   16    2    2     -9.13      0.00
   17    3    2      5.96      0.00
   18    4    2      0.97      0.00
   19    5    2     -1.30      0.00
   20    6    2      0.24      0.00
   21    7    2      1.72      0.00
   22    8    2     -1.60      0.00
   23    9    2     -1.54      0.00
   24   10    2      1.13      0.00
   25   11    2      2.29      0.00
   26   12    2     -0.77      0.00
   27   13    2      1.08      0.00
   28   14    2     -0.09      0.00
  -16   32    2     -1.49      0.00
  -15   31    2     -1.59      0.00
  -14   30    2     -0.32      0.00
  -13   29    2     -4.18      0.00
  -12   28    2      2.02      0.00
  -11   27    2     -1.94      0.00
  -10   26    2     -0.22      0.00
   -9   25    2     -0.54      0.00
   -8   24    2      1.68      0.00
   -7   23    2     -1.12      0.00
   -6   22    2      0.24      0.00
   16    0    2    -11.73      0.00
   17    1    2      4.47      0.00
   18    2    2      6.37      0.00
   19    3    2     -1.98      0.00
   20    4    2     -0.88      0.00
   21    5    2      0.55      0.00
   22    6    2      1.32      0.00
   23    7    2     -0.44      0.00
   24    8    2     -0.86      0.00
   25    9    2     -0.06      0.00
   26   10    2     -0.86      0.00
   27   11    2      0.28      0.00
   28   12    2     -1.37      0.00
   29   13    2     -1.44      0.00
  -15   33    2     -0.01      0.00
  -14   32    2      2.35      0.00
  -13   31    2      0.32      0.00
  -12   30    2      3.11      0.00
  -11   29    2     -1.34      0.00
  -10   28    2     -1.01      0.00
   -9   27    2      2.39      0.00
   -8   26    2      0.46      0.00
   -7   25    2     -5.34      0.00
   -6   24    2      0.47      0.00
   18    0    2      7.22      0.00
   19    1    2     -0.53      0.00
   20    2    2     -3.15      0.00
   21    3    2     -2.08      0.00
   22    4    2      1.95      0.00
   23    5    2     -0.18      0.00
   24    6    2     -1.09      0.00
   25    7    2      0.91      0.00
   26    8    2     -0.02      0.00
   27    9    2      0.94      0.00
   28   10    2      1.87      0.00
   29   11    2      0.49      0.00
  -14   34    2      1.52      0.00
  -13   33    2     -1.33      0.00
  -12   32    2      1.07      0.00
  -11   31    2     -5.10      0.00
  -10   30    2      2.34      0.00
   -9   29    2     -1.42      0.00
   -8   28    2      0.93      0.00
   -7   27    2     -0.12      0.00
   -6   26    2      2.01      0.00
   20    0    2     -6.60      0.00
   21    1    2     -0.33      0.00
   22    2    2      2.81      0.00
   23    3    2      0.90      0.00
   24    4    2     -1.91      0.00
   25    5    2     -1.47      0.00
   26    6    2      1.39      0.00
   27    7    2      1.69      0.00
   28    8    2     -1.24      0.00
   29    9    2     -2.70      0.00
   30   10    2     -1.02      0.00
  -13   35    2     -4.85      0.00
  -12   34    2      2.57      0.00
  -11   33    2     -1.93      0.00
  -10   32    2      2.26      0.00
   -9   31    2      0.41      0.00
   -8   30    2      0.63      0.00
   -7   29    2      0.02      0.00
   -6   28    2     -0.81      0.00
   22    0    2      0.51      0.00
   23    1    2      1.54      0.00
   24    2    2      0.85      0.00
   25    3    2     -0.22      0.00
   26    4    2     -1.02      0.00
   27    5    2      0.89      0.00
   28    6    2     -0.02      0.00
   29    7    2      0.90      0.00
   30    8    2     -1.83      0.00
  -12   36    2     -0.20      0.00
  -11   35    2     -0.21      0.00
  -10   34    2      2.83      0.00
   -9   33    2     -0.69      0.00
   -8   32    2     -0.16      0.00
   -7   31    2      0.40      0.00
   -6   30    2     -0.54      0.00
   24    0    2      1.65      0.00
   25    1    2     -2.03      0.00
   26    2    2      0.35      0.00
   27    3    2      1.56      0.00
   28    4    2     -0.89      0.00
   29    5    2     -0.79      0.00
   30    6    2      0.57      0.00
   31    7    2      0.43      0.00
  -10   36    2     -0.71      0.00
   -9   35    2     -1.52      0.00
   -8   34    2     -3.21      0.00
   -7   33    2      2.51      0.00
   -6   32    2     -3.40      0.00
   -5   31    2      1.22      0.00
   26    0    2     -3.94      0.00
   27    1    2      0.58      0.00
   28    2    2     -0.38      0.00
   29    3    2     -0.26      0.00
   30    4    2     -0.45      0.00
   31    5    2     -0.77      0.00
   -8   36    2      0.51      0.00
   -7   35    2      2.95      0.00
   -6   34    2      1.10      0.00
   -5   33    2      1.15      0.00
   28    0    2      1.02      0.00
   29    1    2      0.59      0.00
   30    2    2      3.21      0.00
   31    3    2     -1.28      0.00
   32    4    2      2.24      0.00
   -6   36    2     -2.73      0.00
   -5   35    2     -1.39      0.00
   30    0    2      1.48      0.00
   31    1    2     -4.32      0.00
   32    2    2      1.75      0.00
   -5   37    2     -0.30      0.00
   -4   36    2      0.97      0.00
   32    0    2      1.13      0.00
   33    1    2     -0.82      0.00
   -3   37    2     -0.32      0.00
   -1   37    2     -1.35      0.00
   33    3    2     -2.63      0.00
  -29   13    3     -0.47      0.00
  -28   12    3      0.00      0.00
  -27   13    3      0.93      0.00
  -26   14    3      2.03      0.00
  -30    8    3      1.45      0.00
  -29    9    3      0.12      0.00
  -28   10    3      0.72      0.00
  -27   11    3     -2.34      0.00
  -26   12    3      0.73      0.00
  -25   13    3     -3.78      0.00
   -4   34    3     -1.36      0.00
   -3   35    3     -0.87      0.00
   -2   36    3     -0.30      0.00
  -29    7    3      2.20      0.00
  -28    8    3      0.84      0.00
  -27    9    3     -1.85      0.00
  -26   10    3      2.88      0.00
  -25   11    3     -2.25      0.00
  -24   12    3      0.52      0.00
  -23   13    3     -1.96      0.00
  -22   14    3      3.95      0.00
   -4   32    3     -2.21      0.00
   -3   33    3     -0.54      0.00
   -2   34    3     -0.89      0.00
   -1   35    3      0.63      0.00
    0   36    3      0.56      0.00
    1   37    3      0.91      0.00
  -30    4    3      1.24      0.00
  -29    5    3      2.20      0.00
  -28    6    3     -0.11      0.00
  -27    7    3     -0.92      0.00
  -26    8    3      0.97      0.00
  -25    9    3     -1.81      0.00
  -24   10    3     -0.94      0.00
  -23   11    3      1.70      0.00
  -22   12    3      2.22      0.00
  -21   13    3     -0.85      0.00
  -20   14    3     -0.35      0.00
   -5   29    3     -1.38      0.00
   -4   30    3     -1.52      0.00
   -3   31    3      0.33      0.00
   -2   32    3      0.78      0.00
   -1   33    3      1.83      0.00
    0   34    3     -0.37      0.00
    1   35    3      0.20      0.00
    2   36    3      0.04      0.00
    3   37    3     -1.47      0.00
  -33    1    3      0.72      0.00
  -31    1    3     -0.46      0.00
  -30    2    3     -0.93      0.00
  -29    3    3      0.95      0.00
  -28    4    3     -0.65      0.00
  -27    5    3     -3.20      0.00
  -26    6    3     -1.70      0.00
  -25    7    3      0.63      0.00
  -24    8    3      1.01      0.00
  -23    9    3      2.78      0.00
  -22   10    3     -0.27      0.00
  -21   11    3      0.51      0.00
  -20   12    3     -2.57      0.00
  -19   13    3     -1.60      0.00
   -5   27    3      0.35      0.00
   -4   28    3     -1.36      0.00
   -3   29    3      1.21      0.00
   -2   30    3      1.68      0.00
   -1   31    3     -0.66      0.00
    0   32    3     -0.13      0.00
    1   33    3     -1.33      0.00
    2   34    3     -1.27      0.00
    3   35    3      1.24      0.00
    4   36    3     -1.04      0.00
    5   37    3      0.78      0.00
    6   38    3      1.97      0.00
  -33    3    3      0.94      0.00
  -32    2    3      1.13      0.00
  -29    1    3      0.21      0.00
  -28    2    3      0.34      0.00
  -27    3    3     -2.56      0.00
  -26    4    3      3.58      0.00
  -25    5    3      2.10      0.00
  -24    6    3      0.60      0.00
  -23    7    3     -0.13      0.00
  -22    8    3     -1.55      0.00
  -21    9    3     -0.44      0.00
  -20   10    3     -1.30      0.00
  -19   11    3     -0.88      0.00
  -18   12    3      0.91      0.00
  -17   13    3      0.72      0.00
   -6   24    3      0.27      0.00
   -4   26    3     -1.02      0.00
   -3   27    3      2.10      0.00
   -2   28    3      1.50      0.00
   -1   29    3     -1.74      0.00
    0   30    3     -0.60      0.00
    1   31    3      1.08      0.00
    2   32    3      1.29      0.00
    3   33    3     -0.92      0.00
    4   34    3      0.31      0.00
    5   35    3      1.44      0.00
    6   36    3     -0.70      0.00
    7   37    3     -2.89      0.00
  -32    4    3     -2.15      0.00
  -31    3    3     -1.33      0.00
  -27    1    3     -0.04      0.00
  -26    2    3      1.32      0.00
  -25    3    3     -1.30      0.00
  -24    4    3      2.21      0.00
  -23    5    3     -0.76      0.00
  -22    6    3     -1.99      0.00
  -21    7    3     -1.39      0.00
  -20    8    3      0.90      0.00
  -19    9    3     -0.71      0.00
  -18   10    3     -0.35      0.00
  -17   11    3      4.47      0.00
  -16   12    3      4.17      0.00
  -15   13    3     -1.51      0.00
   -6   22    3      0.70      0.00
   -5   23    3     -0.52      0.00
   -4   24    3      0.40      0.00
   -3   25    3      0.35      0.00
   -2   26    3     -0.58      0.00
   -1   27    3     -0.27      0.00
    0   28    3     -0.72      0.00
    1   29    3     -0.85      0.00
    2   30    3     -0.02      0.00
    3   31    3     -0.06      0.00
    4   32    3      1.09      0.00
    5   33    3     -0.80      0.00
    6   34    3      0.60      0.00
    7   35    3     -0.10      0.00
    8   36    3      0.84      0.00
  -32    6    3      3.68      0.00
  -31    5    3      0.59      0.00
  -25    1    3     -0.04      0.00
  -24    2    3      0.68      0.00
  -23    3    3     -2.42      0.00
  -22    4    3     -1.55      0.00
  -21    5    3     -0.68      0.00
  -20    6    3      2.50      0.00
  -19    7    3      2.09      0.00
  -18    8    3      0.41      0.00
  -17    9    3      1.36      0.00
  -16   10    3      1.34      0.00
  -15   11    3     -7.65      0.00
   -6   20    3     -3.00      0.00
   -5   21    3      1.23      0.00
   -4   22    3      1.92      0.00
   -3   23    3      2.27      0.00
   -2   24    3      0.46      0.00
   -1   25    3      0.65      0.00
    0   26    3     -0.48      0.00
    1   27    3     -1.37      0.00
    2   28    3      2.35      0.00
    3   29    3      0.28      0.00
    4   30    3     -1.64      0.00
    5   31    3      0.03      0.00
    6   32    3      1.09      0.00
    7   33    3     -2.50      0.00
    8   34    3      2.04      0.00
    9   35    3     -0.24      0.00
   10   36    3      0.52      0.00
  -31    7    3     -3.71      0.00
  -30    6    3     -3.00      0.00
  -23    1    3     -1.85      0.00
  -22    2    3      2.80      0.00
  -21    3    3     -1.71      0.00
  -20    4    3      1.21      0.00
  -19    5    3      2.77      0.00
  -18    6    3     -2.06      0.00
  -17    7    3     -0.92      0.00
  -16    8    3     -1.43      0.00
  -15    9    3     -0.73      0.00
  -14   10    3     -1.50      0.00
  -13   11    3      3.97      0.00
   -6   18    3      4.77      0.00
   -5   19    3      2.20      0.00
   -4   20    3      3.55      0.00
   -3   21    3      1.80      0.00
   -2   22    3     -6.49      0.00
   -1   23    3     -2.23      0.00
    0   24    3      1.94      0.00
    1   25    3      0.00      0.00
    2   26    3     -0.20      0.00
    3   27    3      0.44      0.00
    4   28    3      0.01      0.00
    5   29    3      0.58      0.00
    6   30    3      0.15      0.00
    7   31    3     -2.48      0.00
    8   32    3      1.51      0.00
    9   33    3      1.67      0.00
   10   34    3     -1.68      0.00
   11   35    3      1.25      0.00
   12   36    3      0.85      0.00
  -31    9    3     -0.08      0.00
  -21    1    3     -2.35      0.00
  -20    2    3      2.16      0.00
  -19    3    3      1.86      0.00
  -18    4    3     -0.16      0.00
  -17    5    3     -2.34      0.00
  -16    6    3     -2.10      0.00
  -15    7    3     -1.49      0.00
  -14    8    3     -0.84      0.00
  -13    9    3      3.21      0.00
  -12   10    3      7.20      0.00
  -11   11    3      1.23      0.00
   -6   16    3     -1.12      0.00
   -5   17    3      0.94      0.00
   -4   18    3      4.96      0.00
   -3   19    3     -1.03      0.00
   -2   20    3     -7.62      0.00
   -1   21    3      1.43      0.00
    0   22    3      3.37      0.00
    1   23    3     -0.08      0.00
    2   24    3     -1.27      0.00
    3   25    3      0.09      0.00
    4   26    3      0.05      0.00
    5   27    3      0.13      0.00
    6   28    3     -2.38      0.00
    7   29    3      3.91      0.00
    8   30    3     -1.79      0.00
    9   31    3      0.03      0.00
   10   32    3     -0.63      0.00
   11   33    3     -1.75      0.00
   12   34    3     -0.79      0.00
   13   35    3      1.04      0.00
  -30   10    3      0.56      0.00
  -19    1    3      2.56      0.00
  -18    2    3     -1.41      0.00
  -17    3    3     -5.55      0.00
  -16    4    3     -1.92      0.00
  -15    5    3      4.63      0.00
  -14    6    3      6.90      0.00
  -13    7    3     -0.79      0.00
  -12    8    3      2.88      0.00
  -11    9    3     -2.65      0.00
  -10   10    3     -2.48      0.00
   -9   11    3     -2.21      0.00
   -6   14    3      4.67      0.00
   -5   15    3     -1.88      0.00
   -4   16    3     -3.27      0.00
   -3   17    3    -10.10      0.00
   -2   18    3      3.08      0.00
   -1   19    3     -3.19      0.00
    0   20    3      3.14      0.00
    1   21    3      3.58      0.00
    2   22    3     -0.86      0.00
    3   23    3     -0.27      0.00
    4   24    3     -0.06      0.00
    5   25    3      0.40      0.00
    6   26    3      0.70      0.00
    7   27    3      0.60      0.00
    8   28    3     -1.69      0.00
    9   29    3     -0.04      0.00
   10   30    3      1.86      0.00
   11   31    3      0.06      0.00
   12   32    3      0.26      0.00
   13   33    3     -1.33      0.00
   14   34    3      0.51      0.00
  -29   11    3      0.26      0.00
  -17    1    3     -1.39      0.00
  -16    2    3     -0.95      0.00
  -15    3    3      5.22      0.00
  -14    4    3      7.72      0.00
  -13    5    3     -1.44      0.00
  -12    6    3     -4.98      0.00
  -11    7    3    -10.11      0.00
  -10    8    3     -4.86      0.00
   -9    9    3     -8.81      0.00
   -8   10    3     -6.82      0.00
   -7   11    3     13.71      0.00
   -6   12    3     10.01      0.00
   -5   13    3    -11.28      0.00
   -4   14    3     -8.20      0.00
   -3   15    3      5.44      0.00
   -2   16    3      2.05      0.00
   -1   17    3      2.98      0.00
    0   18    3      1.64      0.00
    1   19    3      1.54      0.00
    2   20    3     -1.06      0.00
    3   21    3     -5.47      0.00
    4   22    3      0.90      0.00
    5   23    3      1.98      0.00
    6   24    3     -2.85      0.00
    7   25    3      1.09      0.00
    8   26    3     -1.02      0.00
    9   27    3     -0.20      0.00
   10   28    3      1.75      0.00
   11   29    3     -0.02      0.00
   12   30    3     -1.48      0.00
   13   31    3      3.14      0.00
   14   32    3      0.43      0.00
   15   33    3      0.65      0.00
  -15    1    3      2.01      0.00
  -14    2    3      3.82      0.00
  -13    3    3     -4.00      0.00
  -12    4    3    -14.82      0.00
  -11    5    3     -7.76      0.00
  -10    6    3     13.09      0.00
   -9    7    3     22.75      0.00
   -8    8    3     -4.78      0.00
   -7    9    3     26.05      0.00
   -6   10    3     -6.60      0.00
   -5   11    3     -4.82      0.00
   -4   12    3    -16.31      0.00
   -3   13    3     -4.33      0.00
   -2   14    3      8.14      0.00
   -1   15    3     11.44      0.00
    0   16    3     -4.23      0.00
    1   17    3     -4.05      0.00
    2   18    3      2.07      0.00
    3   19    3     -0.16      0.00
    4   20    3     -0.28      0.00
    5   21    3      0.28      0.00
    6   22    3      2.60      0.00
    7   23    3     -1.20      0.00
    8   24    3      0.02      0.00
    9   25    3     -0.66      0.00
   10   26    3      2.71      0.00
   11   27    3     -0.55      0.00
   12   28    3     -3.40      0.00
   13   29    3     -0.90      0.00
   14   30    3      0.36      0.00
   15   31    3     -1.50      0.00
   16   32    3     -0.43      0.00
  -28   14    3      2.47      0.00
  -13    1    3      5.54      0.00
  -12    2    3    -10.87      0.00
  -11    3    3     -7.84      0.00
  -10    4    3     20.53      0.00
   -9    5    3     11.51      0.00
   -8    6    3    -10.33      0.00
   -7    7    3    -12.70      0.00
   -6    8    3     -0.19      0.00
   -5    9    3    -15.86      0.00
   -4   10    3    -36.58      0.00
   -3   11    3     21.87      0.00
   -2   12    3     21.85      0.00
   -1   13    3      9.16      0.00
    0   14    3     -8.91      0.00
    1   15    3    -14.93      0.00
    2   16    3      7.71      0.00
    3   17    3     -0.75      0.00
    4   18    3     -5.75      0.00
    5   19    3      2.88      0.00
    6   20    3      1.69      0.00
    7   21    3     -0.41      0.00
    8   22    3     -1.19      0.00
    9   23    3      1.58      0.00
   10   24    3      0.32      0.00
   11   25    3     -2.42      0.00
   12   26    3     -0.37      0.00
   13   27    3      2.11      0.00
   14   28    3      1.20      0.00
   15   29    3      1.91      0.00
   16   30    3     -1.16      0.00
   17   31    3      0.33      0.00
  -28   16    3     -2.52      0.00
  -27   15    3     -0.47      0.00
  -11    1    3    -10.70      0.00
  -10    2    3     17.20      0.00
   -9    3    3     17.22      0.00
   -8    4    3     -2.78      0.00
   -7    5    3    -17.04      0.00
   -6    6    3    -28.15      0.00
   -5    7    3     24.85      0.00
   -4    8    3      5.17      0.00
   -3    9    3     48.47      0.00
   -2   10    3    -15.74      0.00
   -1   11    3      9.83      0.00
    0   12    3    -15.25      0.00
    1   13    3    -23.35      0.00
    2   14    3      3.48      0.00
    3   15    3     11.04      0.00
    4   16    3      2.11      0.00
    5   17    3     -1.37      0.00
    6   18    3      3.62      0.00
    7   19    3     -1.53      0.00
    8   20    3      2.08      0.00
    9   21    3     -7.52      0.00
   10   22    3      3.58      0.00
   11   23    3      0.00      0.00
   12   24    3     -0.36      0.00
   13   25    3      0.48      0.00
   14   26    3     -1.02      0.00
   15   27    3      0.83      0.00
   16   28    3     -0.77      0.00
   17   29    3     -2.77      0.00
   18   30    3      1.38      0.00
  -27   17    3     -0.15      0.00
  -26   16    3     -0.63      0.00
  -25   15    3     -0.88      0.00
  -24   14    3      1.93      0.00
   -9    1    3     16.12      0.00
   -8    2    3     -2.39      0.00
   -7    3    3    -41.44      0.00
   -6    4    3    -35.81      0.00
   -5    5    3     66.44      0.00
   -4    6    3      9.84      0.00
   -3    7    3    -35.77      0.00
   -2    8    3     19.13      0.00
   -1    9    3    -17.20      0.00
    0   10    3      5.64      0.00
    1   11    3    -12.60      0.00
    2   12    3      0.45      0.00
    3   13    3     30.82      0.00
    4   14    3      3.40      0.00
    5   15    3    -18.78      0.00
    6   16    3      2.82      0.00
    7   17    3      5.41      0.00
    8   18    3     -7.79      0.00
    9   19    3     -0.06      0.00
   10   20    3      2.50      0.00
   11   21    3      4.70      0.00
   12   22    3     -2.05      0.00
   13   23    3      0.17      0.00
   14   24    3      1.44      0.00
   15   25    3     -0.36      0.00
   16   26    3     -1.95      0.00
   17   27    3      1.33      0.00
   18   28    3      3.03      0.00
   19   29    3     -1.65      0.00
  -26   18    3      3.27      0.00
  -25   17    3      0.27      0.00
  -24   16    3     -2.52      0.00
  -23   15    3      0.76      0.00
   -7    1    3    -28.02      0.00
   -6    2    3    -13.56      0.00
   -5    3    3     63.05      0.00
   -4    4    3      8.65      0.00
   -3    5    3    -32.80      0.00
   -2    6    3     14.64      0.00
   -1    7    3    -76.93      0.00
    0    8    3     16.31      0.00
    1    9    3     18.45      0.00
    2   10    3    -26.86      0.00
    3   11    3     32.05      0.00
    4   12    3    -17.11      0.00
    5   13    3      2.61      0.00
    6   14    3     -6.01      0.00
    7   15    3     -7.87      0.00
    8   16    3     11.22      0.00
    9   17    3     -2.28      0.00
   10   18    3     -0.70      0.00
   11   19    3      2.19      0.00
   12   20    3     -1.51      0.00
   13   21    3     -2.48      0.00
   14   22    3     -2.63      0.00
   15   23    3      2.44      0.00
   16   24    3      1.34      0.00
   17   25    3     -2.58      0.00
   18   26    3      0.47      0.00
   19   27    3     -0.34      0.00
  -25   19    3      2.76      0.00
  -24   18    3     -2.20      0.00
  -23   17    3      0.12      0.00
  -22   16    3     -0.48      0.00
  -21   15    3     -0.04      0.00
   -5    1    3     39.37      0.00
   -4    2    3     29.44      0.00
   -3    3    3     38.18      0.00
   -2    4    3    -77.78      0.00
   -1    5    3     40.41      0.00
    0    6    3     59.25      0.00
    1    7    3      4.09      0.00
    2    8    3     -6.62      0.00
    3    9    3    -14.16      0.00
    4   10    3     29.59      0.00
    5   11    3     -6.28      0.00
    6   12    3    -25.96      0.00
    7   13    3     13.20      0.00
    8   14    3      8.51      0.00
    9   15    3     -5.15      0.00
   10   16    3      1.01      0.00
   11   17    3     -2.72      0.00
   12   18    3      5.51      0.00
   13   19    3     -5.65      0.00
   14   20    3      2.15      0.00
   15   21    3      1.05      0.00
   16   22    3      1.65      0.00
   17   23    3     -2.06      0.00
   18   24    3      0.17      0.00
   19   25    3      0.00      0.00
   20   26    3     -0.25      0.00
  -25   21    3     -0.80      0.00
  -24   20    3     -1.44      0.00
  -23   19    3      0.67      0.00
  -22   18    3      1.71      0.00
  -21   17    3      0.05      0.00
  -20   16    3      0.82      0.00
  -19   15    3     -3.72      0.00
  -18   14    3      0.95      0.00
   -3    1    3   -116.38      0.00
   -2    2    3    -70.01      0.00
   -1    3    3    -35.71      0.00
    0    4    3     13.10      0.00
    1    5    3     18.34      0.00
    2    6    3     32.20      0.00
    3    7    3    -52.79      0.00
    4    8    3     41.22      0.00
    5    9    3    -25.73      0.00
    6   10    3    -12.96      0.00
    7   11    3     11.11      0.00
    8   12    3      1.89      0.00
    9   13    3      4.02      0.00
   10   14    3      0.08      0.00
   11   15    3     -3.56      0.00
   12   16    3     -1.54      0.00
   13   17    3      6.90      0.00
   14   18    3     -5.42      0.00
   15   19    3      0.25      0.00
   16   20    3      0.44      0.00
   17   21    3     -0.42      0.00
   18   22    3      0.13      0.00
   19   23    3      2.38      0.00
   20   24    3     -0.59      0.00
   21   25    3     -0.01      0.00
  -24   22    3      1.13      0.00
  -23   21    3      1.67      0.00
  -22   20    3     -4.60      0.00
  -21   19    3     -0.10      0.00
  -20   18    3      0.41      0.00
  -19   17    3      0.50      0.00
  -18   16    3     -0.04      0.00
  -17   15    3      0.65      0.00
  -16   14    3      1.92      0.00
  -14   12    3     -7.89      0.00
   -1    1    3    189.76      0.00
    0    2    3     22.58      0.00
    1    3    3    -30.72      0.00
    2    4    3      8.33      0.00
    3    5    3    -86.49      0.00
    4    6    3     -9.37      0.00
    5    7    3     31.91      0.00
    6    8    3      5.86      0.00
    7    9    3    -15.80      0.00
    8   10    3     16.15      0.00
    9   11    3     11.62      0.00
   10   12    3     -8.69      0.00
   11   13    3    -11.23      0.00
   12   14    3      4.59      0.00
   13   15    3      3.04      0.00
   14   16    3     -4.95      0.00
   15   17    3      0.47      0.00
   16   18    3      3.12      0.00
   17   19    3      1.40      0.00
   18   20    3     -0.98      0.00
   19   21    3     -1.02      0.00
   20   22    3     -1.86      0.00
   21   23    3      0.32      0.00
   22   24    3      1.31      0.00
  -23   23    3      2.56      0.00
  -22   22    3     -0.36      0.00
  -21   21    3     -0.82      0.00
  -20   20    3      1.88      0.00
  -19   19    3      2.41      0.00
  -18   18    3     -1.45      0.00
  -17   17    3     -1.82      0.00
  -16   16    3      4.64      0.00
  -15   15    3     -0.73      0.00
  -14   14    3     -8.10      0.00
  -13   13    3      6.19      0.00
  -12   12    3      6.32      0.00
    1    1    3    -34.85      0.00
    2    2    3     30.49      0.00
    3    3    3     51.50      0.00
    4    4    3      2.64      0.00
    5    5    3     -0.73      0.00
    6    6    3     17.08      0.00
    7    7    3     -6.90      0.00
    8    8    3     -3.71      0.00
    9    9    3      0.51      0.00
   10   10    3     -1.69      0.00
   11   11    3     -9.40      0.00
   12   12    3     -1.17      0.00
   13   13    3     10.11      0.00
   14   14    3      0.01      0.00
   15   15    3     -0.61      0.00
   16   16    3     -3.03      0.00
   17   17    3      1.72      0.00
   18   18    3      1.32      0.00
   19   19    3     -3.79      0.00
   20   20    3      1.19      0.00
   21   21    3     -0.72      0.00
   22   22    3      0.71      0.00
   23   23    3      0.43      0.00
  -22   24    3     -3.28      0.00
  -21   23    3     -1.57      0.00
  -20   22    3      0.92      0.00
  -19   21    3      3.60      0.00
  -18   20    3     -4.69      0.00
  -17   19    3     -1.32      0.00
  -16   18    3      1.26      0.00
  -15   17    3      0.83      0.00
  -14   16    3     -3.17      0.00
  -13   15    3      3.30      0.00
  -12   14    3      5.41      0.00
  -11   13    3     -2.18      0.00
  -10   12    3     -9.47      0.00
    3    1    3     -3.05      0.00
    4    2    3   -147.20      0.00
    5    3    3     33.26      0.00
    6    4    3     68.31      0.00
    7    5    3    -15.30      0.00
    8    6    3    -35.08      0.00
    9    7    3     30.73      0.00
   10    8    3    -12.53      0.00
   11    9    3     -3.23      0.00
   12   10    3      2.77      0.00
   13   11    3      5.66      0.00
   14   12    3      1.91      0.00
   15   13    3     -4.88      0.00
   16   14    3     -0.52      0.00
   17   15    3      1.62      0.00
   18   16    3      3.05      0.00
   19   17    3     -2.62      0.00
   20   18    3     -0.72      0.00
   21   19    3      3.60      0.00
   22   20    3     -1.00      0.00
   23   21    3      1.27      0.00
   24   22    3     -2.13      0.00
  -21   25    3      0.63      0.00
  -20   24    3      2.20      0.00
  -19   23    3      0.44      0.00
  -18   22    3      0.19      0.00
  -17   21    3     -1.21      0.00
  -16   20    3     -1.01      0.00
  -15   19    3      1.84      0.00
  -14   18    3      0.15      0.00
  -13   17    3     -0.02      0.00
  -12   16    3     -3.85      0.00
  -11   15    3      5.93      0.00
  -10   14    3     -5.61      0.00
   -9   13    3     -9.32      0.00
   -8   12    3     10.00      0.00
    5    1    3     88.19      0.00
    6    2    3     -3.65      0.00
    7    3    3     -6.65      0.00
    8    4    3     -9.77      0.00
    9    5    3    -25.19      0.00
   10    6    3      7.62      0.00
   11    7    3      4.91      0.00
   12    8    3      4.01      0.00
   13    9    3     -1.17      0.00
   14   10    3      2.62      0.00
   15   11    3     -3.35      0.00
   16   12    3     -3.46      0.00
   17   13    3     -1.87      0.00
   18   14    3      5.27      0.00
   19   15    3     -3.56      0.00
   20   16    3     -3.72      0.00
   21   17    3      2.32      0.00
   22   18    3     -2.36      0.00
   23   19    3      4.59      0.00
   24   20    3      0.36      0.00
  -21   27    3      1.95      0.00
  -20   26    3     -2.22      0.00
  -19   25    3      1.54      0.00
  -18   24    3      0.94      0.00
  -17   23    3     -3.35      0.00
  -16   22    3      1.02      0.00
  -15   21    3      1.90      0.00
  -14   20    3      2.41      0.00
  -13   19    3     -1.59      0.00
  -12   18    3      0.15      0.00
  -11   17    3     -2.08      0.00
  -10   16    3      3.51      0.00
   -9   15    3     -3.50      0.00
   -8   14    3      2.15      0.00
   -7   13    3      5.25      0.00
    7    1    3     36.51      0.00
    8    2    3    -49.80      0.00
    9    3    3    -28.13      0.00
   10    4    3     37.37      0.00
   11    5    3     20.06      0.00
   12    6    3     -9.37      0.00
   13    7    3     -8.31      0.00
   14    8    3      6.00      0.00
   15    9    3     -1.55      0.00
   16   10    3     -1.32      0.00
   17   11    3      0.55      0.00
   18   12    3      3.34      0.00
   19   13    3      0.65      0.00
   20   14    3     -1.36      0.00
   21   15    3      3.31      0.00
   22   16    3     -1.24      0.00
   23   17    3      3.12      0.00
   24   18    3     -4.52      0.00
   25   19    3     -3.59      0.00
  -20   28    3     -3.26      0.00
  -19   27    3      0.62      0.00
  -18   26    3     -1.08      0.00
  -17   25    3     -1.70      0.00
  -16   24    3      0.40      0.00
  -15   23    3      0.82      0.00
  -14   22    3     -0.06      0.00
  -13   21    3      0.47      0.00
  -12   20    3     -8.12      0.00
  -11   19    3      5.86      0.00
  -10   18    3     -2.16      0.00
   -9   17    3     -0.09      0.00
   -8   16    3      0.33      0.00
   -7   15    3      3.66      0.00
    9    1    3     -5.01      0.00
   10    2    3     25.81      0.00
   11    3    3      9.09      0.00
   12    4    3     -5.24      0.00
   13    5    3    -12.69      0.00
   14    6    3     -0.51      0.00
   15    7    3     -1.37      0.00
   16    8    3      5.45      0.00
   17    9    3     -3.37      0.00
   18   10    3     -1.81      0.00
   19   11    3      4.08      0.00
   20   12    3     -0.88      0.00
   21   13    3     -2.73      0.00
   22   14    3      0.27      0.00
   23   15    3      0.50      0.00
   24   16    3     -1.52      0.00
   25   17    3      0.19      0.00
   26   18    3      4.52      0.00
  -19   29    3     -0.12      0.00
  -18   28    3      3.16      0.00
  -17   27    3      2.97      0.00
  -16   26    3     -1.03      0.00
  -15   25    3     -0.67      0.00
  -14   24    3      1.58      0.00
  -13   23    3     -2.36      0.00
  -12   22    3      2.79      0.00
  -11   21    3     -2.79      0.00
  -10   20    3      4.16      0.00
   -9   19    3      5.14      0.00
   -8   18    3     -5.20      0.00
   -7   17    3      0.53      0.00
   11    1    3     14.75      0.00
   12    2    3     -9.03      0.00
   13    3    3    -16.42      0.00
   14    4    3     -1.92      0.00
   15    5    3      9.56      0.00
   16    6    3      3.37      0.00
   17    7    3     -1.84      0.00
   18    8    3     -3.11      0.00
   19    9    3      3.59      0.00
   20   10    3      0.14      0.00
   21   11    3     -2.38      0.00
   22   12    3     -0.46      0.00
   23   13    3      1.69      0.00
   24   14    3      2.03      0.00
   25   15    3     -0.21      0.00
   26   16    3     -1.48      0.00
  -18   30    3      1.11      0.00
  -17   29    3     -1.55      0.00
  -16   28    3     -1.00      0.00
  -15   27    3     -3.01      0.00
  -14   26    3      2.08      0.00
  -13   25    3      1.49      0.00
  -12   24    3     -0.61      0.00
  -11   23    3     -0.49      0.00
  -10   22    3     -0.26      0.00
   -9   21    3      1.94      0.00
   -8   20    3     -0.87      0.00
   -7   19    3     -6.20      0.00
   13    1    3     -2.65      0.00
   14    2    3     -1.23      0.00
   15    3    3      7.36      0.00
   16    4    3      5.06      0.00
   17    5    3     -2.05      0.00
   18    6    3     -4.59      0.00
   19    7    3      0.01      0.00
   20    8    3      3.65      0.00
   21    9    3     -1.69      0.00
   22   10    3     -1.07      0.00
   23   11    3      0.30      0.00
   24   12    3      0.41      0.00
   25   13    3     -2.22      0.00
   26   14    3      1.56      0.00
   27   15    3     -1.57      0.00
  -17   31    3     -2.88      0.00
  -16   30    3      0.58      0.00
  -15   29    3      0.07      0.00
  -14   28    3     -1.42      0.00
  -13   27    3      0.25      0.00
  -12   26    3     -0.16      0.00
  -11   25    3      0.16      0.00
  -10   24    3     -0.39      0.00
   -9   23    3      0.79      0.00
   -8   22    3     -1.84      0.00
   -7   21    3      0.22      0.00
   15    1    3      1.22      0.00
   16    2    3      5.82      0.00
   17    3    3     -2.41      0.00
   18    4    3     -3.72      0.00
   19    5    3     -1.93      0.00
   20    6    3      4.74      0.00
   21    7    3     -1.98      0.00
   22    8    3      0.34      0.00
   23    9    3     -1.98      0.00
   24   10    3      1.87      0.00
   25   11    3      1.28      0.00
   26   12    3     -0.27      0.00
   27   13    3     -0.63      0.00
   28   14    3      0.80      0.00
  -16   32    3      3.62      0.00
  -15   31    3      0.92      0.00
  -14   30    3     -0.51      0.00
  -13   29    3      5.01      0.00
  -12   28    3      1.82      0.00
  -11   27    3     -1.91      0.00
  -10   26    3     -0.87      0.00
   -9   25    3     -0.85      0.00
   -8   24    3      2.20      0.00
   -7   23    3     -2.81      0.00
   17    1    3     -0.47      0.00
   18    2    3     -3.29      0.00
   19    3    3     -2.71      0.00
   20    4    3      2.72      0.00
   21    5    3      3.79      0.00
   22    6    3     -2.57      0.00
   23    7    3      0.16      0.00
   24    8    3      0.56      0.00
   25    9    3     -0.08      0.00
   26   10    3     -0.70      0.00
   27   11    3     -1.08      0.00
   28   12    3      0.63      0.00
  -15   33    3     -1.50      0.00
  -14   32    3     -0.85      0.00
  -13   31    3     -3.62      0.00
  -12   30    3      0.14      0.00
  -11   29    3     -4.16      0.00
  -10   28    3     -0.85      0.00
   -9   27    3      1.05      0.00
   -8   26    3      0.42      0.00
   -7   25    3      2.28      0.00
   19    1    3     -2.10      0.00
   20    2    3      1.21      0.00
   21    3    3      4.21      0.00
   22    4    3     -2.01      0.00
   23    5    3     -1.38      0.00
   24    6    3     -1.16      0.00
   25    7    3      1.96      0.00
   26    8    3      1.50      0.00
   27    9    3     -0.02      0.00
   28   10    3     -0.37      0.00
   29   11    3      0.53      0.00
  -14   34    3      0.00      0.00
  -13   33    3      0.03      0.00
  -12   32    3      3.36      0.00
  -11   31    3     -2.69      0.00
  -10   30    3      4.62      0.00
   -9   29    3      0.41      0.00
   -8   28    3     -1.03      0.00
   -7   27    3      3.27      0.00
   -6   26    3     -4.13      0.00
   -5   25    3     -1.03      0.00
   21    1    3      1.15      0.00
   22    2    3      1.15      0.00
   23    3    3     -2.30      0.00
   24    4    3     -1.56      0.00
   25    5    3      1.10      0.00
   26    6    3     -0.99      0.00
   27    7    3      0.29      0.00
   28    8    3     -1.47      0.00
   29    9    3     -1.56      0.00
   30   10    3     -0.61      0.00
  -13   35    3     -0.84      0.00
  -12   34    3      2.79      0.00
  -11   33    3     -4.56      0.00
  -10   32    3      3.79      0.00
   -9   31    3     -1.65      0.00
   -8   30    3     -0.93      0.00
   -7   29    3      0.30      0.00
   -6   28    3      0.69      0.00
   23    1    3     -2.93      0.00
   24    2    3     -0.44      0.00
   25    3    3      2.02      0.00
   26    4    3      0.45      0.00
   27    5    3      1.48      0.00
   28    6    3     -2.03      0.00
   29    7    3      2.18      0.00
   30    8    3      2.17      0.00
  -12   36    3     -2.05      0.00
  -11   35    3     -0.76      0.00
  -10   34    3      2.56      0.00
   -9   33    3     -0.88      0.00
   -8   32    3     -1.68      0.00
   -7   31    3      0.81      0.00
   -6   30    3     -0.06      0.00
   25    1    3      1.75      0.00
   26    2    3     -2.28      0.00
   27    3    3      3.67      0.00
   28    4    3     -1.34      0.00
   29    5    3     -0.66      0.00
   30    6    3     -0.81      0.00
   31    7    3     -0.63      0.00
   -9   35    3      0.98      0.00
   -8   34    3      0.74      0.00
   -7   33    3     -1.23      0.00
   -6   32    3      0.83      0.00
   -5   31    3      1.53      0.00
   27    1    3      0.98      0.00
   28    2    3     -1.99      0.00
   29    3    3     -1.00      0.00
   30    4    3     -0.43      0.00
   31    5    3     -2.30      0.00
   -8   36    3     -1.13      0.00
   -7   35    3     -5.41      0.00
   -6   34    3      1.71      0.00
   -5   33    3      1.30      0.00
   29    1    3     -0.20      0.00
   30    2    3      2.01      0.00
   31    3    3      1.32      0.00
   32    4    3      3.94      0.00
   -6   36    3      4.73      0.00
   -5   35    3      3.34      0.00
   31    1    3     -2.30      0.00
   32    2    3     -0.31      0.00
   -5   37    3     -2.69      0.00
   -4   36    3     -1.70      0.00
   -3   37    3      1.30      0.00
   -1   37    3     -0.10      0.00
   33    3    3     -2.35      0.00
   32    6    3      1.48      0.00
   29   13    3     -0.49      0.00
  -28   14    4     -0.93      0.00
  -29   11    4     -0.46      0.00
  -27   13    4     -3.50      0.00
  -30    8    4     -1.44      0.00
  -29    9    4     -0.58      0.00
  -28   10    4     -1.01      0.00
  -27   11    4     -0.34      0.00
  -26   12    4      0.52      0.00
  -25   13    4     -0.15      0.00
  -24   14    4     -1.23      0.00
   -4   34    4     -1.06      0.00
   -2   36    4      2.09      0.00
  -30    6    4      0.36      0.00
  -28    8    4      2.20      0.00
  -27    9    4     -0.16      0.00
  -26   10    4      2.09      0.00
  -25   11    4      1.01      0.00
  -24   12    4     -0.44      0.00
  -23   13    4     -1.07      0.00
  -22   14    4     -3.19      0.00
   -5   31    4      0.08      0.00
   -4   32    4     -1.27      0.00
   -3   33    4      0.07      0.00
   -2   34    4      0.48      0.00
   -1   35    4     -1.99      0.00
    0   36    4     -0.13      0.00
  -30    4    4     -1.91      0.00
  -29    5    4      4.78      0.00
  -28    6    4     -0.07      0.00
  -27    7    4     -1.77      0.00
  -26    8    4      0.59      0.00
  -25    9    4     -0.28      0.00
  -24   10    4     -2.45      0.00
  -23   11    4      0.40      0.00
  -22   12    4     -0.82      0.00
  -21   13    4      0.41      0.00
  -20   14    4      0.65      0.00
   -4   30    4     -1.58      0.00
   -3   31    4      1.11      0.00
   -2   32    4     -0.97      0.00
   -1   33    4      0.44      0.00
    0   34    4      1.87      0.00
    1   35    4     -0.18      0.00
    2   36    4      0.67      0.00
    3   37    4     -2.44      0.00
  -30    2    4      1.27      0.00
  -29    3    4     -0.55      0.00
  -28    4    4     -1.79      0.00
  -27    5    4     -0.18      0.00
  -26    6    4     -0.42      0.00
  -25    7    4     -1.56      0.00
  -24    8    4     -0.95      0.00
  -23    9    4      0.68      0.00
  -22   10    4      0.29      0.00
  -21   11    4      2.60      0.00
  -20   12    4      1.85      0.00
  -19   13    4     -2.94      0.00
   -6   26    4     -2.04      0.00
   -5   27    4     -0.28      0.00
   -4   28    4      0.68      0.00
   -3   29    4     -0.24      0.00
   -2   30    4     -0.71      0.00
   -1   31    4      0.26      0.00
    0   32    4      0.67      0.00
    1   33    4     -1.64      0.00
    2   34    4      0.18      0.00
    3   35    4     -0.86      0.00
    4   36    4      1.06      0.00
    5   37    4     -0.48      0.00
  -32    2    4      2.17      0.00
  -31    1    4     -1.98      0.00
  -30    0    4      1.57      0.00
  -29    1    4     -1.47      0.00
  -28    2    4      0.20      0.00
  -27    3    4      2.95      0.00
  -26    4    4     -2.28      0.00
  -25    5    4      1.32      0.00
  -24    6    4      1.56      0.00
  -23    7    4     -0.69      0.00
  -22    8    4      1.20      0.00
  -21    9    4      1.45      0.00
  -20   10    4     -0.68      0.00
  -19   11    4     -0.89      0.00
  -18   12    4     -0.12      0.00
  -17   13    4     -2.23      0.00
   -6   24    4     -0.53      0.00
   -5   25    4     -0.13      0.00
   -4   26    4     -0.58      0.00
   -3   27    4     -0.60      0.00
   -2   28    4      0.32      0.00
   -1   29    4      0.43      0.00
    0   30    4      0.44      0.00
    1   31    4     -0.88      0.00
    2   32    4      1.60      0.00
    3   33    4      2.20      0.00
    4   34    4     -2.85      0.00
    5   35    4      0.48      0.00
    6   36    4      1.11      0.00
    7   37    4     -2.23      0.00
  -32    4    4      0.01      0.00
  -31    3    4     -0.09      0.00
  -28    0    4      2.49      0.00
  -27    1    4     -1.15      0.00
  -26    2    4     -0.15      0.00
  -25    3    4     -0.74      0.00
  -24    4    4      0.80      0.00
  -23    5    4     -0.62      0.00
  -22    6    4      1.85      0.00
  -21    7    4     -0.06      0.00
  -20    8    4     -0.95      0.00
  -19    9    4     -2.39      0.00
  -18   10    4     -2.91      0.00
  -17   11    4      1.29      0.00
  -16   12    4      4.01      0.00
  -15   13    4      1.04      0.00
   -6   22    4      1.26      0.00
   -5   23    4     -1.87      0.00
   -4   24    4     -0.51      0.00
   -3   25    4     -0.48      0.00
   -2   26    4     -0.60      0.00
   -1   27    4      0.22      0.00
    0   28    4     -0.23      0.00
    1   29    4     -0.48      0.00
    2   30    4      0.00      0.00
    3   31    4     -1.80      0.00
    4   32    4      0.06      0.00
    5   33    4      0.72      0.00
    6   34    4      0.50      0.00
    7   35    4      0.09      0.00
    8   36    4      1.08      0.00
    9   37    4     -0.08      0.00
  -32    6    4      0.48      0.00
  -31    5    4     -3.36      0.00
  -26    0    4     -1.15      0.00
  -25    1    4      0.51      0.00
  -24    2    4      0.60      0.00
  -23    3    4     -0.72      0.00
  -22    4    4     -0.57      0.00
  -21    5    4      0.38      0.00
  -20    6    4     -1.32      0.00
  -19    7    4     -1.20      0.00
  -18    8    4     -0.26      0.00
  -17    9    4      4.95      0.00
  -16   10    4      0.98      0.00
  -15   11    4     -1.33      0.00
  -14   12    4     -2.43      0.00
  -13   13    4     -1.04      0.00
   -7   19    4     -2.85      0.00
   -6   20    4     -5.83      0.00
   -5   21    4     -3.04      0.00
   -4   22    4      0.14      0.00
   -3   23    4     -0.79      0.00
   -2   24    4      3.37      0.00
   -1   25    4      1.40      0.00
    0   26    4      0.78      0.00
    1   27    4     -0.57      0.00
    2   28    4      0.14      0.00
    3   29    4      0.82      0.00
    4   30    4      0.59      0.00
    5   31    4     -1.42      0.00
    6   32    4      0.26      0.00
    7   33    4      1.35      0.00
    8   34    4     -1.79      0.00
    9   35    4      2.29      0.00
   10   36    4     -0.80      0.00
  -31    7    4      1.76      0.00
  -24    0    4      1.29      0.00
  -23    1    4      0.13      0.00
  -22    2    4     -0.60      0.00
  -21    3    4      0.69      0.00
  -20    4    4     -0.78      0.00
  -19    5    4      0.32      0.00
  -18    6    4     -2.90      0.00
  -17    7    4      4.02      0.00
  -16    8    4      2.97      0.00
  -15    9    4     -2.97      0.00
  -14   10    4     -3.51      0.00
  -13   11    4      3.34      0.00
  -12   12    4     -2.06      0.00
  -11   13    4     -3.07      0.00
   -7   17    4     -6.00      0.00
   -6   18    4     -0.24      0.00
   -5   19    4      2.55      0.00
   -4   20    4      2.22      0.00
   -3   21    4      1.60      0.00
   -2   22    4      0.30      0.00
   -1   23    4     -1.33      0.00
    0   24    4     -1.44      0.00
    1   25    4     -0.91      0.00
    2   26    4      0.38      0.00
    3   27    4     -0.29      0.00
    4   28    4      0.10      0.00
    5   29    4     -0.29      0.00
    6   30    4     -0.35      0.00
    7   31    4      0.48      0.00
    8   32    4     -1.46      0.00
    9   33    4     -1.11      0.00
   10   34    4      0.34      0.00
   11   35    4      0.46      0.00
  -31    9    4     -2.07      0.00
  -29    7    4     -0.23      0.00
  -22    0    4     -0.54      0.00
  -21    1    4     -1.06      0.00
  -20    2    4     -0.92      0.00
  -19    3    4      2.97      0.00
  -18    4    4     -2.44      0.00
  -17    5    4      4.29      0.00
  -16    6    4      3.95      0.00
  -15    7    4     -4.35      0.00
  -14    8    4     -8.94      0.00
  -13    9    4      0.63      0.00
  -12   10    4      5.83      0.00
  -11   11    4      0.69      0.00
  -10   12    4      7.08      0.00
   -9   13    4     -0.13      0.00
   -8   14    4     -4.71      0.00
   -7   15    4    -11.87      0.00
   -6   16    4      1.15      0.00
   -5   17    4     -3.78      0.00
   -4   18    4      7.22      0.00
   -3   19    4      4.16      0.00
   -2   20    4     -5.51      0.00
   -1   21    4      1.76      0.00
    0   22    4      1.91      0.00
    1   23    4     -1.83      0.00
    2   24    4     -1.25      0.00
    3   25    4      1.75      0.00
    4   26    4      0.85      0.00
    5   27    4     -2.20      0.00
    6   28    4      1.04      0.00
    7   29    4      1.50      0.00
    8   30    4      1.70      0.00
    9   31    4     -0.84      0.00
   10   32    4     -0.81      0.00
   11   33    4      1.13      0.00
   12   34    4     -2.68      0.00
   13   35    4      0.28      0.00
  -30   10    4      3.11      0.00
  -20    0    4      0.50      0.00
  -19    1    4      2.85      0.00
  -18    2    4      0.03      0.00
  -17    3    4      0.11      0.00
  -16    4    4      0.32      0.00
  -15    5    4     -5.89      0.00
  -14    6    4     -6.25      0.00
  -13    7    4      2.98      0.00
  -12    8    4     11.70      0.00
  -11    9    4     -0.35      0.00
  -10   10    4     -5.05      0.00
   -9   11    4      4.75      0.00
   -8   12    4     -0.93      0.00
   -7   13    4     -6.19      0.00
   -6   14    4      1.80      0.00
   -5   15    4      4.73      0.00
   -4   16    4      9.39      0.00
   -3   17    4      2.54      0.00
   -2   18    4    -13.73      0.00
   -1   19    4      1.52      0.00
    0   20    4      0.68      0.00
    1   21    4     -0.77      0.00
    2   22    4     -1.64      0.00
    3   23    4      4.07      0.00
    4   24    4      0.07      0.00
    5   25    4     -3.04      0.00
    6   26    4      1.63      0.00
    7   27    4      1.75      0.00
    8   28    4     -3.14      0.00
    9   29    4     -1.05      0.00
   10   30    4      0.80      0.00
   11   31    4      0.71      0.00
   12   32    4      0.80      0.00
   13   33    4      1.04      0.00
   14   34    4      0.81      0.00
  -18    0    4     -1.02      0.00
  -17    1    4     -4.30      0.00
  -16    2    4      0.38      0.00
  -15    3    4     -2.67      0.00
  -14    4    4     -0.17      0.00
  -13    5    4      5.51      0.00
  -12    6    4     15.30      0.00
  -11    7    4     -2.20      0.00
  -10    8    4     -8.97      0.00
   -9    9    4     -5.99      0.00
   -8   10    4    -14.45      0.00
   -7   11    4     -6.77      0.00
   -6   12    4     13.35      0.00
   -5   13    4      6.74      0.00
   -4   14    4     -1.01      0.00
   -3   15    4      1.11      0.00
   -2   16    4     -3.01      0.00
   -1   17    4     -9.95      0.00
    0   18    4      8.75      0.00
    1   19    4      2.06      0.00
    2   20    4     -1.79      0.00
    3   21    4      1.24      0.00
    4   22    4     -2.56      0.00
    5   23    4      0.08      0.00
    6   24    4      2.23      0.00
    7   25    4     -2.88      0.00
    8   26    4      0.62      0.00
    9   27    4     -0.07      0.00
   10   28    4      1.88      0.00
   11   29    4     -0.34      0.00
   12   30    4     -0.11      0.00
   13   31    4      0.17      0.00
   14   32    4     -0.20      0.00
   15   33    4     -0.79      0.00
  -29   13    4      0.81      0.00
  -28   12    4      0.73      0.00
  -16    0    4      0.65      0.00
  -15    1    4      0.01      0.00
  -14    2    4      2.67      0.00
  -13    3    4      4.31      0.00
  -12    4    4      1.43      0.00
  -11    5    4     -8.44      0.00
  -10    6    4     -7.51      0.00
   -9    7    4     -4.97      0.00
   -8    8    4      3.03      0.00
   -7    9    4     12.59      0.00
   -6   10    4     21.39      0.00
   -5   11    4      5.75      0.00
   -4   12    4    -14.44      0.00
   -3   13    4      3.48      0.00
   -2   14    4     -9.02      0.00
   -1   15    4     -9.19      0.00
    0   16    4      7.44      0.00
    1   17    4      8.72      0.00
    2   18    4     -2.25      0.00
    3   19    4     -4.82      0.00
    4   20    4      5.32      0.00
    5   21    4     -0.77      0.00
    6   22    4     -1.53      0.00
    7   23    4      0.79      0.00
    8   24    4      1.59      0.00
    9   25    4     -1.29      0.00
   10   26    4      1.51      0.00
   11   27    4     -2.73      0.00
   12   28    4      0.15      0.00
   13   29    4      0.59      0.00
   14   30    4     -2.82      0.00
   15   31    4      0.49      0.00
   16   32    4      1.29      0.00
  -14    0    4      4.98      0.00
  -13    1    4     11.96      0.00
  -12    2    4     -5.88      0.00
  -11    3    4    -10.47      0.00
  -10    4    4     -6.08      0.00
   -9    5    4      9.04      0.00
   -8    6    4    -11.22      0.00
   -7    7    4     20.64      0.00
   -6    8    4      5.54      0.00
   -5    9    4     10.39      0.00
   -4   10    4    -57.73      0.00
   -3   11    4     -7.31      0.00
   -2   12    4     17.11      0.00
   -1   13    4     -0.58      0.00
    0   14    4      5.08      0.00
    1   15    4      7.44      0.00
    2   16    4     -1.61      0.00
    3   17    4     -4.00      0.00
    4   18    4     -2.74      0.00
    5   19    4     -2.34      0.00
    6   20    4      2.34      0.00
    7   21    4     -0.64      0.00
    8   22    4      0.36      0.00
    9   23    4     -2.23      0.00
   10   24    4      3.12      0.00
   11   25    4     -1.72      0.00
   12   26    4     -1.55      0.00
   13   27    4      4.09      0.00
   14   28    4     -0.80      0.00
   15   29    4      0.80      0.00
   16   30    4      0.76      0.00
   17   31    4     -1.58      0.00
  -27   15    4      1.89      0.00
  -26   14    4      3.10      0.00
  -12    0    4    -24.49      0.00
  -11    1    4    -17.36      0.00
  -10    2    4     -1.98      0.00
   -9    3    4     33.69      0.00
   -8    4    4    -14.68      0.00
   -7    5    4     14.93      0.00
   -6    6    4     11.26      0.00
   -5    7    4    -16.58      0.00
   -4    8    4    -30.97      0.00
   -3    9    4     19.63      0.00
   -2   10    4     42.46      0.00
   -1   11    4      0.83      0.00
    0   12    4    -11.03      0.00
    1   13    4     -1.74      0.00
    2   14    4      4.70      0.00
    3   15    4     -8.41      0.00
    4   16    4     -6.81      0.00
    5   17    4      6.70      0.00
    6   18    4      2.67      0.00
    7   19    4      2.71      0.00
    8   20    4     -3.74      0.00
    9   21    4      3.26      0.00
   10   22    4     -2.31      0.00
   11   23    4      1.94      0.00
   12   24    4     -1.68      0.00
   13   25    4      1.54      0.00
   14   26    4     -1.25      0.00
   15   27    4     -0.77      0.00
   16   28    4     -0.38      0.00
   17   29    4      0.23      0.00
  -27   17    4     -0.54      0.00
  -26   16    4     -0.92      0.00
  -25   15    4     -0.71      0.00
  -10    0    4     14.53      0.00
   -9    1    4     54.39      0.00
   -8    2    4     -9.05      0.00
   -7    3    4    -23.86      0.00
   -6    4    4     -5.58      0.00
   -5    5    4      3.90      0.00
   -4    6    4    -28.63      0.00
   -3    7    4     -5.90      0.00
   -2    8    4     23.33      0.00
   -1    9    4     25.56      0.00
    0   10    4    -36.87      0.00
    1   11    4      0.48      0.00
    2   12    4      5.12      0.00
    3   13    4      0.09      0.00
    4   14    4     -3.01      0.00
    5   15    4      3.71      0.00
    6   16    4      1.61      0.00
    7   17    4      2.90      0.00
    8   18    4     -2.64      0.00
    9   19    4     -6.11      0.00
   10   20    4      5.90      0.00
   11   21    4     -1.92      0.00
   12   22    4     -0.41      0.00
   13   23    4     -2.06      0.00
   14   24    4      4.06      0.00
   15   25    4      0.01      0.00
   16   26    4     -0.11      0.00
   17   27    4     -4.27      0.00
   18   28    4      5.03      0.00
  -26   18    4      0.98      0.00
  -25   17    4     -2.12      0.00
  -24   16    4      3.37      0.00
  -23   15    4      4.07      0.00
   -8    0    4    -27.63      0.00
   -7    1    4    -76.03      0.00
   -6    2    4     22.50      0.00
   -5    3    4     18.92      0.00
   -4    4    4    -15.82      0.00
   -3    5    4      3.62      0.00
   -2    6    4     41.28      0.00
   -1    7    4    -13.40      0.00
    0    8    4    -26.48      0.00
    1    9    4    -29.05      0.00
    2   10    4     13.73      0.00
    3   11    4     16.12      0.00
    4   12    4     -8.19      0.00
    5   13    4    -12.49      0.00
    6   14    4     15.69      0.00
    7   15    4      7.86      0.00
    8   16    4    -17.76      0.00
    9   17    4      3.53      0.00
   10   18    4      2.70      0.00
   11   19    4      1.01      0.00
   12   20    4     -3.28      0.00
   13   21    4      1.51      0.00
   14   22    4      1.14      0.00
   15   23    4     -1.78      0.00
   16   24    4      0.34      0.00
   17   25    4     -1.05      0.00
   18   26    4      1.91      0.00
   19   27    4     -0.03      0.00
  -25   19    4      0.65      0.00
  -24   18    4     -1.07      0.00
  -23   17    4     -0.46      0.00
  -22   16    4     -4.35      0.00
  -21   15    4      1.23      0.00
   -6    0    4     43.86      0.00
   -5    1    4     52.68      0.00
   -4    2    4     -5.72      0.00
   -3    3    4      7.40      0.00
   -2    4    4     58.24      0.00
   -1    5    4    -24.75      0.00
    0    6    4     15.21      0.00
    1    7    4      1.66      0.00
    2    8    4      3.39      0.00
    3    9    4     10.98      0.00
    4   10    4     -7.23      0.00
    5   11    4      9.96      0.00
    6   12    4     -0.57      0.00
    7   13    4     -3.26      0.00
    8   14    4     -0.77      0.00
    9   15    4     -4.66      0.00
   10   16    4      1.73      0.00
   11   17    4      2.51      0.00
   12   18    4      0.83      0.00
   13   19    4      0.19      0.00
   14   20    4     -2.47      0.00
   15   21    4      3.62      0.00
   16   22    4     -1.77      0.00
   17   23    4     -1.97      0.00
   18   24    4      2.05      0.00
   19   25    4     -0.62      0.00
   20   26    4     -1.02      0.00
  -24   20    4      0.01      0.00
  -23   19    4      1.46      0.00
  -22   18    4     -1.32      0.00
  -21   17    4     -0.16      0.00
  -20   16    4      1.41      0.00
  -19   15    4      2.67      0.00
  -18   14    4      1.83      0.00
   -4    0    4    -37.76      0.00
   -3    1    4    -46.57      0.00
   -2    2    4    -63.68      0.00
   -1    3    4    -38.39      0.00
    0    4    4    -59.03      0.00
    1    5    4     18.59      0.00
    2    6    4    -10.01      0.00
    3    7    4      1.00      0.00
    4    8    4     46.49      0.00
    5    9    4    -23.53      0.00
    6   10    4     -7.67      0.00
    7   11    4     -4.77      0.00
    8   12    4      4.81      0.00
    9   13    4     -4.55      0.00
   10   14    4      1.10      0.00
   11   15    4      6.82      0.00
   12   16    4      2.69      0.00
   13   17    4     -6.26      0.00
   14   18    4      0.80      0.00
   15   19    4      0.76      0.00
   16   20    4      0.35      0.00
   17   21    4     -2.59      0.00
   18   22    4      1.06      0.00
   19   23    4      0.76      0.00
   20   24    4      3.78      0.00
   21   25    4     -1.69      0.00
  -24   22    4     -1.66      0.00
  -23   21    4      1.74      0.00
  -22   20    4      0.35      0.00
  -21   19    4     -0.05      0.00
  -20   18    4     -0.03      0.00
  -19   17    4      0.73      0.00
  -18   16    4      0.02      0.00
  -17   15    4     -2.84      0.00
  -16   14    4     -2.41      0.00
   -2    0    4    177.61      0.00
   -1    1    4    -13.68      0.00
    0    2    4    103.13      0.00
    1    3    4     35.47      0.00
    2    4    4    -16.41      0.00
    3    5    4    -20.54      0.00
    4    6    4     11.10      0.00
    5    7    4    -11.52      0.00
    6    8    4    -13.00      0.00
    7    9    4     -0.36      0.00
    8   10    4      4.26      0.00
    9   11    4      6.81      0.00
   10   12    4      4.61      0.00
   11   13    4     -3.42      0.00
   12   14    4     -3.86      0.00
   13   15    4      3.09      0.00
   14   16    4     -6.28      0.00
   15   17    4     -1.27      0.00
   16   18    4      4.12      0.00
   17   19    4      2.63      0.00
   18   20    4     -2.89      0.00
   19   21    4      0.87      0.00
   20   22    4     -0.37      0.00
   21   23    4     -2.37      0.00
   22   24    4      0.17      0.00
  -23   23    4      0.71      0.00
  -22   22    4      2.34      0.00
  -21   21    4     -5.67      0.00
  -20   20    4      0.90      0.00
  -19   19    4      2.54      0.00
  -18   18    4     -0.42      0.00
  -17   17    4     -1.50      0.00
  -16   16    4     -2.03      0.00
  -15   15    4      0.94      0.00
  -14   14    4      5.90      0.00
    0    0    4   -232.47      0.00
    1    1    4     65.69      0.00
    2    2    4     19.90      0.00
    3    3    4    -58.16      0.00
    4    4    4     56.62      0.00
    5    5    4     50.84      0.00
    6    6    4    -66.31      0.00
    7    7    4    -10.62      0.00
    8    8    4     31.29      0.00
    9    9    4      5.05      0.00
   10   10    4     -5.12      0.00
   11   11    4    -11.02      0.00
   12   12    4      4.42      0.00
   13   13    4      3.30      0.00
   14   14    4     -2.83      0.00
   15   15    4     -1.17      0.00
   16   16    4      5.96      0.00
   17   17    4      1.05      0.00
   18   18    4     -7.30      0.00
   19   19    4      3.10      0.00
   20   20    4      0.47      0.00
   21   21    4      1.08      0.00
   22   22    4     -1.37      0.00
   23   23    4     -0.79      0.00
  -22   24    4      1.85      0.00
  -21   23    4     -0.62      0.00
  -20   22    4     -0.69      0.00
  -19   21    4      2.19      0.00
  -18   20    4     -2.39      0.00
  -17   19    4      2.08      0.00
  -16   18    4     -3.39      0.00
  -15   17    4      2.35      0.00
  -14   16    4      4.29      0.00
  -13   15    4     -0.62      0.00
  -12   14    4     -7.22      0.00
    2    0    4     70.33      0.00
    3    1    4    -66.24      0.00
    4    2    4     26.81      0.00
    5    3    4    -74.76      0.00
    6    4    4     -0.39      0.00
    7    5    4     16.03      0.00
    8    6    4     19.91      0.00
    9    7    4      7.06      0.00
   10    8    4     -3.84      0.00
   11    9    4    -13.88      0.00
   12   10    4     -1.33      0.00
   13   11    4      8.38      0.00
   14   12    4      1.49      0.00
   15   13    4     -7.38      0.00
   16   14    4      1.49      0.00
   17   15    4      6.43      0.00
   18   16    4     -4.03      0.00
   19   17    4      0.75      0.00
   20   18    4     -0.84      0.00
   21   19    4      0.46      0.00
   22   20    4      2.12      0.00
   23   21    4     -3.22      0.00
  -21   25    4      0.29      0.00
  -20   24    4     -1.15      0.00
  -19   23    4     -0.23      0.00
  -18   22    4      1.53      0.00
  -17   21    4      0.55      0.00
  -16   20    4     -1.09      0.00
  -15   19    4     -0.80      0.00
  -14   18    4      4.20      0.00
  -13   17    4     -0.01      0.00
  -12   16    4     -6.29      0.00
  -11   15    4      1.07      0.00
  -10   14    4      5.11      0.00
    4    0    4    -84.55      0.00
    5    1    4     49.70      0.00
    6    2    4     70.86      0.00
    7    3    4    -37.63      0.00
    8    4    4      1.22      0.00
    9    5    4     24.77      0.00
   10    6    4    -27.32      0.00
   11    7    4     -7.61      0.00
   12    8    4      0.45      0.00
   13    9    4     10.92      0.00
   14   10    4      2.83      0.00
   15   11    4     -8.43      0.00
   16   12    4      1.83      0.00
   17   13    4      4.51      0.00
   18   14    4     -3.10      0.00
   19   15    4     -3.43      0.00
   20   16    4      0.02      0.00
   21   17    4      0.22      0.00
   22   18    4      2.03      0.00
   23   19    4     -3.40      0.00
   24   20    4      4.47      0.00
  -20   26    4     -3.57      0.00
  -19   25    4      1.59      0.00
  -18   24    4     -1.94      0.00
  -17   23    4      2.07      0.00
  -16   22    4      0.05      0.00
  -15   21    4     -3.54      0.00
  -14   20    4      1.21      0.00
  -13   19    4      1.32      0.00
  -12   18    4     -3.47      0.00
  -11   17    4     -6.77      0.00
  -10   16    4      9.98      0.00
   -9   15    4      2.82      0.00
    6    0    4      4.90      0.00
    7    1    4      1.11      0.00
    8    2    4      1.02      0.00
    9    3    4    -13.37      0.00
   10    4    4     -7.93      0.00
   11    5    4     -2.96      0.00
   12    6    4     12.31      0.00
   13    7    4      0.03      0.00
   14    8    4      2.12      0.00
   15    9    4      1.54      0.00
   16   10    4     -6.23      0.00
   17   11    4      3.38      0.00
   18   12    4      1.97      0.00
   19   13    4     -3.28      0.00
   20   14    4      0.36      0.00
   21   15    4      1.08      0.00
   22   16    4      3.54      0.00
   23   17    4     -1.63      0.00
   24   18    4      0.33      0.00
   25   19    4     -6.27      0.00
  -19   27    4      3.04      0.00
  -18   26    4     -0.23      0.00
  -17   25    4      4.16      0.00
  -16   24    4     -1.11      0.00
  -15   23    4     -1.81      0.00
  -14   22    4      0.08      0.00
  -13   21    4      2.75      0.00
  -12   20    4     -2.70      0.00
  -11   19    4      5.01      0.00
  -10   18    4     -1.20      0.00
   -9   17    4      4.79      0.00
   -8   16    4      1.92      0.00
    8    0    4    -64.03      0.00
    9    1    4     -8.93      0.00
   10    2    4     19.68      0.00
   11    3    4      4.22      0.00
   12    4    4      0.80      0.00
   13    5    4     -2.71      0.00
   14    6    4      7.42      0.00
   15    7    4     -2.21      0.00
   16    8    4    -11.18      0.00
   17    9    4      3.95      0.00
   18   10    4      3.24      0.00
   19   11    4     -1.22      0.00
   20   12    4     -0.73      0.00
   21   13    4      0.32      0.00
   22   14    4      0.84      0.00
   23   15    4     -0.40      0.00
   24   16    4     -0.16      0.00
   25   17    4     -2.33      0.00
   26   18    4      6.27      0.00
  -19   29    4      0.55      0.00
  -18   28    4     -1.83      0.00
  -17   27    4     -3.36      0.00
  -16   26    4     -1.62      0.00
  -15   25    4      0.20      0.00
  -14   24    4     -1.57      0.00
  -13   23    4      1.23      0.00
  -12   22    4      4.33      0.00
  -11   21    4     -6.50      0.00
  -10   20    4      1.82      0.00
   -9   19    4     -0.84      0.00
   -8   18    4      0.18      0.00
   10    0    4     34.35      0.00
   11    1    4      5.53      0.00
   12    2    4     -3.37      0.00
   13    3    4     -3.89      0.00
   14    4    4     -0.58      0.00
   15    5    4     -1.51      0.00
   16    6    4     -0.98      0.00
   17    7    4     -1.86      0.00
   18    8    4      4.46      0.00
   19    9    4      1.12      0.00
   20   10    4     -2.47      0.00
   21   11    4     -1.73      0.00
   22   12    4      2.57      0.00
   23   13    4      0.63      0.00
   24   14    4     -0.67      0.00
   25   15    4     -1.25      0.00
   26   16    4      1.05      0.00
  -18   30    4     -2.31      0.00
  -17   29    4      1.33      0.00
  -16   28    4      3.21      0.00
  -15   27    4      3.06      0.00
  -14   26    4     -1.97      0.00
  -13   25    4     -0.68      0.00
  -12   24    4      2.43      0.00
  -11   23    4      0.44      0.00
  -10   22    4     -3.03      0.00
   -9   21    4      1.88      0.00
   -8   20    4      2.19      0.00
   12    0    4    -13.91      0.00
   13    1    4     -5.19      0.00
   14    2    4      1.02      0.00
   15    3    4      2.75      0.00
   16    4    4     -0.22      0.00
   17    5    4     -1.65      0.00
   18    6    4      1.28      0.00
   19    7    4      3.68      0.00
   20    8    4     -2.91      0.00
   21    9    4     -0.49      0.00
   22   10    4     -0.32      0.00
   23   11    4      2.07      0.00
   24   12    4     -0.78      0.00
   25   13    4     -3.42      0.00
   26   14    4      2.73      0.00
   27   15    4      0.20      0.00
  -17   31    4     -0.89      0.00
  -16   30    4      1.55      0.00
  -15   29    4      1.45      0.00
  -14   28    4     -4.76      0.00
  -13   27    4      0.49      0.00
  -12   26    4      3.97      0.00
  -11   25    4     -1.83      0.00
  -10   24    4     -0.49      0.00
   -9   23    4     -2.89      0.00
   -8   22    4      0.64      0.00
   -7   21    4      4.05      0.00
   14    0    4     -1.86      0.00
   15    1    4      1.63      0.00
   16    2    4      2.31      0.00
   17    3    4     -1.30      0.00
   18    4    4      1.25      0.00
   19    5    4      3.47      0.00
   20    6    4     -2.35      0.00
   21    7    4     -0.98      0.00
   22    8    4     -1.44      0.00
   23    9    4      2.59      0.00
   24   10    4     -1.30      0.00
   25   11    4     -1.03      0.00
   26   12    4      2.46      0.00
   27   13    4     -1.87      0.00
   28   14    4      0.04      0.00
  -16   32    4      0.76      0.00
  -15   31    4     -0.95      0.00
  -14   30    4     -0.44      0.00
  -13   29    4     -1.77      0.00
  -12   28    4      1.41      0.00
  -11   27    4     -3.00      0.00
  -10   26    4      0.44      0.00
   -9   25    4     -1.29      0.00
   -8   24    4      1.23      0.00
   -7   23    4      1.61      0.00
   16    0    4      6.25      0.00
   17    1    4      0.05      0.00
   18    2    4     -0.75      0.00
   19    3    4     -2.42      0.00
   20    4    4     -1.50      0.00
   21    5    4      0.74      0.00
   22    6    4     -0.59      0.00
   23    7    4     -0.47      0.00
   24    8    4      2.56      0.00
   25    9    4     -1.22      0.00
   26   10    4      0.52      0.00
   27   11    4     -0.31      0.00
   28   12    4      0.28      0.00
  -15   33    4     -0.91      0.00
  -14   32    4      3.41      0.00
  -13   31    4     -4.64      0.00
  -12   30    4      5.28      0.00
  -11   29    4     -1.22      0.00
  -10   28    4      2.68      0.00
   -9   27    4     -0.62      0.00
   -8   26    4      0.42      0.00
   -7   25    4      2.49      0.00
   18    0    4     -3.97      0.00
   19    1    4     -3.44      0.00
   20    2    4      1.17      0.00
   21    3    4      1.76      0.00
   22    4    4     -0.66      0.00
   23    5    4      0.90      0.00
   24    6    4      1.19      0.00
   25    7    4     -0.47      0.00
   26    8    4      1.44      0.00
   27    9    4     -0.24      0.00
   28   10    4     -0.62      0.00
   29   11    4     -1.11      0.00
  -14   34    4      3.20      0.00
  -13   33    4     -3.14      0.00
  -12   32    4     -1.03      0.00
  -11   31    4      0.41      0.00
  -10   30    4      0.37      0.00
   -9   29    4     -1.61      0.00
   -8   28    4     -0.02      0.00
   -7   27    4      0.79      0.00
   20    0    4      1.26      0.00
   21    1    4      5.09      0.00
   22    2    4     -0.29      0.00
   23    3    4     -1.95      0.00
   24    4    4      0.09      0.00
   25    5    4     -0.28      0.00
   26    6    4     -1.18      0.00
   27    7    4     -2.17      0.00
   28    8    4     -1.14      0.00
   29    9    4      0.34      0.00
  -13   35    4     -1.81      0.00
  -12   34    4      0.69      0.00
  -11   33    4      1.75      0.00
  -10   32    4      1.19      0.00
   -9   31    4     -0.76      0.00
   -8   30    4      0.97      0.00
   -7   29    4     -3.73      0.00
   -6   28    4      2.16      0.00
   22    0    4     -0.35      0.00
   23    1    4     -2.49      0.00
   24    2    4     -0.87      0.00
   25    3    4      1.23      0.00
   26    4    4     -0.31      0.00
   27    5    4      1.07      0.00
   28    6    4      1.58      0.00
   29    7    4      0.92      0.00
   30    8    4      2.69      0.00
  -12   36    4     -0.86      0.00
  -11   35    4      0.69      0.00
  -10   34    4      1.03      0.00
   -9   33    4     -1.67      0.00
   -8   32    4     -1.13      0.00
   -7   31    4      0.18      0.00
   -6   30    4      1.44      0.00
   -5   29    4      1.06      0.00
   24    0    4     -1.02      0.00
   25    1    4      0.19      0.00
   26    2    4      1.49      0.00
   27    3    4     -0.21      0.00
   28    4    4     -0.35      0.00
   29    5    4     -1.33      0.00
   30    6    4     -0.86      0.00
  -10   36    4     -0.52      0.00
   -9   35    4      0.44      0.00
   -8   34    4     -1.56      0.00
   -7   33    4     -0.55      0.00
   -6   32    4      1.69      0.00
   26    0    4      1.21      0.00
   27    1    4      1.37      0.00
   28    2    4     -0.75      0.00
   29    3    4     -0.42      0.00
   30    4    4     -0.08      0.00
   31    5    4     -0.44      0.00
   -9   37    4      0.54      0.00
   -8   36    4      0.01      0.00
   -7   35    4      0.79      0.00
   -6   34    4      2.00      0.00
   -5   33    4      0.77      0.00
   28    0    4     -3.49      0.00
   29    1    4      0.11      0.00
   30    2    4      2.37      0.00
   31    3    4      0.82      0.00
   -7   37    4     -0.99      0.00
   -6   36    4      0.16      0.00
   -5   35    4     -2.74      0.00
   30    0    4      0.94      0.00
   31    1    4     -3.63      0.00
   32    2    4     -0.83      0.00
   -4   36    4      3.81      0.00
   -3   35    4     -0.80      0.00
   -4   38    4      0.20      0.00
   -3   37    4     -1.54      0.00
   -1   37    4     -2.31      0.00
  -28   12    5     -1.59      0.00
  -26   14    5     -2.65      0.00
  -27   11    5      1.50      0.00
  -26   12    5      1.75      0.00
  -25   13    5     -1.84      0.00
  -24   14    5      1.19      0.00
   -4   34    5      2.37      0.00
   -3   35    5     -1.97      0.00
  -29    7    5     -0.51      0.00
  -28    8    5     -0.48      0.00
  -27    9    5      2.21      0.00
  -26   10    5     -0.34      0.00
  -25   11    5     -0.46      0.00
  -24   12    5      2.54      0.00
  -23   13    5      0.94      0.00
  -22   14    5     -2.63      0.00
   -5   31    5      2.13      0.00
   -4   32    5     -1.30      0.00
   -3   33    5     -0.03      0.00
   -2   34    5      0.46      0.00
   -1   35    5     -1.55      0.00
    0   36    5     -0.72      0.00
  -31    3    5     -1.76      0.00
  -30    4    5      3.88      0.00
  -29    5    5     -1.53      0.00
  -28    6    5      0.68      0.00
  -27    7    5     -1.19      0.00
  -26    8    5      1.91      0.00
  -25    9    5     -0.17      0.00
  -24   10    5      0.26      0.00
  -23   11    5     -0.72      0.00
  -22   12    5     -0.37      0.00
  -21   13    5     -1.86      0.00
  -20   14    5     -0.70      0.00
   -5   29    5      2.17      0.00
   -4   30    5     -0.51      0.00
   -3   31    5     -0.77      0.00
   -2   32    5      0.27      0.00
   -1   33    5      0.89      0.00
    0   34    5      0.01      0.00
    1   35    5      0.14      0.00
    2   36    5      2.13      0.00
    3   37    5     -2.37      0.00
  -31    1    5     -1.88      0.00
  -30    2    5      0.99      0.00
  -29    3    5     -0.03      0.00
  -28    4    5     -2.02      0.00
  -27    5    5     -0.07      0.00
  -26    6    5      2.74      0.00
  -25    7    5     -0.65      0.00
  -24    8    5     -1.80      0.00
  -23    9    5     -0.33      0.00
  -22   10    5     -0.64      0.00
  -21   11    5     -1.07      0.00
  -20   12    5      2.04      0.00
  -19   13    5      2.67      0.00
  -18   14    5     -3.01      0.00
   -6   26    5     -0.04      0.00
   -5   27    5     -0.23      0.00
   -4   28    5      1.34      0.00
   -3   29    5     -0.19      0.00
   -2   30    5     -0.36      0.00
   -1   31    5      1.86      0.00
    0   32    5     -1.77      0.00
    1   33    5     -0.28      0.00
    2   34    5      1.07      0.00
    3   35    5     -2.00      0.00
    4   36    5      0.27      0.00
    5   37    5      1.28      0.00
  -29    1    5     -1.15      0.00
  -28    2    5      1.47      0.00
  -27    3    5      0.69      0.00
  -26    4    5      2.47      0.00
  -25    5    5     -2.08      0.00
  -24    6    5     -0.05      0.00
  -23    7    5      0.33      0.00
  -22    8    5     -0.41      0.00
  -21    9    5     -0.19      0.00
  -20   10    5      0.88      0.00
  -19   11    5      1.70      0.00
  -18   12    5      1.73      0.00
  -17   13    5      0.16      0.00
  -16   14    5     -3.50      0.00
   -7   23    5      0.03      0.00
   -6   24    5      0.75      0.00
   -5   25    5      0.96      0.00
   -4   26    5      0.37      0.00
   -3   27    5     -0.94      0.00
   -2   28    5     -0.19      0.00
   -1   29    5     -0.16      0.00
    0   30    5     -0.47      0.00
    1   31    5     -0.50      0.00
    2   32    5      2.26      0.00
    3   33    5     -1.50      0.00
    4   34    5      2.00      0.00
    5   35    5     -1.06      0.00
    6   36    5      1.17      0.00
    7   37    5     -0.91      0.00
  -27    1    5      0.80      0.00
  -26    2    5     -3.06      0.00
  -25    3    5      0.98      0.00
  -24    4    5     -0.92      0.00
  -23    5    5     -1.54      0.00
  -22    6    5      0.25      0.00
  -21    7    5      1.69      0.00
  -20    8    5      2.15      0.00
  -19    9    5     -1.50      0.00
  -18   10    5     -0.84      0.00
  -17   11    5     -2.02      0.00
  -16   12    5     -3.50      0.00
  -15   13    5      2.76      0.00
  -14   14    5      3.76      0.00
   -7   21    5      4.84      0.00
   -6   22    5      3.45      0.00
   -5   23    5     -0.72      0.00
   -4   24    5      0.44      0.00
   -3   25    5      0.34      0.00
   -2   26    5     -0.31      0.00
   -1   27    5     -2.15      0.00
    0   28    5      0.30      0.00
    1   29    5      0.28      0.00
    2   30    5      0.54      0.00
    3   31    5     -0.63      0.00
    4   32    5     -2.61      0.00
    5   33    5      1.40      0.00
    6   34    5      1.93      0.00
    7   35    5     -1.49      0.00
    8   36    5     -1.55      0.00
    9   37    5      3.80      0.00
  -32    6    5      4.97      0.00
  -31    5    5     -4.84      0.00
  -25    1    5     -0.52      0.00
  -24    2    5      0.77      0.00
  -23    3    5     -0.30      0.00
  -22    4    5     -0.01      0.00
  -21    5    5      0.77      0.00
  -20    6    5      2.18      0.00
  -19    7    5     -2.96      0.00
  -18    8    5     -0.41      0.00
  -17    9    5      1.31      0.00
  -16   10    5     -2.30      0.00
  -15   11    5      0.76      0.00
  -14   12    5      2.35      0.00
  -13   13    5      1.01      0.00
  -12   14    5     -3.81      0.00
  -11   15    5     -5.72      0.00
   -8   18    5      2.25      0.00
   -7   19    5      4.14      0.00
   -6   20    5      0.68      0.00
   -5   21    5     -5.07      0.00
   -4   22    5     -1.75      0.00
   -3   23    5     -0.99      0.00
   -2   24    5      0.08      0.00
   -1   25    5      1.37      0.00
    0   26    5      0.76      0.00
    1   27    5      1.80      0.00
    2   28    5      0.21      0.00
    3   29    5     -0.14      0.00
    4   30    5     -0.16      0.00
    5   31    5      0.96      0.00
    6   32    5      0.03      0.00
    7   33    5     -1.01      0.00
    8   34    5     -0.23      0.00
    9   35    5      1.73      0.00
   10   36    5      0.43      0.00
  -31    7    5     -0.65      0.00
  -30    6    5     -0.61      0.00
  -23    1    5      0.52      0.00
  -22    2    5     -0.88      0.00
  -21    3    5      2.81      0.00
  -20    4    5      0.53      0.00
  -19    5    5     -3.06      0.00
  -18    6    5     -1.53      0.00
  -17    7    5     -0.77      0.00
  -16    8    5      1.06      0.00
  -15    9    5      0.52      0.00
  -14   10    5      3.74      0.00
  -13   11    5      5.41      0.00
  -12   12    5     -5.10      0.00
  -11   13    5     -6.76      0.00
  -10   14    5      1.04      0.00
   -9   15    5      1.52      0.00
   -8   16    5      1.75      0.00
   -7   17    5      2.81      0.00
   -6   18    5      2.27      0.00
   -5   19    5     -0.07      0.00
   -4   20    5     -2.60      0.00
   -3   21    5     -0.08      0.00
   -2   22    5      1.83      0.00
   -1   23    5     -0.08      0.00
    0   24    5     -1.43      0.00
    1   25    5     -1.87      0.00
    2   26    5      1.06      0.00
    3   27    5     -0.76      0.00
    4   28    5     -1.01      0.00
    5   29    5      0.36      0.00
    6   30    5      0.49      0.00
    7   31    5     -2.04      0.00
    8   32    5     -0.38      0.00
    9   33    5     -1.14      0.00
   10   34    5      0.02      0.00
   11   35    5     -1.01      0.00
   12   36    5      0.40      0.00
  -30    8    5      2.56      0.00
  -21    1    5      1.72      0.00
  -20    2    5     -0.82      0.00
  -19    3    5     -3.59      0.00
  -18    4    5     -1.76      0.00
  -17    5    5      5.03      0.00
  -16    6    5      5.23      0.00
  -15    7    5     -2.93      0.00
  -14    8    5      1.96      0.00
  -13    9    5      0.93      0.00
  -12   10    5     -8.01      0.00
  -11   11    5     -9.20      0.00
  -10   12    5     10.54      0.00
   -9   13    5     11.42      0.00
   -8   14    5     -4.54      0.00
   -7   15    5     -4.46      0.00
   -6   16    5     -0.64      0.00
   -5   17    5     -5.18      0.00
   -4   18    5     -4.71      0.00
   -3   19    5      1.63      0.00
   -2   20    5      3.28      0.00
   -1   21    5      1.92      0.00
    0   22    5      1.01      0.00
    1   23    5      0.12      0.00
    2   24    5      0.50      0.00
    3   25    5     -0.33      0.00
    4   26    5     -0.75      0.00
    5   27    5      2.10      0.00
    6   28    5     -1.39      0.00
    7   29    5      1.03      0.00
    8   30    5      2.26      0.00
    9   31    5      0.80      0.00
   10   32    5      3.35      0.00
   11   33    5     -2.10      0.00
   12   34    5     -0.63      0.00
  -30   10    5      1.60      0.00
  -29    9    5     -2.69      0.00
  -19    1    5     -1.42      0.00
  -18    2    5     -0.22      0.00
  -17    3    5      5.12      0.00
  -16    4    5      3.85      0.00
  -15    5    5     -6.60      0.00
  -14    6    5     -3.98      0.00
  -13    7    5      0.37      0.00
  -12    8    5     -4.01      0.00
  -11    9    5     -8.74      0.00
  -10   10    5     11.24      0.00
   -9   11    5      9.26      0.00
   -8   12    5     -3.29      0.00
   -7   13    5     -2.85      0.00
   -6   14    5     -0.70      0.00
   -5   15    5     -5.65      0.00
   -4   16    5      6.84      0.00
   -3   17    5      2.38      0.00
   -2   18    5      1.22      0.00
   -1   19    5     -0.96      0.00
    0   20    5     -0.69      0.00
    1   21    5     -3.19      0.00
    2   22    5     -1.41      0.00
    3   23    5      1.84      0.00
    4   24    5     -0.34      0.00
    5   25    5      0.06      0.00
    6   26    5     -1.48      0.00
    7   27    5      1.04      0.00
    8   28    5     -0.70      0.00
    9   29    5     -0.93      0.00
   10   30    5     -2.45      0.00
   11   31    5      0.02      0.00
   12   32    5     -0.11      0.00
   13   33    5      2.18      0.00
  -29   11    5     -1.03      0.00
  -28   10    5     -1.96      0.00
  -17    1    5      0.43      0.00
  -16    2    5      2.30      0.00
  -15    3    5     -4.84      0.00
  -14    4    5     -5.74      0.00
  -13    5    5      2.34      0.00
  -12    6    5      7.28      0.00
  -11    7    5      0.69      0.00
  -10    8    5     13.32      0.00
   -9    9    5     10.71      0.00
   -8   10    5    -15.23      0.00
   -7   11    5    -14.64      0.00
   -6   12    5     -2.81      0.00
   -5   13    5      1.73      0.00
   -4   14    5      6.76      0.00
   -3   15    5      5.57      0.00
   -2   16    5     -4.46      0.00
   -1   17    5      1.03      0.00
    0   18    5      2.09      0.00
    1   19    5     -2.56      0.00
    2   20    5     -2.33      0.00
    3   21    5      4.44      0.00
    4   22    5     -0.23      0.00
    5   23    5     -2.56      0.00
    6   24    5      1.22      0.00
    7   25    5      2.06      0.00
    8   26    5     -1.61      0.00
    9   27    5      0.52      0.00
   10   28    5      0.85      0.00
   11   29    5     -0.33      0.00
   12   30    5      1.29      0.00
   13   31    5     -1.45      0.00
   14   32    5     -0.81      0.00
  -29   13    5     -2.20      0.00
  -15    1    5     -1.44      0.00
  -14    2    5     -6.06      0.00
  -13    3    5     -0.26      0.00
  -12    4    5      7.73      0.00
  -11    5    5     -0.98      0.00
  -10    6    5      3.70      0.00
   -9    7    5     -6.69      0.00
   -8    8    5    -19.47      0.00
   -7    9    5     -1.54      0.00
   -6   10    5     12.43      0.00
   -5   11    5      1.90      0.00
   -4   12    5      7.92      0.00
   -3   13    5     14.08      0.00
   -2   14    5     -7.08      0.00
   -1   15    5    -16.54      0.00
    0   16    5      8.14      0.00
    1   17    5     -3.88      0.00
    2   18    5     -0.28      0.00
    3   19    5      0.86      0.00
    4   20    5      0.96      0.00
    5   21    5      2.86      0.00
    6   22    5     -1.99      0.00
    7   23    5     -0.10      0.00
    8   24    5      0.36      0.00
    9   25    5      0.43      0.00
   10   26    5     -1.96      0.00
   11   27    5     -1.00      0.00
   12   28    5      1.66      0.00
   13   29    5     -0.93      0.00
   14   30    5      0.42      0.00
   15   31    5      1.36      0.00
  -28   14    5      5.71      0.00
  -27   13    5     -0.45      0.00
  -13    1    5      1.06      0.00
  -12    2    5     13.48      0.00
  -11    3    5      7.36      0.00
  -10    4    5     -5.81      0.00
   -9    5    5     -9.60      0.00
   -8    6    5    -13.64      0.00
   -7    7    5      8.42      0.00
   -6    8    5     23.05      0.00
   -5    9    5     -3.14      0.00
   -4   10    5     -8.95      0.00
   -3   11    5      5.45      0.00
   -2   12    5    -19.02      0.00
   -1   13    5    -16.98      0.00
    0   14    5     11.06      0.00
    1   15    5     14.10      0.00
    2   16    5     -7.81      0.00
    3   17    5     -0.85      0.00
    4   18    5      9.34      0.00
    5   19    5     -4.90      0.00
    6   20    5     -4.06      0.00
    7   21    5      0.96      0.00
    8   22    5      0.15      0.00
    9   23    5      0.42      0.00
   10   24    5     -1.78      0.00
   11   25    5      1.92      0.00
   12   26    5      1.96      0.00
   13   27    5     -1.38      0.00
   14   28    5      0.83      0.00
   15   29    5      1.07      0.00
   16   30    5     -2.54      0.00
  -27   15    5     -3.75      0.00
  -11    1    5     -0.98      0.00
  -10    2    5    -14.21      0.00
   -9    3    5     -8.86      0.00
   -8    4    5    -14.12      0.00
   -7    5    5     21.38      0.00
   -6    6    5     23.04      0.00
   -5    7    5     -3.68      0.00
   -4    8    5    -32.28      0.00
   -3    9    5     30.44      0.00
   -2   10    5      9.74      0.00
   -1   11    5    -16.01      0.00
    0   12    5      6.67      0.00
    1   13    5     17.37      0.00
    2   14    5     -7.89      0.00
    3   15    5     -3.54      0.00
    4   16    5      1.95      0.00
    5   17    5     -1.65      0.00
    6   18    5     -0.94      0.00
    7   19    5     -0.97      0.00
    8   20    5      2.33      0.00
    9   21    5      0.66      0.00
   10   22    5      3.92      0.00
   11   23    5     -4.21      0.00
   12   24    5      0.54      0.00
   13   25    5      2.27      0.00
   14   26    5     -2.32      0.00
   15   27    5     -1.71      0.00
   16   28    5      1.65      0.00
   17   29    5      0.27      0.00
  -27   17    5     -0.36      0.00
  -26   16    5     -0.11      0.00
  -25   15    5      3.75      0.00
   -9    1    5      1.22      0.00
   -8    2    5     -0.83      0.00
   -7    3    5     31.39      0.00
   -6    4    5     15.61      0.00
   -5    5    5    -26.44      0.00
   -4    6    5    -22.29      0.00
   -3    7    5     -2.16      0.00
   -2    8    5      6.62      0.00
   -1    9    5    -21.06      0.00
    0   10    5    -10.05      0.00
    1   11    5     32.53      0.00
    2   12    5     -2.98      0.00
    3   13    5    -13.42      0.00
    4   14    5     -0.12      0.00
    5   15    5      3.55      0.00
    6   16    5     -1.62      0.00
    7   17    5     -1.13      0.00
    8   18    5      0.40      0.00
    9   19    5      5.44      0.00
   10   20    5     -4.48      0.00
   11   21    5     -2.25      0.00
   12   22    5     -3.24      0.00
   13   23    5      7.39      0.00
   14   24    5     -5.53      0.00
   15   25    5      1.53      0.00
   16   26    5      0.66      0.00
   17   27    5     -0.80      0.00
   18   28    5     -2.03      0.00
  -26   18    5      0.89      0.00
  -25   17    5      0.46      0.00
  -24   16    5     -0.97      0.00
  -23   15    5     -2.32      0.00
   -7    1    5      7.87      0.00
   -6    2    5    -15.51      0.00
   -5    3    5      6.32      0.00
   -4    4    5    -27.09      0.00
   -3    5    5      4.98      0.00
   -2    6    5     34.77      0.00
   -1    7    5     -9.83      0.00
    0    8    5    -17.38      0.00
    1    9    5     32.64      0.00
    2   10    5    -14.60      0.00
    3   11    5    -10.92      0.00
    4   12    5      3.72      0.00
    5   13    5     -2.97      0.00
    6   14    5     -1.07      0.00
    7   15    5      4.78      0.00
    8   16    5      5.44      0.00
    9   17    5     -5.54      0.00
   10   18    5     -0.01      0.00
   11   19    5     -0.29      0.00
   12   20    5     -0.11      0.00
   13   21    5      2.64      0.00
   14   22    5      0.15      0.00
   15   23    5     -0.30      0.00
   16   24    5     -1.82      0.00
   17   25    5      1.64      0.00
   18   26    5      2.84      0.00
   19   27    5     -0.97      0.00
  -25   19    5      0.70      0.00
  -24   18    5     -1.66      0.00
  -23   17    5      0.73      0.00
  -22   16    5      5.61      0.00
  -21   15    5     -0.73      0.00
   -5    1    5     -2.56      0.00
   -4    2    5      1.10      0.00
   -3    3    5    -14.08      0.00
   -2    4    5     27.44      0.00
   -1    5    5     20.80      0.00
    0    6    5     27.29      0.00
    1    7    5    -25.11      0.00
    2    8    5     26.39      0.00
    3    9    5    -12.30      0.00
    4   10    5    -17.62      0.00
    5   11    5     -0.29      0.00
    6   12    5     18.67      0.00
    7   13    5      3.11      0.00
    8   14    5     -6.43      0.00
    9   15    5     -1.83      0.00
   10   16    5     -3.58      0.00
   11   17    5      7.44      0.00
   12   18    5     -6.44      0.00
   13   19    5      3.74      0.00
   14   20    5     -0.12      0.00
   15   21    5      0.14      0.00
   16   22    5     -3.31      0.00
   17   23    5      1.40      0.00
   18   24    5      0.42      0.00
   19   25    5     -0.92      0.00
   20   26    5     -2.48      0.00
  -24   20    5     -2.27      0.00
  -23   19    5     -1.20      0.00
  -22   18    5      1.28      0.00
  -21   17    5     -3.12      0.00
  -20   16    5     -0.36      0.00
  -19   15    5      0.90      0.00
   -3    1    5    -17.74      0.00
   -2    2    5     -1.34      0.00
   -1    3    5    -46.63      0.00
    0    4    5     -1.24      0.00
    1    5    5    -57.34      0.00
    2    6    5      4.33      0.00
    3    7    5    -11.81      0.00
    4    8    5      5.00      0.00
    5    9    5     27.22      0.00
    6   10    5     -9.64      0.00
    7   11    5     11.47      0.00
    8   12    5     -8.73      0.00
    9   13    5     -9.14      0.00
   10   14    5      1.10      0.00
   11   15    5      5.43      0.00
   12   16    5      1.75      0.00
   13   17    5     -3.03      0.00
   14   18    5      0.14      0.00
   15   19    5      3.22      0.00
   16   20    5     -2.59      0.00
   17   21    5      1.14      0.00
   18   22    5     -0.77      0.00
   19   23    5      2.24      0.00
   20   24    5      1.15      0.00
   21   25    5     -0.45      0.00
  -24   22    5      1.42      0.00
  -23   21    5      0.55      0.00
  -22   20    5     -1.09      0.00
  -21   19    5      3.86      0.00
  -20   18    5     -2.34      0.00
  -19   17    5     -0.57      0.00
  -18   16    5      2.62      0.00
  -17   15    5      2.17      0.00
   -1    1    5    104.65      0.00
    0    2    5     43.26      0.00
    1    3    5     43.04      0.00
    2    4    5    -55.19      0.00
    3    5    5     24.69      0.00
    4    6    5     35.11      0.00
    5    7    5    -35.62      0.00
    6    8    5      4.76      0.00
    7    9    5     -0.78      0.00
    8   10    5      0.54      0.00
    9   11    5     -9.92      0.00
   10   12    5     -2.51      0.00
   11   13    5     16.44      0.00
   12   14    5     -1.31      0.00
   13   15    5    -11.34      0.00
   14   16    5      3.90      0.00
   15   17    5      2.54      0.00
   16   18    5     -2.95      0.00
   17   19    5     -1.82      0.00
   18   20    5      1.91      0.00
   19   21    5      0.99      0.00
   20   22    5     -0.27      0.00
   21   23    5     -6.98      0.00
  -23   23    5     -0.45      0.00
  -22   22    5      1.67      0.00
  -21   21    5      1.74      0.00
  -20   20    5     -0.99      0.00
  -19   19    5     -1.37      0.00
  -18   18    5     -0.94      0.00
  -17   17    5      3.05      0.00
  -16   16    5     -1.47      0.00
  -15   15    5     -3.36      0.00
    1    1    5   -149.47      0.00
    2    2    5    -33.63      0.00
    3    3    5     56.25      0.00
    4    4    5     22.37      0.00
    5    5    5      6.25      0.00
    6    6    5      0.22      0.00
    7    7    5    -13.44      0.00
    8    8    5     -2.15      0.00
    9    9    5      3.62      0.00
   10   10    5     -2.57      0.00
   11   11    5      6.63      0.00
   12   12    5      1.03      0.00
   13   13    5     -2.95      0.00
   14   14    5     -2.46      0.00
   15   15    5      4.43      0.00
   16   16    5      0.99      0.00
   17   17    5     -2.07      0.00
   18   18    5     -1.38      0.00
   19   19    5      2.06      0.00
   20   20    5      0.62      0.00
   21   21    5     -1.82      0.00
   22   22    5      3.49      0.00
  -22   24    5     -1.51      0.00
  -21   23    5      2.94      0.00
  -20   22    5     -4.12      0.00
  -19   21    5      0.67      0.00
  -18   20    5     -1.55      0.00
  -17   19    5      5.50      0.00
  -16   18    5     -2.17      0.00
  -15   17    5     -2.77      0.00
  -14   16    5      0.96      0.00
  -13   15    5      4.24      0.00
    3    1    5     32.11      0.00
    4    2    5     36.26      0.00
    5    3    5      1.05      0.00
    6    4    5    -99.56      0.00
    7    5    5     18.46      0.00
    8    6    5     27.91      0.00
    9    7    5     -3.73      0.00
   10    8    5     -0.16      0.00
   11    9    5      0.45      0.00
   12   10    5      6.86      0.00
   13   11    5     -6.87      0.00
   14   12    5     -5.27      0.00
   15   13    5      5.00      0.00
   16   14    5      0.68      0.00
   17   15    5     -1.99      0.00
   18   16    5     -1.27      0.00
   19   17    5      2.73      0.00
   20   18    5      0.87      0.00
   21   19    5     -0.55      0.00
   22   20    5      0.15      0.00
   23   21    5     -0.89      0.00
  -21   25    5      2.30      0.00
  -20   24    5     -2.86      0.00
  -19   23    5     -0.12      0.00
  -18   22    5     -1.07      0.00
  -17   21    5      2.13      0.00
  -16   20    5     -0.72      0.00
  -15   19    5     -2.93      0.00
  -14   18    5      1.10      0.00
  -13   17    5      1.69      0.00
  -12   16    5      0.61      0.00
    5    1    5    -52.15      0.00
    6    2    5    -10.25      0.00
    7    3    5     37.11      0.00
    8    4    5      7.48      0.00
    9    5    5     -3.99      0.00
   10    6    5      2.13      0.00
   11    7    5     -5.25      0.00
   12    8    5     -1.52      0.00
   13    9    5      1.69      0.00
   14   10    5     -3.08      0.00
   15   11    5     -0.98      0.00
   16   12    5      1.86      0.00
   17   13    5      3.15      0.00
   18   14    5     -2.61      0.00
   19   15    5     -0.61      0.00
   20   16    5      0.28      0.00
   21   17    5      2.21      0.00
   22   18    5     -4.10      0.00
   23   19    5     -1.27      0.00
   24   20    5      2.29      0.00
  -20   26    5      1.54      0.00
  -19   25    5      1.54      0.00
  -18   24    5      0.40      0.00
  -17   23    5      1.71      0.00
  -16   22    5      2.09      0.00
  -15   21    5     -1.53      0.00
  -14   20    5     -0.97      0.00
  -13   19    5      2.72      0.00
  -12   18    5      0.47      0.00
  -11   17    5     -4.62      0.00
  -10   16    5      7.42      0.00
    7    1    5    -13.66      0.00
    8    2    5     26.55      0.00
    9    3    5      5.86      0.00
   10    4    5     -8.52      0.00
   11    5    5     -7.76      0.00
   12    6    5     -6.68      0.00
   13    7    5     11.89      0.00
   14    8    5     -1.81      0.00
   15    9    5     -4.31      0.00
   16   10    5      5.67      0.00
   17   11    5      2.09      0.00
   18   12    5     -2.74      0.00
   19   13    5     -1.39      0.00
   20   14    5      0.68      0.00
   21   15    5      0.56      0.00
   22   16    5     -1.09      0.00
   23   17    5     -0.48      0.00
   24   18    5      2.50      0.00
  -19   27    5     -1.78      0.00
  -18   26    5     -0.37      0.00
  -17   25    5     -3.81      0.00
  -16   24    5      0.80      0.00
  -15   23    5     -2.00      0.00
  -14   22    5     -1.11      0.00
  -13   21    5     -0.12      0.00
  -12   20    5     -0.84      0.00
  -11   19    5      4.30      0.00
  -10   18    5     -4.82      0.00
   -9   17    5     -1.20      0.00
    9    1    5    -11.86      0.00
   10    2    5    -12.63      0.00
   11    3    5     -0.75      0.00
   12    4    5      4.40      0.00
   13    5    5     -0.80      0.00
   14    6    5      3.08      0.00
   15    7    5      0.44      0.00
   16    8    5     -3.29      0.00
   17    9    5      1.80      0.00
   18   10    5      0.92      0.00
   19   11    5     -3.33      0.00
   20   12    5      0.77      0.00
   21   13    5      0.91      0.00
   22   14    5      2.35      0.00
   23   15    5     -1.43      0.00
   24   16    5     -1.05      0.00
   25   17    5      1.38      0.00
  -18   28    5     -0.05      0.00
  -17   27    5     -1.24      0.00
  -16   26    5      5.70      0.00
  -15   25    5     -1.10      0.00
  -14   24    5      1.46      0.00
  -13   23    5      0.62      0.00
  -12   22    5     -0.48      0.00
  -11   21    5      1.88      0.00
  -10   20    5      2.57      0.00
   -9   19    5     -5.40      0.00
   11    1    5      8.90      0.00
   12    2    5     -3.14      0.00
   13    3    5     -3.23      0.00
   14    4    5     11.82      0.00
   15    5    5     -2.41      0.00
   16    6    5     -7.14      0.00
   17    7    5      4.14      0.00
   18    8    5      0.27      0.00
   19    9    5     -1.94      0.00
   20   10    5     -1.14      0.00
   21   11    5      0.75      0.00
   22   12    5      1.67      0.00
   23   13    5     -0.76      0.00
   24   14    5     -1.28      0.00
   25   15    5      1.01      0.00
   26   16    5      0.55      0.00
  -18   30    5     -2.25      0.00
  -17   29    5      2.75      0.00
  -16   28    5     -5.07      0.00
  -15   27    5      0.79      0.00
  -14   26    5      0.71      0.00
  -13   25    5     -2.60      0.00
  -12   24    5      1.11      0.00
  -11   23    5      1.79      0.00
  -10   22    5     -3.16      0.00
   -9   21    5     -1.14      0.00
   -8   20    5     -3.59      0.00
   13    1    5     -1.51      0.00
   14    2    5      5.11      0.00
   15    3    5      2.54      0.00
   16    4    5     -7.52      0.00
   17    5    5     -1.28      0.00
   18    6    5      4.41      0.00
   19    7    5     -1.41      0.00
   20    8    5     -0.10      0.00
   21    9    5     -0.02      0.00
   22   10    5      1.84      0.00
   23   11    5     -0.50      0.00
   24   12    5     -1.93      0.00
   25   13    5      2.37      0.00
   26   14    5     -2.82      0.00
   27   15    5      2.61      0.00
  -17   31    5      2.41      0.00
  -16   30    5     -2.87      0.00
  -15   29    5      4.18      0.00
  -14   28    5      2.17      0.00
  -13   27    5     -1.61      0.00
  -12   26    5     -1.59      0.00
  -11   25    5     -1.40      0.00
  -10   24    5      3.33      0.00
   -9   23    5     -3.64      0.00
   -8   22    5      1.42      0.00
   15    1    5      1.85      0.00
   16    2    5     -8.39      0.00
   17    3    5     -0.49      0.00
   18    4    5      4.14      0.00
   19    5    5      2.55      0.00
   20    6    5     -0.29      0.00
   21    7    5     -1.52      0.00
   22    8    5      0.90      0.00
   23    9    5      0.10      0.00
   24   10    5     -1.22      0.00
   25   11    5     -0.23      0.00
   26   12    5      0.17      0.00
   27   13    5     -0.74      0.00
  -16   32    5     -2.38      0.00
  -15   31    5      0.11      0.00
  -14   30    5      0.80      0.00
  -13   29    5     -2.38      0.00
  -12   28    5     -2.86      0.00
  -11   27    5      2.33      0.00
  -10   26    5      2.70      0.00
   -9   25    5      0.01      0.00
   -8   24    5     -1.20      0.00
   17    1    5      0.10      0.00
   18    2    5      3.98      0.00
   19    3    5      0.95      0.00
   20    4    5     -2.31      0.00
   21    5    5     -2.47      0.00
   22    6    5      0.67      0.00
   23    7    5      0.78      0.00
   24    8    5     -0.65      0.00
   25    9    5      1.04      0.00
   26   10    5      0.04      0.00
   27   11    5     -0.30      0.00
   28   12    5      2.61      0.00
  -15   33    5     -1.77      0.00
  -14   32    5      1.52      0.00
  -13   31    5     -0.34      0.00
  -12   30    5     -1.29      0.00
  -11   29    5      3.19      0.00
  -10   28    5     -0.24      0.00
   -9   27    5     -1.09      0.00
   -8   26    5     -0.37      0.00
   -7   25    5     -1.63      0.00
   19    1    5     -1.02      0.00
   20    2    5      0.95      0.00
   21    3    5     -0.63      0.00
   22    4    5     -1.96      0.00
   23    5    5      2.01      0.00
   24    6    5      0.53      0.00
   25    7    5      1.08      0.00
   26    8    5     -1.23      0.00
   27    9    5      0.14      0.00
   28   10    5      0.28      0.00
  -14   34    5      3.59      0.00
  -13   33    5      0.23      0.00
  -12   32    5     -1.36      0.00
  -11   31    5      2.34      0.00
  -10   30    5     -1.98      0.00
   -9   29    5      1.69      0.00
   -8   28    5     -0.86      0.00
   -7   27    5      0.86      0.00
   21    1    5     -2.19      0.00
   22    2    5     -0.02      0.00
   23    3    5      1.13      0.00
   24    4    5     -2.06      0.00
   25    5    5      2.36      0.00
   26    6    5     -3.83      0.00
   27    7    5      0.95      0.00
   28    8    5     -1.22      0.00
   29    9    5     -0.01      0.00
  -13   35    5     -0.03      0.00
  -12   34    5     -0.69      0.00
  -11   33    5     -2.09      0.00
  -10   32    5      0.65      0.00
   -9   31    5      1.88      0.00
   -8   30    5     -2.04      0.00
   -7   29    5     -0.10      0.00
   -6   28    5     -0.66      0.00
   23    1    5      0.52      0.00
   24    2    5      2.27      0.00
   25    3    5      0.70      0.00
   26    4    5     -1.23      0.00
   27    5    5      2.11      0.00
   28    6    5     -0.74      0.00
   29    7    5      2.96      0.00
   30    8    5      1.15      0.00
  -12   36    5     -1.93      0.00
  -11   35    5     -1.66      0.00
  -10   34    5      3.98      0.00
   -9   33    5     -0.96      0.00
   -8   32    5     -1.65      0.00
   -7   31    5      0.68      0.00
   -6   30    5     -2.85      0.00
   25    1    5     -1.36      0.00
   26    2    5      0.66      0.00
   27    3    5     -1.00      0.00
   28    4    5     -2.11      0.00
   29    5    5      0.03      0.00
   30    6    5     -3.14      0.00
  -10   36    5      1.88      0.00
   -9   35    5      1.80      0.00
   -8   34    5     -5.40      0.00
   -7   33    5      2.46      0.00
   -6   32    5      1.73      0.00
   27    1    5     -1.61      0.00
   28    2    5      1.74      0.00
   29    3    5      1.67      0.00
   30    4    5      0.94      0.00
   31    5    5      1.82      0.00
   -9   37    5      0.80      0.00
   -8   36    5     -3.22      0.00
   -7   35    5      1.58      0.00
   -6   34    5      2.30      0.00
   -5   33    5     -2.15      0.00
   29    1    5     -2.27      0.00
   30    2    5     -0.97      0.00
   31    3    5      3.66      0.00
   -7   37    5      0.57      0.00
   -6   36    5      3.55      0.00
   -5   35    5     -4.54      0.00
   31    1    5     -0.57      0.00
   32    2    5     -3.49      0.00
   -5   37    5     -0.33      0.00
   -4   36    5     -0.24      0.00
   -3   37    5      0.49      0.00
   -2   36    5      2.96      0.00
   -1   37    5     -0.02      0.00
   29   11    5     -1.17      0.00
  -29   11    6      0.70      0.00
  -28   12    6     -0.77      0.00
  -27   13    6     -3.53      0.00
  -26   14    6      1.62      0.00
  -29    9    6      0.34      0.00
  -28   10    6      1.88      0.00
  -27   11    6      0.02      0.00
  -26   12    6      0.32      0.00
  -25   13    6      0.74      0.00
  -24   14    6     -0.05      0.00
   -4   34    6      0.06      0.00
   -3   35    6      2.39      0.00
  -30    6    6     -0.89      0.00
  -29    7    6     -2.75      0.00
  -28    8    6      0.86      0.00
  -27    9    6     -2.00      0.00
  -26   10    6     -0.52      0.00
  -25   11    6     -1.20      0.00
  -24   12    6      0.86      0.00
  -23   13    6     -0.97      0.00
  -22   14    6      1.37      0.00
  -21   15    6     -1.82      0.00
   -5   31    6     -3.99      0.00
   -4   32    6      1.39      0.00
   -3   33    6      0.48      0.00
   -2   34    6     -0.38      0.00
   -1   35    6     -2.48      0.00
    0   36    6     -1.59      0.00
  -31    3    6      0.45      0.00
  -30    4    6      1.36      0.00
  -29    5    6      0.21      0.00
  -28    6    6      0.36      0.00
  -27    7    6     -0.93      0.00
  -26    8    6     -0.13      0.00
  -25    9    6      0.63      0.00
  -24   10    6      1.73      0.00
  -23   11    6     -0.69      0.00
  -22   12    6      1.30      0.00
  -21   13    6      1.26      0.00
  -20   14    6     -0.46      0.00
  -19   15    6     -3.99      0.00
   -6   28    6      1.28      0.00
   -5   29    6     -1.57      0.00
   -4   30    6     -0.12      0.00
   -3   31    6      0.85      0.00
   -2   32    6     -2.55      0.00
   -1   33    6      2.35      0.00
    0   34    6      0.60      0.00
    1   35    6      1.24      0.00
    2   36    6      0.36      0.00
  -31    1    6     -2.39      0.00
  -30    2    6     -0.19      0.00
  -29    3    6     -1.34      0.00
  -28    4    6      0.11      0.00
  -27    5    6     -0.17      0.00
  -26    6    6      0.73      0.00
  -25    7    6     -0.48      0.00
  -24    8    6      1.40      0.00
  -23    9    6     -0.33      0.00
  -22   10    6      0.78      0.00
  -21   11    6     -1.22      0.00
  -20   12    6     -0.81      0.00
  -19   13    6     -0.38      0.00
  -18   14    6      0.23      0.00
  -17   15    6     -1.62      0.00
   -7   25    6     -3.78      0.00
   -6   26    6     -0.91      0.00
   -5   27    6     -0.29      0.00
   -4   28    6      1.34      0.00
   -3   29    6     -0.01      0.00
   -2   30    6     -0.10      0.00
   -1   31    6      1.84      0.00
    0   32    6      0.37      0.00
    1   33    6     -1.42      0.00
    2   34    6      0.56      0.00
    3   35    6     -1.02      0.00
    4   36    6      0.07      0.00
    5   37    6     -1.66      0.00
  -30    0    6     -0.10      0.00
  -29    1    6      0.83      0.00
  -28    2    6     -1.01      0.00
  -27    3    6      1.97      0.00
  -26    4    6     -0.30      0.00
  -25    5    6      1.53      0.00
  -24    6    6     -0.10      0.00
  -23    7    6      0.05      0.00
  -22    8    6     -0.35      0.00
  -21    9    6     -1.84      0.00
  -20   10    6     -1.18      0.00
  -19   11    6     -0.13      0.00
  -18   12    6      1.70      0.00
  -17   13    6      3.78      0.00
  -16   14    6      1.54      0.00
  -15   15    6     -4.56      0.00
   -8   22    6      2.11      0.00
   -7   23    6     -0.73      0.00
   -6   24    6      0.36      0.00
   -5   25    6     -1.24      0.00
   -4   26    6      1.80      0.00
   -3   27    6     -1.43      0.00
   -2   28    6     -0.26      0.00
   -1   29    6      0.22      0.00
    0   30    6     -0.86      0.00
    1   31    6     -0.13      0.00
    2   32    6     -1.57      0.00
    3   33    6      1.43      0.00
    4   34    6     -1.10      0.00
    5   35    6      2.16      0.00
    6   36    6      0.39      0.00
    7   37    6     -0.37      0.00
  -32    4    6     -4.09      0.00
  -28    0    6      1.14      0.00
  -27    1    6      0.44      0.00
  -26    2    6     -0.40      0.00
  -25    3    6     -1.72      0.00
  -24    4    6     -0.25      0.00
  -23    5    6      0.14      0.00
  -22    6    6     -0.79      0.00
  -21    7    6     -1.51      0.00
  -20    8    6      1.07      0.00
  -19    9    6      2.24      0.00
  -18   10    6     -0.30      0.00
  -17   11    6      0.37      0.00
  -16   12    6     -2.45      0.00
  -15   13    6     -1.38      0.00
  -14   14    6      1.57      0.00
  -13   15    6     -0.27      0.00
  -12   16    6      1.91      0.00
  -11   17    6      3.71      0.00
  -10   18    6     -1.73      0.00
   -9   19    6     -4.88      0.00
   -8   20    6     -2.73      0.00
   -7   21    6     -2.83      0.00
   -6   22    6      0.83      0.00
   -5   23    6     -0.39      0.00
   -4   24    6      3.85      0.00
   -3   25    6      0.40      0.00
   -2   26    6     -0.02      0.00
   -1   27    6     -0.52      0.00
    0   28    6      0.84      0.00
    1   29    6     -0.91      0.00
    2   30    6     -0.32      0.00
    3   31    6      0.04      0.00
    4   32    6     -0.06      0.00
    5   33    6      0.36      0.00
    6   34    6      0.26      0.00
    7   35    6     -0.75      0.00
    8   36    6      0.25      0.00
    9   37    6     -0.80      0.00
  -31    5    6      0.11      0.00
  -26    0    6     -3.13      0.00
  -25    1    6      2.69      0.00
  -24    2    6     -0.86      0.00
  -23    3    6      1.01      0.00
  -22    4    6     -0.73      0.00
  -21    5    6     -1.20      0.00
  -20    6    6      0.94      0.00
  -19    7    6      1.28      0.00
  -18    8    6      2.08      0.00
  -17    9    6     -1.48      0.00
  -16   10    6     -0.31      0.00
  -15   11    6     -2.18      0.00
  -14   12    6     -0.07      0.00
  -13   13    6     -1.01      0.00
  -12   14    6      0.34      0.00
  -11   15    6      1.98      0.00
  -10   16    6      3.34      0.00
   -9   17    6     -1.55      0.00
   -8   18    6     -2.22      0.00
   -7   19    6      4.53      0.00
   -6   20    6      0.20      0.00
   -5   21    6     -1.98      0.00
   -4   22    6      1.87      0.00
   -3   23    6     -1.10      0.00
   -2   24    6     -3.08      0.00
   -1   25    6      0.05      0.00
    0   26    6      2.28      0.00
    1   27    6     -0.76      0.00
    2   28    6      1.00      0.00
    3   29    6     -0.05      0.00
    4   30    6      1.28      0.00
    5   31    6      1.15      0.00
    6   32    6     -0.32      0.00
    7   33    6     -2.70      0.00
    8   34    6      2.03      0.00
    9   35    6     -0.35      0.00
  -31    7    6      0.64      0.00
  -24    0    6      0.38      0.00
  -23    1    6     -2.00      0.00
  -22    2    6     -0.38      0.00
  -21    3    6      1.06      0.00
  -20    4    6      2.14      0.00
  -19    5    6      0.55      0.00
  -18    6    6     -0.27      0.00
  -17    7    6     -2.53      0.00
  -16    8    6     -2.54      0.00
  -15    9    6     -1.81      0.00
  -14   10    6      3.64      0.00
  -13   11    6      3.37      0.00
  -12   12    6      3.97      0.00
  -11   13    6     -0.60      0.00
  -10   14    6     -0.22      0.00
   -9   15    6    -10.50      0.00
   -8   16    6     -1.87      0.00
   -7   17    6      3.92      0.00
   -6   18    6      4.17      0.00
   -5   19    6     -1.26      0.00
   -4   20    6      3.77      0.00
   -3   21    6     -0.95      0.00
   -2   22    6     -0.12      0.00
   -1   23    6     -1.25      0.00
    0   24    6     -0.03      0.00
    1   25    6     -0.25      0.00
    2   26    6     -1.81      0.00
    3   27    6     -0.29      0.00
    4   28    6      0.98      0.00
    5   29    6     -0.53      0.00
    6   30    6     -0.86      0.00
    7   31    6     -0.54      0.00
    8   32    6     -2.08      0.00
    9   33    6     -0.01      0.00
   10   34    6      1.12      0.00
   11   35    6     -2.64      0.00
  -30    8    6      1.96      0.00
  -22    0    6      1.49      0.00
  -21    1    6      0.23      0.00
  -20    2    6      1.47      0.00
  -19    3    6     -0.52      0.00
  -18    4    6     -2.97      0.00
  -17    5    6     -1.28      0.00
  -16    6    6      1.84      0.00
  -15    7    6     -0.01      0.00
  -14    8    6      4.39      0.00
  -13    9    6      3.91      0.00
  -12   10    6     -3.37      0.00
  -11   11    6     -6.90      0.00
  -10   12    6     -0.67      0.00
   -9   13    6      2.48      0.00
   -8   14    6     -1.02      0.00
   -7   15    6      2.55      0.00
   -6   16    6      4.88      0.00
   -5   17    6     -2.05      0.00
   -4   18    6     -5.83      0.00
   -3   19    6     -1.11      0.00
   -2   20    6      0.00      0.00
   -1   21    6      0.37      0.00
    0   22    6      1.80      0.00
    1   23    6      1.16      0.00
    2   24    6      1.23      0.00
    3   25    6      0.27      0.00
    4   26    6      0.65      0.00
    5   27    6     -1.51      0.00
    6   28    6      1.01      0.00
    7   29    6     -0.19      0.00
    8   30    6      0.41      0.00
    9   31    6      3.21      0.00
   10   32    6      3.05      0.00
   11   33    6     -1.15      0.00
   12   34    6      0.70      0.00
  -30   10    6      0.02      0.00
  -20    0    6      0.69      0.00
  -19    1    6     -1.36      0.00
  -18    2    6     -2.22      0.00
  -17    3    6      0.86      0.00
  -16    4    6      2.89      0.00
  -15    5    6     -1.46      0.00
  -14    6    6      2.92      0.00
  -13    7    6      3.60      0.00
  -12    8    6     -7.62      0.00
  -11    9    6     -9.89      0.00
  -10   10    6      1.56      0.00
   -9   11    6      3.63      0.00
   -8   12    6     -1.57      0.00
   -7   13    6      5.15      0.00
   -6   14    6      7.65      0.00
   -5   15    6     -2.02      0.00
   -4   16    6     -7.72      0.00
   -3   17    6      1.53      0.00
   -2   18    6      0.59      0.00
   -1   19    6      1.43      0.00
    0   20    6     -1.11      0.00
    1   21    6     -1.90      0.00
    2   22    6      0.44      0.00
    3   23    6     -0.70      0.00
    4   24    6     -0.76      0.00
    5   25    6      0.19      0.00
    6   26    6     -0.19      0.00
    7   27    6     -0.08      0.00
    8   28    6     -0.95      0.00
    9   29    6     -0.71      0.00
   10   30    6      2.55      0.00
   11   31    6     -6.90      0.00
   12   32    6      0.84      0.00
   13   33    6      1.39      0.00
  -18    0    6     -3.59      0.00
  -17    1    6      3.09      0.00
  -16    2    6      3.34      0.00
  -15    3    6     -1.94      0.00
  -14    4    6     -1.85      0.00
  -13    5    6      4.26      0.00
  -12    6    6     -6.16      0.00
  -11    7    6     -5.06      0.00
  -10    8    6     10.92      0.00
   -9    9    6     11.67      0.00
   -8   10    6      4.98      0.00
   -7   11    6     -2.57      0.00
   -6   12    6     -5.48      0.00
   -5   13    6     -2.63      0.00
   -4   14    6     -7.19      0.00
   -3   15    6     -0.11      0.00
   -2   16    6      3.03      0.00
   -1   17    6      3.89      0.00
    0   18    6      2.58      0.00
    1   19    6     -0.42      0.00
    2   20    6      0.12      0.00
    3   21    6      0.92      0.00
    4   22    6     -0.75      0.00
    5   23    6     -0.17      0.00
    6   24    6     -1.11      0.00
    7   25    6      2.10      0.00
    8   26    6     -0.31      0.00
    9   27    6      0.70      0.00
   10   28    6     -1.32      0.00
   11   29    6      2.50      0.00
   12   30    6     -1.62      0.00
   13   31    6      0.73      0.00
   14   32    6     -0.71      0.00
  -16    0    6      5.88      0.00
  -15    1    6     -2.07      0.00
  -14    2    6     -6.48      0.00
  -13    3    6      1.98      0.00
  -12    4    6     -2.93      0.00
  -11    5    6     -7.96      0.00
  -10    6    6      2.81      0.00
   -9    7    6     10.43      0.00
   -8    8    6     -8.46      0.00
   -7    9    6     -6.93      0.00
   -6   10    6    -10.92      0.00
   -5   11    6      1.07      0.00
   -4   12    6      0.38      0.00
   -3   13    6      6.24      0.00
   -2   14    6      3.50      0.00
   -1   15    6      5.94      0.00
    0   16    6     -1.30      0.00
    1   17    6     -5.86      0.00
    2   18    6     -4.43      0.00
    3   19    6      3.12      0.00
    4   20    6     -2.16      0.00
    5   21    6     -1.55      0.00
    6   22    6      3.87      0.00
    7   23    6      1.02      0.00
    8   24    6     -1.39      0.00
    9   25    6     -0.71      0.00
   10   26    6     -0.02      0.00
   11   27    6      0.99      0.00
   12   28    6     -1.96      0.00
   13   29    6      0.73      0.00
   14   30    6      1.73      0.00
   15   31    6      0.32      0.00
  -28   14    6     -0.89      0.00
  -14    0    6     -9.90      0.00
  -13    1    6      1.45      0.00
  -12    2    6      7.29      0.00
  -11    3    6      3.52      0.00
  -10    4    6      6.44      0.00
   -9    5    6      8.93      0.00
   -8    6    6     -0.96      0.00
   -7    7    6     -7.16      0.00
   -6    8    6     -1.44      0.00
   -5    9    6      1.57      0.00
   -4   10    6     12.82      0.00
   -3   11    6     -1.14      0.00
   -2   12    6     -3.67      0.00
   -1   13    6     -8.24      0.00
    0   14    6      6.13      0.00
    1   15    6     -7.46      0.00
    2   16    6      0.27      0.00
    3   17    6      0.90      0.00
    4   18    6      3.12      0.00
    5   19    6      3.44      0.00
    6   20    6     -2.88      0.00
    7   21    6      0.13      0.00
    8   22    6     -0.77      0.00
    9   23    6     -1.63      0.00
   10   24    6      0.77      0.00
   11   25    6      0.66      0.00
   12   26    6      1.03      0.00
   13   27    6     -2.38      0.00
   14   28    6      1.30      0.00
   15   29    6     -1.58      0.00
   16   30    6      1.64      0.00
  -27   15    6      3.09      0.00
  -12    0    6     12.57      0.00
  -11    1    6     -2.24      0.00
  -10    2    6     -3.66      0.00
   -9    3    6     -1.76      0.00
   -8    4    6     -8.79      0.00
   -7    5    6    -16.46      0.00
   -6    6    6      6.31      0.00
   -5    7    6     -5.26      0.00
   -4    8    6      8.17      0.00
   -3    9    6     14.79      0.00
   -2   10    6      1.66      0.00
   -1   11    6     -3.05      0.00
    0   12    6      6.16      0.00
    1   13    6     -0.93      0.00
    2   14    6    -12.79      0.00
    3   15    6      7.73      0.00
    4   16    6      6.39      0.00
    5   17    6     -3.03      0.00
    6   18    6     -0.67      0.00
    7   19    6     -3.05      0.00
    8   20    6      3.44      0.00
    9   21    6     -0.83      0.00
   10   22    6     -0.92      0.00
   11   23    6      3.33      0.00
   12   24    6     -1.69      0.00
   13   25    6      0.29      0.00
   14   26    6      0.87      0.00
   15   27    6     -0.62      0.00
   16   28    6      1.08      0.00
   17   29    6      0.84      0.00
  -26   16    6     -1.59      0.00
  -25   15    6     -1.69      0.00
  -10    0    6     -6.54      0.00
   -9    1    6      4.07      0.00
   -8    2    6     -9.96      0.00
   -7    3    6     -3.06      0.00
   -6    4    6     24.72      0.00
   -5    5    6      5.04      0.00
   -4    6    6    -20.92      0.00
   -3    7    6     21.42      0.00
   -2    8    6    -12.29      0.00
   -1    9    6    -32.69      0.00
    0   10    6     -0.69      0.00
    1   11    6      0.99      0.00
    2   12    6      6.64      0.00
    3   13    6      1.49      0.00
    4   14    6      4.41      0.00
    5   15    6     -0.13      0.00
    6   16    6     -4.12      0.00
    7   17    6     -2.89      0.00
    8   18    6      1.45      0.00
    9   19    6      1.25      0.00
   10   20    6     -0.38      0.00
   11   21    6     -1.98      0.00
   12   22    6      0.56      0.00
   13   23    6     -0.36      0.00
   14   24    6     -0.71      0.00
   15   25    6     -0.91      0.00
   16   26    6      1.46      0.00
   17   27    6     -0.76      0.00
   18   28    6     -3.23      0.00
  -26   18    6     -4.17      0.00
  -25   17    6     -0.70      0.00
  -24   16    6      2.20      0.00
  -23   15    6     -1.18      0.00
   -8    0    6    -13.78      0.00
   -7    1    6     -7.12      0.00
   -6    2    6     34.80      0.00
   -5    3    6     -7.94      0.00
   -4    4    6    -10.21      0.00
   -3    5    6     12.35      0.00
   -2    6    6     29.12      0.00
   -1    7    6    -33.16      0.00
    0    8    6    -13.40      0.00
    1    9    6     36.34      0.00
    2   10    6      5.77      0.00
    3   11    6    -13.02      0.00
    4   12    6      5.08      0.00
    5   13    6      0.46      0.00
    6   14    6     -5.20      0.00
    7   15    6     -5.14      0.00
    8   16    6      1.52      0.00
    9   17    6     10.11      0.00
   10   18    6     -5.68      0.00
   11   19    6     -0.09      0.00
   12   20    6      1.58      0.00
   13   21    6      2.48      0.00
   14   22    6     -3.80      0.00
   15   23    6      3.43      0.00
   16   24    6     -0.67      0.00
   17   25    6      0.86      0.00
   18   26    6      0.12      0.00
   19   27    6      1.43      0.00
  -25   19    6      1.82      0.00
  -24   18    6      0.87      0.00
  -23   17    6     -0.74      0.00
  -22   16    6     -0.20      0.00
   -6    0    6     31.07      0.00
   -5    1    6     11.11      0.00
   -4    2    6    -57.82      0.00
   -3    3    6      4.32      0.00
   -2    4    6     18.96      0.00
   -1    5    6    -38.43      0.00
    0    6    6      2.72      0.00
    1    7    6     56.29      0.00
    2    8    6     -6.23      0.00
    3    9    6     -4.29      0.00
    4   10    6     -9.07      0.00
    5   11    6    -10.89      0.00
    6   12    6      1.84      0.00
    7   13    6      6.73      0.00
    8   14    6      0.79      0.00
    9   15    6     -0.34      0.00
   10   16    6      4.23      0.00
   11   17    6     -5.99      0.00
   12   18    6      1.30      0.00
   13   19    6     -1.27      0.00
   14   20    6      1.79      0.00
   15   21    6     -1.48      0.00
   16   22    6     -1.31      0.00
   17   23    6     -0.97      0.00
   18   24    6      0.27      0.00
   19   25    6     -2.43      0.00
   20   26    6      1.92      0.00
  -24   20    6      1.78      0.00
  -23   19    6     -0.34      0.00
  -22   18    6      0.06      0.00
  -21   17    6      1.88      0.00
  -20   16    6      3.06      0.00
   -4    0    6    -20.60      0.00
   -3    1    6    -20.30      0.00
   -2    2    6     45.26      0.00
   -1    3    6    -12.23      0.00
    0    4    6    -47.59      0.00
    1    5    6      1.46      0.00
    2    6    6     34.03      0.00
    3    7    6    -46.14      0.00
    4    8    6    -20.83      0.00
    5    9    6     19.90      0.00
    6   10    6     14.68      0.00
    7   11    6     -1.82      0.00
    8   12    6     -2.45      0.00
    9   13    6     -0.41      0.00
   10   14    6      2.80      0.00
   11   15    6     -3.62      0.00
   12   16    6     -6.18      0.00
   13   17    6      6.75      0.00
   14   18    6      0.93      0.00
   15   19    6     -1.49      0.00
   16   20    6     -1.07      0.00
   17   21    6      2.55      0.00
   18   22    6      2.64      0.00
   19   23    6      0.09      0.00
   20   24    6      0.87      0.00
  -23   21    6     -1.69      0.00
  -22   20    6     -1.55      0.00
  -21   19    6      3.88      0.00
  -20   18    6     -4.43      0.00
  -19   17    6      0.23      0.00
  -18   16    6      1.75      0.00
   -2    0    6     28.00      0.00
   -1    1    6     23.97      0.00
    0    2    6     33.39      0.00
    1    3    6     39.01      0.00
    2    4    6     52.48      0.00
    3    5    6    -62.85      0.00
    4    6    6     -0.68      0.00
    5    7    6     24.00      0.00
    6    8    6    -13.36      0.00
    7    9    6      8.75      0.00
    8   10    6     -6.11      0.00
    9   11    6     -2.31      0.00
   10   12    6      1.75      0.00
   11   13    6     -2.89      0.00
   12   14    6      2.66      0.00
   13   15    6     -0.82      0.00
   14   16    6      1.05      0.00
   15   17    6      0.13      0.00
   16   18    6     -0.78      0.00
   17   19    6     -2.23      0.00
   18   20    6      1.00      0.00
   19   21    6      1.40      0.00
   20   22    6     -5.32      0.00
   21   23    6     -1.07      0.00
  -23   23    6      6.40      0.00
  -22   22    6     -3.77      0.00
  -21   21    6     -0.17      0.00
  -20   20    6      0.20      0.00
  -19   19    6     -0.62      0.00
  -18   18    6     -0.97      0.00
  -17   17    6      0.20      0.00
  -16   16    6      3.25      0.00
    0    0    6    -78.46      0.00
    1    1    6    -20.66      0.00
    2    2    6    -85.50      0.00
    3    3    6     -5.09      0.00
    4    4    6      9.15      0.00
    5    5    6     14.09      0.00
    6    6    6     25.45      0.00
    7    7    6     -4.14      0.00
    8    8    6      4.26      0.00
    9    9    6    -17.24      0.00
   10   10    6      0.94      0.00
   11   11    6     10.41      0.00
   12   12    6     -5.78      0.00
   13   13    6     -0.91      0.00
   14   14    6      5.33      0.00
   15   15    6     -0.46      0.00
   16   16    6     -2.15      0.00
   17   17    6     -0.29      0.00
   18   18    6      2.50      0.00
   19   19    6     -0.42      0.00
   20   20    6     -1.62      0.00
   21   21    6      1.16      0.00
   22   22    6      3.29      0.00
  -22   24    6     -1.27      0.00
  -21   23    6      3.33      0.00
  -20   22    6     -1.83      0.00
  -19   21    6      2.19      0.00
  -18   20    6     -0.59      0.00
  -17   19    6      1.59      0.00
  -16   18    6      0.01      0.00
  -15   17    6     -0.66      0.00
  -14   16    6      0.27      0.00
    2    0    6     56.82      0.00
    3    1    6     25.43      0.00
    4    2    6      5.46      0.00
    5    3    6     29.27      0.00
    6    4    6     -7.96      0.00
    7    5    6    -36.60      0.00
    8    6    6     -1.02      0.00
    9    7    6      9.62      0.00
   10    8    6     -9.48      0.00
   11    9    6      8.51      0.00
   12   10    6      2.66      0.00
   13   11    6     -0.52      0.00
   14   12    6     -4.14      0.00
   15   13    6      1.93      0.00
   16   14    6      0.63      0.00
   17   15    6     -2.08      0.00
   18   16    6     -0.14      0.00
   19   17    6     -0.05      0.00
   20   18    6      0.21      0.00
   21   19    6      1.79      0.00
   22   20    6     -1.17      0.00
   23   21    6      0.96      0.00
  -21   25    6     -2.88      0.00
  -20   24    6     -0.22      0.00
  -19   23    6      0.71      0.00
  -18   22    6      1.82      0.00
  -17   21    6     -1.26      0.00
  -16   20    6     -1.00      0.00
  -15   19    6      1.33      0.00
  -14   18    6     -0.22      0.00
  -13   17    6     -3.24      0.00
    4    0    6     17.01      0.00
    5    1    6      0.45      0.00
    6    2    6    -38.92      0.00
    7    3    6     -2.75      0.00
    8    4    6     21.84      0.00
    9    5    6      6.02      0.00
   10    6    6    -16.38      0.00
   11    7    6      5.94      0.00
   12    8    6     11.38      0.00
   13    9    6     -7.48      0.00
   14   10    6     -5.77      0.00
   15   11    6      3.58      0.00
   16   12    6      0.04      0.00
   17   13    6     -2.11      0.00
   18   14    6     -0.77      0.00
   19   15    6      2.51      0.00
   20   16    6      1.91      0.00
   21   17    6     -0.71      0.00
   22   18    6     -1.66      0.00
   23   19    6     -2.19      0.00
  -20   26    6      3.39      0.00
  -19   25    6     -1.89      0.00
  -18   24    6      1.20      0.00
  -17   23    6     -3.66      0.00
  -16   22    6     -1.60      0.00
  -15   21    6      0.47      0.00
  -14   20    6     -0.43      0.00
  -13   19    6      1.28      0.00
  -12   18    6     -1.72      0.00
    6    0    6    -11.77      0.00
    7    1    6     -5.67      0.00
    8    2    6     10.31      0.00
    9    3    6      4.95      0.00
   10    4    6     -5.82      0.00
   11    5    6      3.54      0.00
   12    6    6      4.26      0.00
   13    7    6     -2.18      0.00
   14    8    6     -5.34      0.00
   15    9    6      1.79      0.00
   16   10    6      3.57      0.00
   17   11    6      2.37      0.00
   18   12    6     -2.41      0.00
   19   13    6     -0.01      0.00
   20   14    6      2.15      0.00
   21   15    6     -2.61      0.00
   22   16    6     -2.24      0.00
   23   17    6      2.14      0.00
   24   18    6      1.79      0.00
  -19   27    6      0.67      0.00
  -18   26    6      1.12      0.00
  -17   25    6     -0.07      0.00
  -16   24    6     -0.27      0.00
  -15   23    6      4.55      0.00
  -14   22    6      1.95      0.00
  -13   21    6     -0.45      0.00
  -12   20    6     -1.71      0.00
  -11   19    6      3.03      0.00
    8    0    6     21.44      0.00
    9    1    6      6.34      0.00
   10    2    6     -0.89      0.00
   11    3    6    -17.79      0.00
   12    4    6      6.80      0.00
   13    5    6      9.14      0.00
   14    6    6    -11.89      0.00
   15    7    6     -4.26      0.00
   16    8    6      7.60      0.00
   17    9    6      1.48      0.00
   18   10    6     -4.28      0.00
   19   11    6      0.25      0.00
   20   12    6      0.43      0.00
   21   13    6      1.22      0.00
   22   14    6      0.15      0.00
   23   15    6     -0.24      0.00
   24   16    6      1.19      0.00
   25   17    6     -2.99      0.00
  -18   28    6     -2.09      0.00
  -17   27    6     -0.07      0.00
  -16   26    6     -0.27      0.00
  -15   25    6     -2.07      0.00
  -14   24    6      0.65      0.00
  -13   23    6      0.01      0.00
  -12   22    6     -5.91      0.00
  -11   21    6      2.46      0.00
  -10   20    6      2.83      0.00
   10    0    6     -7.78      0.00
   11    1    6     -4.52      0.00
   12    2    6      8.44      0.00
   13    3    6     -0.78      0.00
   14    4    6     -3.99      0.00
   15    5    6      0.56      0.00
   16    6    6      3.35      0.00
   17    7    6      3.24      0.00
   18    8    6     -3.11      0.00
   19    9    6     -2.10      0.00
   20   10    6      0.26      0.00
   21   11    6      0.98      0.00
   22   12    6     -0.01      0.00
   23   13    6     -1.20      0.00
   24   14    6     -0.76      0.00
   25   15    6      1.90      0.00
   26   16    6      0.83      0.00
  -17   29    6     -0.88      0.00
  -16   28    6      2.15      0.00
  -15   27    6     -0.16      0.00
  -14   26    6      0.95      0.00
  -13   25    6      0.85      0.00
  -12   24    6     -1.58      0.00
  -11   23    6      0.31      0.00
  -10   22    6      0.55      0.00
   -9   21    6      1.40      0.00
   12    0    6    -11.32      0.00
   13    1    6      4.37      0.00
   14    2    6      2.86      0.00
   15    3    6     -1.64      0.00
   16    4    6      0.31      0.00
   17    5    6      3.52      0.00
   18    6    6     -1.33      0.00
   19    7    6     -2.48      0.00
   20    8    6     -1.46      0.00
   21    9    6      2.94      0.00
   22   10    6      0.79      0.00
   23   11    6     -1.59      0.00
   24   12    6     -1.05      0.00
   25   13    6      1.56      0.00
   26   14    6      1.47      0.00
  -16   30    6      4.14      0.00
  -15   29    6     -6.30      0.00
  -14   28    6      1.40      0.00
  -13   27    6     -1.04      0.00
  -12   26    6     -0.38      0.00
  -11   25    6      0.48      0.00
  -10   24    6      1.57      0.00
   -9   23    6     -0.83      0.00
   14    0    6      5.17      0.00
   15    1    6      2.98      0.00
   16    2    6     -5.47      0.00
   17    3    6     -0.81      0.00
   18    4    6      2.51      0.00
   19    5    6     -3.91      0.00
   20    6    6      0.50      0.00
   21    7    6      2.81      0.00
   22    8    6      0.72      0.00
   23    9    6      0.38      0.00
   24   10    6     -2.43      0.00
   25   11    6      0.68      0.00
   26   12    6      0.84      0.00
   27   13    6     -0.46      0.00
  -15   31    6     -4.17      0.00
  -14   30    6      1.54      0.00
  -13   29    6      3.59      0.00
  -12   28    6     -0.24      0.00
  -11   27    6      0.21      0.00
  -10   26    6     -1.58      0.00
   -9   25    6      1.81      0.00
   -8   24    6     -0.09      0.00
   16    0    6    -10.75      0.00
   17    1    6     -0.10      0.00
   18    2    6      2.17      0.00
   19    3    6      0.60      0.00
   20    4    6     -0.87      0.00
   21    5    6      1.06      0.00
   22    6    6     -0.24      0.00
   23    7    6      0.48      0.00
   24    8    6     -2.40      0.00
   25    9    6      2.25      0.00
   26   10    6      0.43      0.00
   27   11    6     -0.75      0.00
  -14   32    6     -1.59      0.00
  -13   31    6      4.84      0.00
  -12   30    6     -3.54      0.00
  -11   29    6     -0.39      0.00
  -10   28    6     -1.33      0.00
   -9   27    6      1.11      0.00
   -8   26    6      2.14      0.00
   18    0    6      4.20      0.00
   19    1    6      2.21      0.00
   20    2    6     -0.74      0.00
   21    3    6      0.35      0.00
   22    4    6      0.11      0.00
   23    5    6     -0.80      0.00
   24    6    6     -0.22      0.00
   25    7    6      0.06      0.00
   26    8    6     -0.48      0.00
   27    9    6      0.84      0.00
   28   10    6     -2.12      0.00
  -13   33    6      1.68      0.00
  -12   32    6     -1.70      0.00
  -11   31    6     -1.29      0.00
  -10   30    6      3.86      0.00
   -9   29    6     -1.97      0.00
   -8   28    6     -0.03      0.00
   -7   27    6     -0.52      0.00
   20    0    6      2.03      0.00
   21    1    6     -3.79      0.00
   22    2    6     -3.29      0.00
   23    3    6      1.27      0.00
   24    4    6      0.41      0.00
   25    5    6     -1.30      0.00
   26    6    6     -0.66      0.00
   27    7    6      0.71      0.00
   28    8    6     -0.05      0.00
   29    9    6      1.58      0.00
  -12   34    6      0.65      0.00
  -11   33    6     -0.77      0.00
  -10   32    6      2.18      0.00
   -9   31    6     -3.16      0.00
   -8   30    6     -0.02      0.00
   -7   29    6      0.90      0.00
   22    0    6      0.51      0.00
   23    1    6      1.40      0.00
   24    2    6      2.75      0.00
   25    3    6      1.17      0.00
   26    4    6     -0.56      0.00
   27    5    6      1.89      0.00
   28    6    6     -0.49      0.00
   29    7    6      1.84      0.00
  -11   35    6      0.83      0.00
  -10   34    6      0.81      0.00
   -9   33    6     -1.82      0.00
   -8   32    6      1.77      0.00
   -7   31    6      0.13      0.00
   -6   30    6      2.17      0.00
   24    0    6      1.56      0.00
   25    1    6     -0.99      0.00
   26    2    6     -0.64      0.00
   27    3    6     -0.80      0.00
   28    4    6     -1.70      0.00
   29    5    6     -0.23      0.00
   30    6    6     -3.84      0.00
   -9   35    6      0.36      0.00
   -8   34    6     -2.63      0.00
   -7   33    6      2.52      0.00
   -6   32    6      0.21      0.00
   26    0    6     -1.71      0.00
   27    1    6     -0.43      0.00
   28    2    6      0.37      0.00
   29    3    6      2.28      0.00
   30    4    6      1.28      0.00
   -8   36    6     -1.93      0.00
   -7   35    6      0.82      0.00
   -6   34    6      0.68      0.00
   -5   33    6     -1.10      0.00
   28    0    6     -0.82      0.00
   29    1    6     -0.40      0.00
   30    2    6      0.42      0.00
   31    3    6     -2.68      0.00
   -6   36    6      0.04      0.00
   -5   35    6     -0.27      0.00
   30    0    6      5.08      0.00
   31    1    6     -3.03      0.00
   -5   37    6      4.73      0.00
   -4   36    6     -4.90      0.00
   -3   37    6     -0.57      0.00
   -2   36    6      1.56      0.00
   -1   37    6      0.53      0.00
   31    5    6      4.22      0.00
   28   12    6     -0.43      0.00
   27   15    6     -3.79      0.00
  -26   14    7     -0.99      0.00
  -27   11    7      0.48      0.00
  -26   12    7      3.12      0.00
  -25   13    7     -0.79      0.00
  -24   14    7      2.76      0.00
  -23   15    7     -1.79      0.00
   -5   33    7     -0.97      0.00
   -4   34    7     -0.44      0.00
  -28    8    7      0.57      0.00
  -27    9    7     -1.35      0.00
  -26   10    7     -0.10      0.00
  -25   11    7      0.12      0.00
  -24   12    7     -1.49      0.00
  -23   13    7     -2.80      0.00
  -22   14    7     -0.61      0.00
  -21   15    7      1.60      0.00
   -6   30    7     -0.75      0.00
   -5   31    7      1.05      0.00
   -4   32    7     -0.89      0.00
   -3   33    7      0.85      0.00
   -2   34    7     -0.77      0.00
   -1   35    7     -1.05      0.00
  -31    3    7      3.78      0.00
  -30    4    7      1.32      0.00
  -29    5    7     -0.80      0.00
  -28    6    7      3.24      0.00
  -27    7    7      0.87      0.00
  -26    8    7      0.57      0.00
  -25    9    7     -1.90      0.00
  -24   10    7     -0.97      0.00
  -23   11    7      1.33      0.00
  -22   12    7      0.06      0.00
  -21   13    7      2.94      0.00
  -20   14    7     -0.05      0.00
  -19   15    7      0.10      0.00
  -18   16    7     -2.03      0.00
   -7   27    7      0.75      0.00
   -6   28    7      1.01      0.00
   -5   29    7     -0.45      0.00
   -4   30    7      0.92      0.00
   -3   31    7     -0.77      0.00
   -2   32    7     -0.32      0.00
   -1   33    7     -0.80      0.00
    0   34    7      3.03      0.00
    1   35    7      0.25      0.00
    2   36    7      1.26      0.00
  -31    1    7     -1.29      0.00
  -30    2    7      1.36      0.00
  -29    3    7     -1.88      0.00
  -28    4    7     -0.28      0.00
  -27    5    7     -1.04      0.00
  -26    6    7      0.29      0.00
  -25    7    7     -1.37      0.00
  -24    8    7     -0.75      0.00
  -23    9    7      1.62      0.00
  -22   10    7     -0.49      0.00
  -21   11    7      1.97      0.00
  -20   12    7     -0.56      0.00
  -19   13    7      0.09      0.00
  -18   14    7     -1.03      0.00
  -17   15    7     -1.70      0.00
  -16   16    7      0.42      0.00
   -8   24    7     -0.03      0.00
   -7   25    7     -0.75      0.00
   -6   26    7     -0.97      0.00
   -5   27    7      0.04      0.00
   -4   28    7     -1.04      0.00
   -3   29    7      0.47      0.00
   -2   30    7     -0.41      0.00
   -1   31    7      1.38      0.00
    0   32    7      0.07      0.00
    1   33    7      0.28      0.00
    2   34    7     -3.29      0.00
    3   35    7      1.98      0.00
    4   36    7      0.44      0.00
  -32    2    7     -0.38      0.00
  -29    1    7     -2.80      0.00
  -28    2    7      0.25      0.00
  -27    3    7      1.09      0.00
  -26    4    7     -0.45      0.00
  -25    5    7     -0.37      0.00
  -24    6    7     -0.52      0.00
  -23    7    7      2.03      0.00
  -22    8    7      0.66      0.00
  -21    9    7     -0.87      0.00
  -20   10    7      0.13      0.00
  -19   11    7     -1.95      0.00
  -18   12    7     -2.19      0.00
  -17   13    7      2.93      0.00
  -16   14    7      0.74      0.00
  -15   15    7      1.57      0.00
  -14   16    7      0.60      0.00
  -13   17    7     -2.41      0.00
  -12   18    7     -4.01      0.00
  -11   19    7     -2.81      0.00
  -10   20    7     -0.27      0.00
   -9   21    7      4.27      0.00
   -7   23    7      0.63      0.00
   -6   24    7      0.62      0.00
   -5   25    7      0.96      0.00
   -4   26    7     -1.77      0.00
   -3   27    7     -0.61      0.00
   -2   28    7      0.01      0.00
   -1   29    7     -0.09      0.00
    0   30    7      0.50      0.00
    1   31    7     -1.21      0.00
    2   32    7     -1.06      0.00
    3   33    7      0.48      0.00
    4   34    7      2.24      0.00
    5   35    7     -2.67      0.00
    6   36    7      0.99      0.00
    7   37    7      1.96      0.00
  -32    4    7      1.26      0.00
  -27    1    7      2.16      0.00
  -26    2    7     -1.44      0.00
  -25    3    7      0.82      0.00
  -24    4    7     -3.24      0.00
  -23    5    7      3.75      0.00
  -22    6    7      0.99      0.00
  -21    7    7     -1.49      0.00
  -20    8    7      0.24      0.00
  -19    9    7     -1.75      0.00
  -18   10    7      0.08      0.00
  -17   11    7      1.17      0.00
  -16   12    7     -0.12      0.00
  -15   13    7      0.26      0.00
  -14   14    7      0.31      0.00
  -13   15    7     -1.15      0.00
  -12   16    7      0.81      0.00
  -11   17    7      1.05      0.00
  -10   18    7      1.50      0.00
   -9   19    7      1.03      0.00
   -8   20    7     -0.84      0.00
   -7   21    7     -2.76      0.00
   -6   22    7     -3.45      0.00
   -5   23    7      1.16      0.00
   -4   24    7      0.10      0.00
   -3   25    7      1.98      0.00
   -2   26    7      0.02      0.00
   -1   27    7      1.71      0.00
    0   28    7      0.39      0.00
    1   29    7     -0.68      0.00
    2   30    7     -0.78      0.00
    3   31    7      0.26      0.00
    4   32    7      1.36      0.00
    5   33    7     -1.78      0.00
    6   34    7     -0.58      0.00
    7   35    7      0.03      0.00
    8   36    7      1.67      0.00
    9   37    7     -1.69      0.00
  -31    5    7     -5.26      0.00
  -25    1    7     -1.43      0.00
  -24    2    7      1.82      0.00
  -23    3    7      2.92      0.00
  -22    4    7     -2.23      0.00
  -21    5    7     -1.88      0.00
  -20    6    7     -0.60      0.00
  -19    7    7     -1.02      0.00
  -18    8    7      0.46      0.00
  -17    9    7      3.20      0.00
  -16   10    7      1.62      0.00
  -15   11    7     -0.50      0.00
  -14   12    7     -2.65      0.00
  -13   13    7     -1.81      0.00
  -12   14    7     -1.90      0.00
  -11   15    7      0.84      0.00
  -10   16    7      1.85      0.00
   -9   17    7      3.65      0.00
   -8   18    7      0.24      0.00
   -7   19    7     -0.14      0.00
   -6   20    7     -0.53      0.00
   -5   21    7      0.56      0.00
   -4   22    7      0.43      0.00
   -3   23    7     -1.65      0.00
   -2   24    7     -1.59      0.00
   -1   25    7     -0.13      0.00
    0   26    7     -0.12      0.00
    1   27    7     -0.91      0.00
    2   28    7      0.86      0.00
    3   29    7      0.54      0.00
    4   30    7      1.43      0.00
    5   31    7      0.39      0.00
    6   32    7     -1.44      0.00
    7   33    7      2.03      0.00
    8   34    7      0.17      0.00
    9   35    7     -0.51      0.00
   10   36    7     -0.84      0.00
  -31    7    7     -0.37      0.00
  -30    6    7      2.15      0.00
  -23    1    7      0.77      0.00
  -22    2    7     -2.75      0.00
  -21    3    7      0.05      0.00
  -20    4    7      0.55      0.00
  -19    5    7      1.05      0.00
  -18    6    7      1.65      0.00
  -17    7    7      0.46      0.00
  -16    8    7      0.70      0.00
  -15    9    7     -4.94      0.00
  -14   10    7     -0.63      0.00
  -13   11    7      0.02      0.00
  -12   12    7      1.45      0.00
  -11   13    7      5.71      0.00
  -10   14    7      3.15      0.00
   -9   15    7     -6.23      0.00
   -8   16    7     -4.49      0.00
   -7   17    7     -0.61      0.00
   -6   18    7     -1.75      0.00
   -5   19    7      0.15      0.00
   -4   20    7      2.36      0.00
   -3   21    7      2.78      0.00
   -2   22    7     -0.43      0.00
   -1   23    7      2.37      0.00
    0   24    7     -1.26      0.00
    1   25    7     -0.70      0.00
    2   26    7      0.42      0.00
    3   27    7     -1.92      0.00
    4   28    7      0.22      0.00
    5   29    7      0.57      0.00
    6   30    7     -2.67      0.00
    7   31    7      1.10      0.00
    8   32    7      1.32      0.00
    9   33    7     -3.68      0.00
   10   34    7     -0.72      0.00
   11   35    7      1.73      0.00
  -30    8    7      2.36      0.00
  -29    7    7     -3.82      0.00
  -21    1    7      0.79      0.00
  -20    2    7     -0.85      0.00
  -19    3    7      1.60      0.00
  -18    4    7      0.80      0.00
  -17    5    7     -1.29      0.00
  -16    6    7     -0.68      0.00
  -15    7    7     -2.92      0.00
  -14    8    7      2.02      0.00
  -13    9    7      1.44      0.00
  -12   10    7      0.19      0.00
  -11   11    7      2.18      0.00
  -10   12    7      2.46      0.00
   -9   13    7     -7.83      0.00
   -8   14    7      2.90      0.00
   -7   15    7     -1.29      0.00
   -6   16    7      3.86      0.00
   -5   17    7     -2.41      0.00
   -4   18    7      2.50      0.00
   -3   19    7      0.03      0.00
   -2   20    7     -2.57      0.00
   -1   21    7     -0.98      0.00
    0   22    7      1.07      0.00
    1   23    7     -0.01      0.00
    2   24    7      0.05      0.00
    3   25    7      0.34      0.00
    4   26    7      2.06      0.00
    5   27    7      1.03      0.00
    6   28    7     -2.47      0.00
    7   29    7      1.21      0.00
    8   30    7      1.27      0.00
    9   31    7     -1.02      0.00
   10   32    7      2.49      0.00
   11   33    7      0.48      0.00
   12   34    7      1.10      0.00
  -29    9    7     -0.56      0.00
  -19    1    7      0.23      0.00
  -18    2    7     -0.44      0.00
  -17    3    7      0.30      0.00
  -16    4    7     -1.78      0.00
  -15    5    7     -2.34      0.00
  -14    6    7      3.00      0.00
  -13    7    7      4.69      0.00
  -12    8    7     -0.31      0.00
  -11    9    7     -3.26      0.00
  -10   10    7      2.81      0.00
   -9   11    7     -7.09      0.00
   -8   12    7     -8.70      0.00
   -7   13    7      3.70      0.00
   -6   14    7      9.46      0.00
   -5   15    7      0.96      0.00
   -4   16    7     -4.09      0.00
   -3   17    7      5.75      0.00
   -2   18    7     -2.53      0.00
   -1   19    7     -2.06      0.00
    0   20    7     -1.90      0.00
    1   21    7     -1.00      0.00
    2   22    7      2.11      0.00
    3   23    7     -1.34      0.00
    4   24    7      0.19      0.00
    5   25    7     -0.34      0.00
    6   26    7     -0.28      0.00
    7   27    7     -0.54      0.00
    8   28    7      0.15      0.00
    9   29    7     -0.06      0.00
   10   30    7     -1.50      0.00
   11   31    7      0.99      0.00
   12   32    7     -3.04      0.00
   13   33    7      0.46      0.00
  -29   11    7     -0.54      0.00
  -28   10    7      2.20      0.00
  -17    1    7     -1.45      0.00
  -16    2    7     -0.24      0.00
  -15    3    7     -1.87      0.00
  -14    4    7      3.78      0.00
  -13    5    7      2.89      0.00
  -12    6    7     -1.92      0.00
  -11    7    7     -6.27      0.00
  -10    8    7      4.57      0.00
   -9    9    7      3.46      0.00
   -8   10    7     -7.59      0.00
   -7   11    7     11.33      0.00
   -6   12    7     10.73      0.00
   -5   13    7     -5.01      0.00
   -4   14    7     -8.11      0.00
   -3   15    7      1.47      0.00
   -2   16    7     -1.67      0.00
   -1   17    7     -2.13      0.00
    0   18    7     -0.95      0.00
    1   19    7      6.02      0.00
    2   20    7      2.53      0.00
    3   21    7     -1.16      0.00
    4   22    7      0.22      0.00
    5   23    7     -0.53      0.00
    6   24    7      0.54      0.00
    7   25    7     -1.77      0.00
    8   26    7     -0.26      0.00
    9   27    7      1.63      0.00
   10   28    7      0.14      0.00
   11   29    7     -2.72      0.00
   12   30    7      2.74      0.00
   13   31    7      1.61      0.00
   14   32    7     -2.52      0.00
  -28   12    7     -0.06      0.00
  -15    1    7      0.05      0.00
  -14    2    7      4.84      0.00
  -13    3    7      3.34      0.00
  -12    4    7     -4.24      0.00
  -11    5    7     -9.01      0.00
  -10    6    7     -2.15      0.00
   -9    7    7      2.96      0.00
   -8    8    7     -5.58      0.00
   -7    9    7      0.81      0.00
   -6   10    7      5.87      0.00
   -5   11    7     -7.48      0.00
   -4   12    7     -9.50      0.00
   -3   13    7     -0.08      0.00
   -2   14    7      3.83      0.00
   -1   15    7      0.11      0.00
    0   16    7      4.16      0.00
    1   17    7      2.34      0.00
    2   18    7     -3.51      0.00
    3   19    7     -0.25      0.00
    4   20    7     -2.81      0.00
    5   21    7     -1.15      0.00
    6   22    7      0.27      0.00
    7   23    7      3.05      0.00
    8   24    7     -1.13      0.00
    9   25    7      0.62      0.00
   10   26    7      1.35      0.00
   11   27    7      0.37      0.00
   12   28    7     -0.02      0.00
   13   29    7      1.41      0.00
   14   30    7     -0.90      0.00
   15   31    7      0.24      0.00
  -28   14    7      0.49      0.00
  -27   13    7     -1.07      0.00
  -13    1    7     -0.94      0.00
  -12    2    7     -3.40      0.00
  -11    3    7     -4.97      0.00
  -10    4    7      2.69      0.00
   -9    5    7     15.23      0.00
   -8    6    7      2.50      0.00
   -7    7    7      5.82      0.00
   -6    8    7      0.44      0.00
   -5    9    7      4.96      0.00
   -4   10    7     -5.44      0.00
   -3   11    7      0.86      0.00
   -2   12    7     -2.30      0.00
   -1   13    7      5.16      0.00
    0   14    7     -0.57      0.00
    1   15    7      0.02      0.00
    2   16    7     -3.70      0.00
    3   17    7      2.86      0.00
    4   18    7     -1.57      0.00
    5   19    7     -1.28      0.00
    6   20    7      4.52      0.00
    7   21    7     -0.74      0.00
    8   22    7     -2.16      0.00
    9   23    7     -0.43      0.00
   10   24    7      1.71      0.00
   11   25    7     -0.71      0.00
   12   26    7     -2.70      0.00
   13   27    7     -0.54      0.00
   14   28    7     -1.19      0.00
   15   29    7     -1.07      0.00
   16   30    7     -0.41      0.00
  -27   15    7     -1.12      0.00
  -11    1    7      0.44      0.00
  -10    2    7     -3.97      0.00
   -9    3    7      8.19      0.00
   -8    4    7      2.55      0.00
   -7    5    7    -10.44      0.00
   -6    6    7     -9.57      0.00
   -5    7    7     -9.64      0.00
   -4    8    7     -2.83      0.00
   -3    9    7     -2.37      0.00
   -2   10    7      8.97      0.00
   -1   11    7      8.24      0.00
    0   12    7     10.61      0.00
    1   13    7     -5.65      0.00
    2   14    7     -5.33      0.00
    3   15    7     -6.74      0.00
    4   16    7      7.72      0.00
    5   17    7     -1.22      0.00
    6   18    7     -2.61      0.00
    7   19    7      4.98      0.00
    8   20    7     -2.40      0.00
    9   21    7      1.55      0.00
   10   22    7     -1.45      0.00
   11   23    7      0.82      0.00
   12   24    7      0.51      0.00
   13   25    7     -1.67      0.00
   14   26    7      4.49      0.00
   15   27    7     -0.14      0.00
   16   28    7      0.61      0.00
   17   29    7      1.17      0.00
  -26   16    7      2.05      0.00
  -25   15    7     -1.43      0.00
   -9    1    7      2.59      0.00
   -8    2    7      5.46      0.00
   -7    3    7     -4.48      0.00
   -6    4    7     -1.15      0.00
   -5    5    7    -10.05      0.00
   -4    6    7     16.02      0.00
   -3    7    7      1.80      0.00
   -2    8    7     -4.89      0.00
   -1    9    7      1.13      0.00
    0   10    7     -3.39      0.00
    1   11    7    -10.89      0.00
    2   12    7    -13.20      0.00
    3   13    7      7.91      0.00
    4   14    7      9.46      0.00
    5   15    7     -2.54      0.00
    6   16    7     -1.54      0.00
    7   17    7      0.13      0.00
    8   18    7      3.99      0.00
    9   19    7     -6.38      0.00
   10   20    7     -1.21      0.00
   11   21    7      2.77      0.00
   12   22    7     -0.15      0.00
   13   23    7     -2.78      0.00
   14   24    7      1.70      0.00
   15   25    7     -1.66      0.00
   16   26    7     -0.51      0.00
   17   27    7      0.83      0.00
  -25   17    7     -0.26      0.00
  -24   16    7      3.06      0.00
   -7    1    7     -1.23      0.00
   -6    2    7     -3.35      0.00
   -5    3    7     -8.73      0.00
   -4    4    7      2.30      0.00
   -3    5    7     39.34      0.00
   -2    6    7      1.25      0.00
   -1    7    7     -2.88      0.00
    0    8    7      0.37      0.00
    1    9    7     -7.68      0.00
    2   10    7      2.20      0.00
    3   11    7      0.86      0.00
    4   12    7      9.32      0.00
    5   13    7      3.70      0.00
    6   14    7     -7.11      0.00
    7   15    7     -0.60      0.00
    8   16    7     -0.11      0.00
    9   17    7     -1.61      0.00
   10   18    7      3.19      0.00
   11   19    7     -0.69      0.00
   12   20    7      2.18      0.00
   13   21    7     -0.13      0.00
   14   22    7      1.12      0.00
   15   23    7     -1.66      0.00
   16   24    7      3.28      0.00
   17   25    7      0.45      0.00
   18   26    7     -1.93      0.00
  -25   19    7     -2.28      0.00
  -24   18    7     -2.70      0.00
  -23   17    7      1.61      0.00
  -22   16    7     -2.74      0.00
   -5    1    7    -20.69      0.00
   -4    2    7      7.39      0.00
   -3    3    7      8.61      0.00
   -2    4    7     -6.11      0.00
   -1    5    7    -52.74      0.00
    0    6    7     -2.43      0.00
    1    7    7     28.08      0.00
    2    8    7     -6.62      0.00
    3    9    7      4.38      0.00
    4   10    7      8.02      0.00
    5   11    7      3.19      0.00
    6   12    7    -14.97      0.00
    7   13    7     -3.39      0.00
    8   14    7      7.21      0.00
    9   15    7      4.23      0.00
   10   16    7     -6.05      0.00
   11   17    7      1.69      0.00
   12   18    7      1.44      0.00
   13   19    7      0.02      0.00
   14   20    7     -2.07      0.00
   15   21    7     -0.80      0.00
   16   22    7     -0.87      0.00
   17   23    7      1.25      0.00
   18   24    7     -2.70      0.00
   19   25    7     -1.96      0.00
  -24   20    7     -1.13      0.00
  -23   19    7      1.43      0.00
  -22   18    7     -0.06      0.00
  -21   17    7     -0.08      0.00
  -20   16    7      0.08      0.00
   -3    1    7     54.36      0.00
   -2    2    7     -7.72      0.00
   -1    3    7    -20.80      0.00
    0    4    7      2.17      0.00
    1    5    7     10.48      0.00
    2    6    7    -19.22      0.00
    3    7    7     12.76      0.00
    4    8    7     -5.29      0.00
    5    9    7     -8.29      0.00
    6   10    7      3.52      0.00
    7   11    7      1.42      0.00
    8   12    7     -2.36      0.00
    9   13    7      2.88      0.00
   10   14    7      1.54      0.00
   11   15    7     -2.98      0.00
   12   16    7      1.13      0.00
   13   17    7     -2.08      0.00
   14   18    7      1.70      0.00
   15   19    7     -1.78      0.00
   16   20    7      0.93      0.00
   17   21    7      1.52      0.00
   18   22    7      1.93      0.00
   19   23    7     -0.93      0.00
   20   24    7      2.68      0.00
  -23   21    7      1.04      0.00
  -22   20    7      2.79      0.00
  -21   19    7     -1.11      0.00
  -20   18    7     -1.68      0.00
  -19   17    7      2.70      0.00
   -1    1    7    -44.57      0.00
    0    2    7     -2.17      0.00
    1    3    7     62.84      0.00
    2    4    7     33.05      0.00
    3    5    7     -8.80      0.00
    4    6    7     -3.53      0.00
    5    7    7    -10.76      0.00
    6    8    7      1.26      0.00
    7    9    7     -2.59      0.00
    8   10    7     -3.20      0.00
    9   11    7      4.90      0.00
   10   12    7      5.57      0.00
   11   13    7     -6.06      0.00
   12   14    7     -3.57      0.00
   13   15    7      6.50      0.00
   14   16    7     -2.48      0.00
   15   17    7     -0.53      0.00
   16   18    7     -0.56      0.00
   17   19    7      2.38      0.00
   18   20    7      0.24      0.00
   19   21    7     -4.90      0.00
   20   22    7     -1.32      0.00
   21   23    7      1.47      0.00
  -22   22    7     -2.92      0.00
  -21   21    7      1.81      0.00
  -20   20    7      0.39      0.00
  -19   19    7     -2.73      0.00
  -18   18    7      5.11      0.00
  -17   17    7     -1.30      0.00
    1    1    7     -2.87      0.00
    2    2    7    -13.23      0.00
    3    3    7    -61.46      0.00
    4    4    7      2.19      0.00
    5    5    7     -4.27      0.00
    6    6    7      8.47      0.00
    7    7    7     17.96      0.00
    8    8    7     -2.37      0.00
    9    9    7      1.95      0.00
   10   10    7     -0.64      0.00
   11   11    7     -2.08      0.00
   12   12    7      0.83      0.00
   13   13    7     -2.27      0.00
   14   14    7      3.35      0.00
   15   15    7      0.90      0.00
   16   16    7     -1.16      0.00
   17   17    7     -1.46      0.00
   18   18    7      3.06      0.00
   19   19    7     -1.12      0.00
   20   20    7     -1.17      0.00
   21   21    7      5.24      0.00
   22   22    7     -0.66      0.00
  -21   23    7      0.24      0.00
  -20   22    7     -7.49      0.00
  -19   21    7      4.72      0.00
  -18   20    7     -0.31      0.00
  -17   19    7     -3.26      0.00
  -16   18    7     -0.46      0.00
  -15   17    7     -0.62      0.00
    3    1    7     24.57      0.00
    4    2    7      4.12      0.00
    5    3    7      2.94      0.00
    6    4    7      5.83      0.00
    7    5    7      3.16      0.00
    8    6    7     -2.37      0.00
    9    7    7    -22.55      0.00
   10    8    7     13.53      0.00
   11    9    7      3.84      0.00
   12   10    7    -11.26      0.00
   13   11    7      0.53      0.00
   14   12    7      6.33      0.00
   15   13    7     -2.22      0.00
   16   14    7     -0.45      0.00
   17   15    7     -1.00      0.00
   18   16    7      0.76      0.00
   19   17    7     -0.64      0.00
   20   18    7     -0.72      0.00
   21   19    7     -0.04      0.00
   22   20    7      0.20      0.00
  -21   25    7      5.31      0.00
  -20   24    7     -2.07      0.00
  -19   23    7      6.82      0.00
  -18   22    7     -2.93      0.00
  -17   21    7     -0.12      0.00
  -16   20    7      3.02      0.00
  -15   19    7     -3.57      0.00
  -14   18    7      5.11      0.00
    5    1    7      6.06      0.00
    6    2    7     -4.34      0.00
    7    3    7      7.36      0.00
    8    4    7     -1.37      0.00
    9    5    7      1.03      0.00
   10    6    7     -2.50      0.00
   11    7    7      3.43      0.00
   12    8    7     -2.76      0.00
   13    9    7     -1.64      0.00
   14   10    7      5.38      0.00
   15   11    7     -0.57      0.00
   16   12    7     -2.96      0.00
   17   13    7     -1.44      0.00
   18   14    7      0.64      0.00
   19   15    7      0.26      0.00
   20   16    7      2.67      0.00
   21   17    7     -1.33      0.00
   22   18    7      0.08      0.00
   23   19    7      1.00      0.00
  -20   26    7     -4.07      0.00
  -19   25    7     -0.74      0.00
  -18   24    7     -1.92      0.00
  -17   23    7      2.58      0.00
  -16   22    7     -0.53      0.00
  -15   21    7     -3.78      0.00
  -14   20    7      5.61      0.00
  -13   19    7     -0.42      0.00
    7    1    7      1.22      0.00
    8    2    7      5.43      0.00
    9    3    7     -5.84      0.00
   10    4    7    -17.78      0.00
   11    5    7     12.87      0.00
   12    6    7      7.55      0.00
   13    7    7     -9.08      0.00
   14    8    7      4.29      0.00
   15    9    7      2.06      0.00
   16   10    7     -0.14      0.00
   17   11    7     -0.68      0.00
   18   12    7      0.58      0.00
   19   13    7      1.70      0.00
   20   14    7      0.28      0.00
   21   15    7     -2.57      0.00
   22   16    7     -1.04      0.00
   23   17    7      0.47      0.00
   24   18    7      2.06      0.00
  -19   27    7     -0.15      0.00
  -18   26    7      1.02      0.00
  -17   25    7      0.46      0.00
  -16   24    7     -2.40      0.00
  -15   23    7      0.85      0.00
  -14   22    7      0.13      0.00
  -13   21    7     -1.62      0.00
  -12   20    7      0.97      0.00
    9    1    7     -6.42      0.00
   10    2    7      0.17      0.00
   11    3    7      9.85      0.00
   12    4    7     -2.72      0.00
   13    5    7     -0.61      0.00
   14    6    7     -1.22      0.00
   15    7    7     -0.85      0.00
   16    8    7     -1.92      0.00
   17    9    7     -1.11      0.00
   18   10    7     -0.41      0.00
   19   11    7      0.38      0.00
   20   12    7      1.51      0.00
   21   13    7     -1.18      0.00
   22   14    7      2.00      0.00
   23   15    7      1.03      0.00
   24   16    7     -3.47      0.00
  -18   28    7      0.87      0.00
  -17   27    7     -0.14      0.00
  -16   26    7      2.01      0.00
  -15   25    7     -0.47      0.00
  -14   24    7      0.59      0.00
  -13   23    7      1.04      0.00
  -12   22    7     -0.57      0.00
  -11   21    7      0.16      0.00
   11    1    7     -9.79      0.00
   12    2    7     14.71      0.00
   13    3    7      3.54      0.00
   14    4    7    -11.57      0.00
   15    5    7      0.35      0.00
   16    6    7      5.18      0.00
   17    7    7     -0.36      0.00
   18    8    7     -0.76      0.00
   19    9    7     -0.37      0.00
   20   10    7      1.81      0.00
   21   11    7     -0.73      0.00
   22   12    7     -1.78      0.00
   23   13    7      0.11      0.00
   24   14    7     -0.60      0.00
   25   15    7      0.43      0.00
  -17   29    7     -1.60      0.00
  -16   28    7      2.53      0.00
  -15   27    7     -2.13      0.00
  -14   26    7     -1.26      0.00
  -13   25    7     -2.00      0.00
  -12   24    7      3.89      0.00
  -11   23    7     -2.51      0.00
  -10   22    7     -1.06      0.00
   13    1    7     -7.54      0.00
   14    2    7     -3.17      0.00
   15    3    7     -4.31      0.00
   16    4    7      5.94      0.00
   17    5    7      3.35      0.00
   18    6    7     -1.72      0.00
   19    7    7     -0.98      0.00
   20    8    7      0.93      0.00
   21    9    7     -0.85      0.00
   22   10    7     -0.30      0.00
   23   11    7     -0.02      0.00
   24   12    7     -1.52      0.00
   25   13    7      1.17      0.00
   26   14    7      1.96      0.00
  -16   30    7     -1.31      0.00
  -15   29    7      0.44      0.00
  -14   28    7      0.17      0.00
  -13   27    7     -2.95      0.00
  -12   26    7      7.38      0.00
  -11   25    7     -3.44      0.00
  -10   24    7     -1.86      0.00
   -9   23    7      0.91      0.00
   -8   22    7      1.48      0.00
   15    1    7     -1.40      0.00
   16    2    7      5.88      0.00
   17    3    7      3.28      0.00
   18    4    7     -4.24      0.00
   19    5    7     -2.92      0.00
   20    6    7     -0.19      0.00
   21    7    7      1.41      0.00
   22    8    7      1.95      0.00
   23    9    7     -1.26      0.00
   24   10    7      0.67      0.00
   25   11    7      2.30      0.00
   26   12    7     -1.97      0.00
  -15   31    7      3.60      0.00
  -14   30    7     -1.69      0.00
  -13   29    7     -0.90      0.00
  -12   28    7      1.92      0.00
  -11   27    7     -1.86      0.00
  -10   26    7     -0.40      0.00
   -9   25    7      0.86      0.00
   17    1    7      1.03      0.00
   18    2    7     -2.84      0.00
   19    3    7     -3.93      0.00
   20    4    7      1.13      0.00
   21    5    7      2.83      0.00
   22    6    7      2.17      0.00
   23    7    7     -3.90      0.00
   24    8    7      0.06      0.00
   25    9    7      1.93      0.00
   26   10    7     -0.10      0.00
   27   11    7     -1.50      0.00
  -14   32    7     -1.51      0.00
  -13   31    7      1.39      0.00
  -12   30    7     -1.73      0.00
  -11   29    7      3.16      0.00
  -10   28    7     -1.92      0.00
   -9   27    7      1.14      0.00
   -8   26    7      0.55      0.00
   19    1    7      0.29      0.00
   20    2    7     -0.38      0.00
   21    3    7      3.27      0.00
   22    4    7     -0.25      0.00
   23    5    7     -1.16      0.00
   24    6    7     -0.22      0.00
   25    7    7      0.82      0.00
   26    8    7     -2.59      0.00
   27    9    7     -0.27      0.00
   28   10    7      3.87      0.00
  -13   33    7     -0.75      0.00
  -12   32    7     -0.59      0.00
  -11   31    7      2.23      0.00
  -10   30    7     -0.27      0.00
   -9   29    7     -2.77      0.00
   -8   28    7      0.32      0.00
   21    1    7      2.64      0.00
   22    2    7     -0.50      0.00
   23    3    7     -1.70      0.00
   24    4    7     -1.60      0.00
   25    5    7     -1.21      0.00
   26    6    7      0.98      0.00
   27    7    7      0.74      0.00
   28    8    7      0.56      0.00
  -12   34    7      1.02      0.00
  -11   33    7     -0.70      0.00
  -10   32    7     -0.33      0.00
   -9   31    7      0.34      0.00
   -8   30    7     -1.21      0.00
   -7   29    7      1.15      0.00
   23    1    7      1.53      0.00
   24    2    7     -1.07      0.00
   25    3    7      1.34      0.00
   26    4    7      2.45      0.00
   27    5    7      0.67      0.00
   28    6    7      0.05      0.00
   29    7    7     -1.10      0.00
  -11   35    7      2.49      0.00
  -10   34    7      0.13      0.00
   -9   33    7     -2.61      0.00
   -8   32    7      1.47      0.00
   -7   31    7      0.87      0.00
   25    1    7     -1.01      0.00
   26    2    7      0.84      0.00
   27    3    7     -0.32      0.00
   28    4    7     -1.92      0.00
   29    5    7     -0.19      0.00
   -8   34    7      4.92      0.00
   -7   33    7     -1.02      0.00
   -6   32    7     -0.29      0.00
   27    1    7     -2.78      0.00
   28    2    7      1.64      0.00
   29    3    7      1.90      0.00
   30    4    7      1.39      0.00
   -7   35    7     -2.33      0.00
   -6   34    7      0.74      0.00
   29    1    7     -2.29      0.00
   30    2    7     -0.08      0.00
   -6   36    7      1.55      0.00
   -5   35    7     -0.56      0.00
   31    1    7     -0.93      0.00
   -3   35    7      2.72      0.00
   -3   37    7      0.52      0.00
   -2   36    7      0.04      0.00
   31    3    7     -3.56      0.00
    0   36    7     -1.82      0.00
   30    6    7     -1.37      0.00
   31    5    7      0.78      0.00
   27   13    7      0.64      0.00
   28   12    7     -0.13      0.00
   29   11    7     -4.00      0.00
   25   17    7      2.14      0.00
   26   16    7      3.53      0.00
  -28   10    8     -2.94      0.00
  -27   11    8      1.59      0.00
  -26   12    8      0.40      0.00
  -25   13    8      2.14      0.00
  -24   14    8      1.23      0.00
  -23   15    8     -1.43      0.00
  -22   16    8     -0.18      0.00
   -6   32    8      0.77      0.00
   -5   33    8     -1.44      0.00
   -4   34    8     -0.33      0.00
  -30    6    8     -3.38      0.00
  -28    8    8      0.16      0.00
  -27    9    8     -1.36      0.00
  -26   10    8      1.10      0.00
  -25   11    8     -0.05      0.00
  -24   12    8      1.11      0.00
  -23   13    8     -1.52      0.00
  -22   14    8     -0.59      0.00
  -21   15    8      0.88      0.00
  -20   16    8     -4.27      0.00
   -7   29    8      0.14      0.00
   -6   30    8     -1.85      0.00
   -5   31    8     -3.60      0.00
   -4   32    8      2.29      0.00
   -3   33    8      1.58      0.00
   -2   34    8      0.40      0.00
   -1   35    8     -0.25      0.00
  -30    4    8      3.39      0.00
  -29    5    8      0.76      0.00
  -28    6    8      3.64      0.00
  -27    7    8     -1.37      0.00
  -26    8    8      2.36      0.00
  -25    9    8      1.04      0.00
  -24   10    8     -2.15      0.00
  -23   11    8     -0.04      0.00
  -22   12    8     -0.20      0.00
  -21   13    8     -0.15      0.00
  -20   14    8      0.16      0.00
  -19   15    8      1.76      0.00
  -18   16    8     -0.62      0.00
  -17   17    8     -2.41      0.00
   -9   25    8     -2.84      0.00
   -8   26    8     -1.58      0.00
   -7   27    8     -0.99      0.00
   -6   28    8      1.90      0.00
   -5   29    8      1.12      0.00
   -4   30    8      0.45      0.00
   -3   31    8      1.24      0.00
   -2   32    8      0.44      0.00
   -1   33    8     -1.44      0.00
    0   34    8     -1.04      0.00
    1   35    8      2.52      0.00
  -30    2    8     -3.30      0.00
  -29    3    8      2.67      0.00
  -28    4    8     -1.39      0.00
  -27    5    8     -0.99      0.00
  -26    6    8     -1.30      0.00
  -25    7    8      1.78      0.00
  -24    8    8     -1.58      0.00
  -23    9    8     -0.58      0.00
  -22   10    8     -1.08      0.00
  -21   11    8     -0.11      0.00
  -20   12    8      1.46      0.00
  -19   13    8      0.18      0.00
  -18   14    8      0.56      0.00
  -17   15    8      0.21      0.00
  -16   16    8     -3.15      0.00
  -15   17    8      1.48      0.00
  -14   18    8      1.19      0.00
  -13   19    8      0.22      0.00
  -12   20    8      2.08      0.00
  -11   21    8      0.95      0.00
   -9   23    8     -0.76      0.00
   -8   24    8     -1.35      0.00
   -7   25    8      0.37      0.00
   -6   26    8      0.73      0.00
   -5   27    8     -2.20      0.00
   -4   28    8      0.47      0.00
   -3   29    8     -0.93      0.00
   -2   30    8      0.50      0.00
   -1   31    8     -2.01      0.00
    0   32    8     -0.10      0.00
    1   33    8      0.34      0.00
    2   34    8      1.96      0.00
    3   35    8     -3.65      0.00
    4   36    8      1.36      0.00
  -30    0    8      1.54      0.00
  -29    1    8     -0.45      0.00
  -28    2    8     -3.19      0.00
  -27    3    8      3.08      0.00
  -26    4    8     -1.08      0.00
  -25    5    8     -0.47      0.00
  -24    6    8     -0.89      0.00
  -23    7    8     -0.48      0.00
  -22    8    8      0.54      0.00
  -21    9    8      1.28      0.00
  -20   10    8      0.47      0.00
  -19   11    8      0.32      0.00
  -18   12    8     -0.38      0.00
  -17   13    8     -0.76      0.00
  -16   14    8     -0.14      0.00
  -15   15    8      1.23      0.00
  -14   16    8      1.42      0.00
  -13   17    8     -0.55      0.00
  -12   18    8     -2.54      0.00
  -11   19    8     -1.46      0.00
  -10   20    8     -1.67      0.00
   -9   21    8     -0.14      0.00
   -8   22    8      0.56      0.00
   -7   23    8      1.47      0.00
   -6   24    8      0.84      0.00
   -5   25    8      1.55      0.00
   -4   26    8      0.03      0.00
   -3   27    8      0.17      0.00
   -2   28    8     -0.28      0.00
   -1   29    8     -0.62      0.00
    0   30    8      0.71      0.00
    1   31    8      0.35      0.00
    2   32    8      1.10      0.00
    3   33    8     -1.64      0.00
    4   34    8      0.63      0.00
    5   35    8     -0.61      0.00
    6   36    8     -0.68      0.00
  -31    3    8     -2.02      0.00
  -28    0    8      3.21      0.00
  -27    1    8      1.57      0.00
  -26    2    8     -3.14      0.00
  -25    3    8      1.23      0.00
  -24    4    8      0.36      0.00
  -23    5    8     -0.27      0.00
  -22    6    8      0.60      0.00
  -21    7    8      1.52      0.00
  -20    8    8      0.35      0.00
  -19    9    8      0.42      0.00
  -18   10    8     -1.99      0.00
  -17   11    8     -0.95      0.00
  -16   12    8     -0.54      0.00
  -15   13    8      0.03      0.00
  -14   14    8     -0.03      0.00
  -13   15    8      1.38      0.00
  -12   16    8      1.03      0.00
  -11   17    8      2.03      0.00
  -10   18    8     -0.78      0.00
   -9   19    8      1.95      0.00
   -8   20    8     -2.71      0.00
   -7   21    8      0.06      0.00
   -6   22    8     -0.02      0.00
   -5   23    8     -0.85      0.00
   -4   24    8     -1.03      0.00
   -3   25    8     -0.35      0.00
   -2   26    8      1.52      0.00
   -1   27    8     -0.43      0.00
    0   28    8      1.66      0.00
    1   29    8     -0.84      0.00
    2   30    8      1.08      0.00
    3   31    8     -2.25      0.00
    4   32    8      0.72      0.00
    5   33    8     -1.36      0.00
    6   34    8      0.34      0.00
    7   35    8      3.66      0.00
    8   36    8     -7.26      0.00
  -31    5    8     -2.03      0.00
  -26    0    8     -3.04      0.00
  -25    1    8      0.97      0.00
  -24    2    8     -0.56      0.00
  -23    3    8      1.89      0.00
  -22    4    8     -0.59      0.00
  -21    5    8     -0.20      0.00
  -20    6    8     -0.80      0.00
  -19    7    8      0.47      0.00
  -18    8    8     -2.47      0.00
  -17    9    8      0.32      0.00
  -16   10    8      1.34      0.00
  -15   11    8      1.97      0.00
  -14   12    8      1.44      0.00
  -13   13    8     -0.77      0.00
  -12   14    8     -0.93      0.00
  -11   15    8     -4.84      0.00
  -10   16    8     -2.04      0.00
   -9   17    8      1.87      0.00
   -8   18    8      2.71      0.00
   -7   19    8      0.75      0.00
   -6   20    8      2.46      0.00
   -5   21    8     -0.61      0.00
   -4   22    8      0.21      0.00
   -3   23    8     -1.13      0.00
   -2   24    8     -1.41      0.00
   -1   25    8      0.25      0.00
    0   26    8     -1.26      0.00
    1   27    8     -0.20      0.00
    2   28    8     -0.39      0.00
    3   29    8      0.98      0.00
    4   30    8      1.44      0.00
    5   31    8     -1.17      0.00
    6   32    8      1.95      0.00
    7   33    8      1.79      0.00
    8   34    8     -2.13      0.00
    9   35    8      1.55      0.00
   10   36    8      0.15      0.00
  -24    0    8      1.48      0.00
  -23    1    8     -0.55      0.00
  -22    2    8      0.77      0.00
  -21    3    8     -0.35      0.00
  -20    4    8      0.12      0.00
  -19    5    8     -0.69      0.00
  -18    6    8     -0.63      0.00
  -17    7    8      0.91      0.00
  -16    8    8      0.67      0.00
  -15    9    8      1.78      0.00
  -14   10    8     -2.02      0.00
  -13   11    8     -2.10      0.00
  -12   12    8     -0.60      0.00
  -11   13    8     -0.13      0.00
  -10   14    8      2.67      0.00
   -9   15    8      1.63      0.00
   -8   16    8     -0.19      0.00
   -7   17    8     -1.78      0.00
   -6   18    8     -1.89      0.00
   -5   19    8     -2.83      0.00
   -4   20    8      0.88      0.00
   -3   21    8      0.04      0.00
   -2   22    8      1.63      0.00
   -1   23    8      1.92      0.00
    0   24    8      1.30      0.00
    1   25    8     -0.37      0.00
    2   26    8     -0.89      0.00
    3   27    8      0.31      0.00
    4   28    8     -1.51      0.00
    5   29    8     -0.63      0.00
    6   30    8      0.36      0.00
    7   31    8     -0.71      0.00
    8   32    8     -2.26      0.00
    9   33    8      0.97      0.00
   10   34    8     -0.46      0.00
   11   35    8      0.48      0.00
  -29    7    8     -0.58      0.00
  -22    0    8      0.58      0.00
  -21    1    8     -0.74      0.00
  -20    2    8     -0.97      0.00
  -19    3    8     -0.32      0.00
  -18    4    8      1.21      0.00
  -17    5    8     -0.48      0.00
  -16    6    8      1.01      0.00
  -15    7    8      1.42      0.00
  -14    8    8     -0.85      0.00
  -13    9    8     -3.78      0.00
  -12   10    8      1.03      0.00
  -11   11    8      1.78      0.00
  -10   12    8      1.73      0.00
   -9   13    8     -0.17      0.00
   -8   14    8      2.83      0.00
   -7   15    8      3.17      0.00
   -6   16    8     -4.34      0.00
   -5   17    8     -1.18      0.00
   -4   18    8      0.63      0.00
   -3   19    8      2.41      0.00
   -2   20    8     -2.75      0.00
   -1   21    8     -0.11      0.00
    0   22    8      0.39      0.00
    1   23    8     -1.47      0.00
    2   24    8     -0.03      0.00
    3   25    8      0.42      0.00
    4   26    8      1.05      0.00
    5   27    8      1.57      0.00
    6   28    8     -0.60      0.00
    7   29    8      0.76      0.00
    8   30    8     -0.18      0.00
    9   31    8      1.39      0.00
   10   32    8     -0.97      0.00
   11   33    8      2.13      0.00
   12   34    8     -1.96      0.00
  -20    0    8     -1.36      0.00
  -19    1    8      0.14      0.00
  -18    2    8      1.48      0.00
  -17    3    8     -0.64      0.00
  -16    4    8      0.07      0.00
  -15    5    8      1.09      0.00
  -14    6    8     -1.36      0.00
  -13    7    8     -4.62      0.00
  -12    8    8      2.38      0.00
  -11    9    8      6.11      0.00
  -10   10    8      0.48      0.00
   -9   11    8     -4.03      0.00
   -8   12    8     -1.90      0.00
   -7   13    8     -2.44      0.00
   -6   14    8     -2.69      0.00
   -5   15    8     -4.35      0.00
   -4   16    8      7.07      0.00
   -3   17    8      2.78      0.00
   -2   18    8     -0.12      0.00
   -1   19    8      0.22      0.00
    0   20    8      0.32      0.00
    1   21    8     -2.71      0.00
    2   22    8     -0.88      0.00
    3   23    8      1.39      0.00
    4   24    8      1.11      0.00
    5   25    8     -1.45      0.00
    6   26    8     -1.69      0.00
    7   27    8      0.18      0.00
    8   28    8      0.45      0.00
    9   29    8      1.44      0.00
   10   30    8     -1.26      0.00
   11   31    8     -1.43      0.00
   12   32    8      0.46      0.00
  -18    0    8      4.63      0.00
  -17    1    8     -1.65      0.00
  -16    2    8     -2.01      0.00
  -15    3    8      1.03      0.00
  -14    4    8     -1.02      0.00
  -13    5    8     -2.75      0.00
  -12    6    8     -1.08      0.00
  -11    7    8      7.62      0.00
  -10    8    8      1.24      0.00
   -9    9    8     -5.37      0.00
   -8   10    8     -1.36      0.00
   -7   11    8      3.27      0.00
   -6   12    8      1.98      0.00
   -5   13    8     -2.19      0.00
   -4   14    8      5.41      0.00
   -3   15    8      4.21      0.00
   -2   16    8     -4.56      0.00
   -1   17    8     -3.74      0.00
    0   18    8     -0.48      0.00
    1   19    8      0.68      0.00
    2   20    8      2.20      0.00
    3   21    8     -0.23      0.00
    4   22    8      1.42      0.00
    5   23    8      0.30      0.00
    6   24    8     -0.80      0.00
    7   25    8      0.28      0.00
    8   26    8      0.66      0.00
    9   27    8     -1.15      0.00
   10   28    8     -1.08      0.00
   11   29    8     -1.19      0.00
   12   30    8      0.16      0.00
   13   31    8      2.41      0.00
  -28   12    8     -2.69      0.00
  -16    0    8      0.04      0.00
  -15    1    8     -1.66      0.00
  -14    2    8      0.96      0.00
  -13    3    8      3.76      0.00
  -12    4    8      1.74      0.00
  -11    5    8      3.64      0.00
  -10    6    8     -2.13      0.00
   -9    7    8     -6.19      0.00
   -8    8    8     -8.68      0.00
   -7    9    8      3.13      0.00
   -6   10    8      1.45      0.00
   -5   11    8     -1.99      0.00
   -4   12    8     -0.18      0.00
   -3   13    8      1.61      0.00
   -2   14    8     -1.91      0.00
   -1   15    8     -4.25      0.00
    0   16    8     -0.03      0.00
    1   17    8      5.03      0.00
    2   18    8     -1.13      0.00
    3   19    8     -0.68      0.00
    4   20    8      0.12      0.00
    5   21    8     -0.69      0.00
    6   22    8     -0.87      0.00
    7   23    8     -2.30      0.00
    8   24    8      2.74      0.00
    9   25    8      0.96      0.00
   10   26    8     -0.80      0.00
   11   27    8      0.12      0.00
   12   28    8      3.19      0.00
   13   29    8      2.27      0.00
   14   30    8     -1.66      0.00
  -27   13    8     -1.00      0.00
  -14    0    8      1.84      0.00
  -13    1    8      2.84      0.00
  -12    2    8     -2.60      0.00
  -11    3    8     -2.39      0.00
  -10    4    8     -1.46      0.00
   -9    5    8      0.82      0.00
   -8    6    8      0.35      0.00
   -7    7    8     -0.32      0.00
   -6    8    8     13.60      0.00
   -5    9    8      7.09      0.00
   -4   10    8      2.01      0.00
   -3   11    8     -0.06      0.00
   -2   12    8     -3.83      0.00
   -1   13    8     -4.76      0.00
    0   14    8      0.47      0.00
    1   15    8      0.34      0.00
    2   16    8      1.59      0.00
    3   17    8      2.86      0.00
    4   18    8     -1.52      0.00
    5   19    8     -0.74      0.00
    6   20    8     -0.59      0.00
    7   21    8      2.33      0.00
    8   22    8     -1.63      0.00
    9   23    8      0.03      0.00
   10   24    8     -0.01      0.00
   11   25    8     -0.35      0.00
   12   26    8      0.12      0.00
   13   27    8     -1.28      0.00
   14   28    8     -4.38      0.00
   15   29    8     -0.56      0.00
  -27   15    8      1.14      0.00
  -26   14    8     -1.72      0.00
  -12    0    8      1.73      0.00
  -11    1    8     -4.42      0.00
  -10    2    8     -3.06      0.00
   -9    3    8      1.76      0.00
   -8    4    8     -0.09      0.00
   -7    5    8     -3.53      0.00
   -6    6    8      2.11      0.00
   -5    7    8      8.55      0.00
   -4    8    8    -19.01      0.00
   -3    9    8    -12.82      0.00
   -2   10    8     -2.78      0.00
   -1   11    8      7.51      0.00
    0   12    8      5.17      0.00
    1   13    8      4.05      0.00
    2   14    8      3.46      0.00
    3   15    8     -0.24      0.00
    4   16    8     -6.45      0.00
    5   17    8     -3.24      0.00
    6   18    8      4.27      0.00
    7   19    8     -0.22      0.00
    8   20    8      0.13      0.00
    9   21    8     -0.02      0.00
   10   22    8      2.51      0.00
   11   23    8     -2.13      0.00
   12   24    8      1.06      0.00
   13   25    8      0.19      0.00
   14   26    8      1.26      0.00
   15   27    8      1.68      0.00
   16   28    8      2.08      0.00
  -26   16    8     -2.07      0.00
  -25   15    8      0.86      0.00
  -10    0    8     -8.32      0.00
   -9    1    8      4.50      0.00
   -8    2    8     10.60      0.00
   -7    3    8     -2.99      0.00
   -6    4    8      3.90      0.00
   -5    5    8      8.70      0.00
   -4    6    8     -7.82      0.00
   -3    7    8    -10.29      0.00
   -2    8    8      4.63      0.00
   -1    9    8      4.38      0.00
    0   10    8      9.58      0.00
    1   11    8     -7.49      0.00
    2   12    8     -4.41      0.00
    3   13    8     -3.91      0.00
    4   14    8      2.84      0.00
    5   15    8     -3.55      0.00
    6   16    8      3.21      0.00
    7   17    8      3.87      0.00
    8   18    8     -3.94      0.00
    9   19    8      1.27      0.00
   10   20    8     -2.72      0.00
   11   21    8      2.57      0.00
   12   22    8     -2.76      0.00
   13   23    8      0.17      0.00
   14   24    8     -1.68      0.00
   15   25    8     -0.10      0.00
   16   26    8     -0.20      0.00
   17   27    8     -1.50      0.00
  -25   17    8     -1.73      0.00
  -24   16    8     -0.41      0.00
   -8    0    8     15.38      0.00
   -7    1    8      3.47      0.00
   -6    2    8    -16.32      0.00
   -5    3    8     -0.95      0.00
   -4    4    8      3.68      0.00
   -3    5    8    -16.77      0.00
   -2    6    8     21.23      0.00
   -1    7    8     20.75      0.00
    0    8    8      2.58      0.00
    1    9    8     -3.06      0.00
    2   10    8    -11.35      0.00
    3   11    8      2.88      0.00
    4   12    8     -0.02      0.00
    5   13    8      2.26      0.00
    6   14    8     -0.08      0.00
    7   15    8      1.53      0.00
    8   16    8      2.84      0.00
    9   17    8     -7.44      0.00
   10   18    8      2.79      0.00
   11   19    8      3.91      0.00
   12   20    8     -3.05      0.00
   13   21    8      0.43      0.00
   14   22    8      0.97      0.00
   15   23    8      1.66      0.00
   16   24    8     -0.15      0.00
   17   25    8      0.87      0.00
   18   26    8     -0.32      0.00
  -24   18    8     -0.99      0.00
  -23   17    8      4.39      0.00
   -6    0    8    -26.81      0.00
   -5    1    8     -9.48      0.00
   -4    2    8     -1.67      0.00
   -3    3    8      4.71      0.00
   -2    4    8    -13.53      0.00
   -1    5    8      1.32      0.00
    0    6    8    -12.59      0.00
    1    7    8     -6.94      0.00
    2    8    8     -2.40      0.00
    3    9    8     -7.49      0.00
    4   10    8     14.31      0.00
    5   11    8      4.29      0.00
    6   12    8     -5.75      0.00
    7   13    8     -0.71      0.00
    8   14    8      0.83      0.00
    9   15    8      2.18      0.00
   10   16    8     -2.18      0.00
   11   17    8     -0.90      0.00
   12   18    8      1.58      0.00
   13   19    8     -0.56      0.00
   14   20    8     -1.12      0.00
   15   21    8      1.05      0.00
   16   22    8      0.69      0.00
   17   23    8     -2.16      0.00
   18   24    8     -0.07      0.00
   19   25    8      1.20      0.00
  -24   20    8     -2.09      0.00
  -23   19    8      2.12      0.00
  -22   18    8     -0.21      0.00
  -21   17    8      0.37      0.00
   -4    0    8     40.16      0.00
   -3    1    8     23.32      0.00
   -2    2    8     29.61      0.00
   -1    3    8     -4.67      0.00
    0    4    8     15.28      0.00
    1    5    8     -6.84      0.00
    2    6    8    -17.78      0.00
    3    7    8     -2.45      0.00
    4    8    8     10.04      0.00
    5    9    8     11.79      0.00
    6   10    8    -14.30      0.00
    7   11    8     -1.61      0.00
    8   12    8     10.27      0.00
    9   13    8     -4.99      0.00
   10   14    8     -7.44      0.00
   11   15    8      5.35      0.00
   12   16    8      1.68      0.00
   13   17    8     -0.91      0.00
   14   18    8     -1.85      0.00
   15   19    8      0.63      0.00
   16   20    8      0.80      0.00
   17   21    8      0.32      0.00
   18   22    8     -0.22      0.00
   19   23    8     -1.40      0.00
   20   24    8      1.94      0.00
  -23   21    8     -2.72      0.00
  -22   20    8      0.07      0.00
  -21   19    8     -0.48      0.00
  -20   18    8     -6.19      0.00
  -19   17    8      6.57      0.00
   -2    0    8    -66.93      0.00
   -1    1    8    -18.98      0.00
    0    2    8    -36.14      0.00
    1    3    8      4.23      0.00
    2    4    8     20.25      0.00
    3    5    8     17.53      0.00
    4    6    8      8.19      0.00
    5    7    8      6.32      0.00
    6    8    8    -11.63      0.00
    7    9    8     -8.08      0.00
    8   10    8      3.17      0.00
    9   11    8      0.61      0.00
   10   12    8     -1.61      0.00
   11   13    8      2.44      0.00
   12   14    8      0.61      0.00
   13   15    8     -1.78      0.00
   14   16    8      2.37      0.00
   15   17    8     -3.01      0.00
   16   18    8      1.71      0.00
   17   19    8      0.93      0.00
   18   20    8     -0.64      0.00
   19   21    8     -1.95      0.00
   20   22    8      0.48      0.00
  -22   22    8      1.35      0.00
  -21   21    8      1.78      0.00
  -20   20    8     -0.81      0.00
  -19   19    8      1.17      0.00
  -18   18    8      1.81      0.00
    0    0    8     33.48      0.00
    1    1    8     25.24      0.00
    2    2    8     -0.45      0.00
    3    3    8    -19.31      0.00
    4    4    8    -11.52      0.00
    5    5    8    -10.84      0.00
    6    6    8      5.56      0.00
    7    7    8     -0.39      0.00
    8    8    8     -4.30      0.00
    9    9    8     12.57      0.00
   10   10    8     -0.68      0.00
   11   11    8     -4.14      0.00
   12   12    8      3.14      0.00
   13   13    8      4.09      0.00
   14   14    8     -3.91      0.00
   15   15    8     -0.24      0.00
   16   16    8      0.93      0.00
   17   17    8      1.69      0.00
   18   18    8     -2.61      0.00
   19   19    8     -1.06      0.00
   20   20    8      2.52      0.00
   21   21    8      1.82      0.00
  -21   23    8     -0.38      0.00
  -20   22    8      1.98      0.00
  -19   21    8      1.22      0.00
  -18   20    8     -1.25      0.00
  -17   19    8      2.39      0.00
  -16   18    8     -1.64      0.00
    2    0    8     -0.09      0.00
    3    1    8      0.24      0.00
    4    2    8      9.30      0.00
    5    3    8      0.77      0.00
    6    4    8      7.63      0.00
    7    5    8     -9.48      0.00
    8    6    8     -3.86      0.00
    9    7    8      6.11      0.00
   10    8    8     -2.71      0.00
   11    9    8     -0.19      0.00
   12   10    8      1.21      0.00
   13   11    8     -6.38      0.00
   14   12    8     -0.83      0.00
   15   13    8      2.24      0.00
   16   14    8     -1.56      0.00
   17   15    8      0.87      0.00
   18   16    8      0.47      0.00
   19   17    8     -0.76      0.00
   20   18    8      0.54      0.00
   21   19    8     -0.22      0.00
   22   20    8     -1.66      0.00
  -20   24    8     -3.42      0.00
  -19   23    8     -3.04      0.00
  -18   22    8     -1.74      0.00
  -17   21    8      1.06      0.00
  -16   20    8     -2.18      0.00
  -15   19    8     -0.31      0.00
    4    0    8    -24.82      0.00
    5    1    8      3.53      0.00
    6    2    8     -6.98      0.00
    7    3    8      8.86      0.00
    8    4    8      2.03      0.00
    9    5    8     -7.03      0.00
   10    6    8     18.84      0.00
   11    7    8     -6.03      0.00
   12    8    8     -7.93      0.00
   13    9    8      3.98      0.00
   14   10    8      2.06      0.00
   15   11    8      3.18      0.00
   16   12    8     -3.19      0.00
   17   13    8     -1.54      0.00
   18   14    8      2.39      0.00
   19   15    8      0.38      0.00
   20   16    8     -2.43      0.00
   21   17    8      1.38      0.00
   22   18    8      2.35      0.00
   23   19    8     -1.31      0.00
  -19   25    8     -0.06      0.00
  -18   24    8      5.08      0.00
  -17   23    8      0.53      0.00
  -16   22    8     -0.79      0.00
  -15   21    8      2.07      0.00
  -14   20    8     -0.03      0.00
    6    0    8     -6.25      0.00
    7    1    8      6.10      0.00
    8    2    8      1.55      0.00
    9    3    8      2.44      0.00
   10    4    8     -2.54      0.00
   11    5    8     -4.49      0.00
   12    6    8     -3.96      0.00
   13    7    8      2.51      0.00
   14    8    8      1.81      0.00
   15    9    8      0.86      0.00
   16   10    8      0.01      0.00
   17   11    8      0.68      0.00
   18   12    8     -0.39      0.00
   19   13    8      1.22      0.00
   20   14    8     -0.34      0.00
   21   15    8     -0.80      0.00
   22   16    8     -0.58      0.00
   23   17    8     -1.46      0.00
  -18   26    8      0.30      0.00
  -17   25    8     -1.88      0.00
  -16   24    8      1.60      0.00
  -15   23    8     -1.78      0.00
  -14   22    8     -2.23      0.00
  -13   21    8      0.68      0.00
    8    0    8     21.87      0.00
    9    1    8     -9.99      0.00
   10    2    8    -18.83      0.00
   11    3    8     14.27      0.00
   12    4    8      0.87      0.00
   13    5    8     -7.87      0.00
   14    6    8      5.31      0.00
   15    7    8      1.20      0.00
   16    8    8     -2.16      0.00
   17    9    8     -3.46      0.00
   18   10    8     -1.04      0.00
   19   11    8      2.84      0.00
   20   12    8     -0.74      0.00
   21   13    8     -1.35      0.00
   22   14    8      1.30      0.00
   23   15    8      2.33      0.00
   24   16    8      1.29      0.00
  -18   28    8     -1.52      0.00
  -17   27    8      0.68      0.00
  -16   26    8     -2.54      0.00
  -15   25    8     -0.08      0.00
  -14   24    8      2.71      0.00
  -13   23    8      0.22      0.00
  -12   22    8     -1.13      0.00
   10    0    8    -11.24      0.00
   11    1    8      4.04      0.00
   12    2    8      4.14      0.00
   13    3    8      1.74      0.00
   14    4    8      1.75      0.00
   15    5    8      0.12      0.00
   16    6    8      0.52      0.00
   17    7    8     -1.87      0.00
   18    8    8      0.16      0.00
   19    9    8      1.55      0.00
   20   10    8      0.73      0.00
   21   11    8     -1.54      0.00
   22   12    8      0.31      0.00
   23   13    8     -0.61      0.00
   24   14    8      1.06      0.00
   25   15    8     -2.01      0.00
  -17   29    8     -0.87      0.00
  -16   28    8      0.02      0.00
  -15   27    8      3.69      0.00
  -14   26    8     -1.53      0.00
  -13   25    8     -0.81      0.00
  -12   24    8     -0.06      0.00
  -11   23    8     -0.50      0.00
  -10   22    8      0.89      0.00
   12    0    8     25.76      0.00
   13    1    8     -7.42      0.00
   14    2    8     -9.68      0.00
   15    3    8      1.63      0.00
   16    4    8      0.13      0.00
   17    5    8     -1.28      0.00
   18    6    8      0.70      0.00
   19    7    8      1.45      0.00
   20    8    8      1.45      0.00
   21    9    8     -1.62      0.00
   22   10    8      0.41      0.00
   23   11    8     -0.49      0.00
   24   12    8     -1.95      0.00
   25   13    8     -1.01      0.00
  -16   30    8      3.96      0.00
  -15   29    8     -0.48      0.00
  -14   28    8     -1.02      0.00
  -13   27    8      0.96      0.00
  -12   26    8     -2.45      0.00
  -11   25    8      1.52      0.00
  -10   24    8      1.83      0.00
   14    0    8     -5.39      0.00
   15    1    8     -1.87      0.00
   16    2    8      7.46      0.00
   17    3    8     -0.20      0.00
   18    4    8     -1.67      0.00
   19    5    8     -0.18      0.00
   20    6    8      0.63      0.00
   21    7    8     -0.49      0.00
   22    8    8     -1.07      0.00
   23    9    8      0.96      0.00
   24   10    8     -0.24      0.00
   25   11    8      2.34      0.00
   26   12    8      2.46      0.00
  -15   31    8     -4.11      0.00
  -14   30    8      0.87      0.00
  -13   29    8     -0.04      0.00
  -12   28    8     -1.43      0.00
  -11   27    8      2.00      0.00
  -10   26    8      1.61      0.00
   16    0    8      7.64      0.00
   17    1    8     -0.57      0.00
   18    2    8     -1.58      0.00
   19    3    8     -1.53      0.00
   20    4    8      0.54      0.00
   21    5    8      1.04      0.00
   22    6    8     -1.63      0.00
   23    7    8      1.22      0.00
   24    8    8     -1.57      0.00
   25    9    8      0.61      0.00
   26   10    8      1.16      0.00
   27   11    8     -0.32      0.00
  -14   32    8      0.79      0.00
  -13   31    8      1.96      0.00
  -12   30    8     -1.37      0.00
  -11   29    8     -0.08      0.00
  -10   28    8      0.94      0.00
   -9   27    8     -0.50      0.00
   18    0    8     -2.68      0.00
   19    1    8     -0.30      0.00
   20    2    8      1.26      0.00
   21    3    8     -0.85      0.00
   22    4    8     -0.07      0.00
   23    5    8      0.58      0.00
   24    6    8     -0.07      0.00
   25    7    8      0.54      0.00
   26    8    8      1.26      0.00
   27    9    8     -2.59      0.00
  -13   33    8      6.57      0.00
  -12   32    8     -2.43      0.00
  -11   31    8      0.00      0.00
  -10   30    8     -1.43      0.00
   -9   29    8     -0.56      0.00
   -8   28    8      2.23      0.00
   20    0    8     -2.41      0.00
   21    1    8      1.30      0.00
   22    2    8      1.87      0.00
   23    3    8      1.57      0.00
   24    4    8     -2.97      0.00
   25    5    8     -1.16      0.00
   26    6    8      1.23      0.00
   27    7    8     -0.64      0.00
   28    8    8     -0.41      0.00
  -12   34    8     -2.40      0.00
  -11   33    8     -0.48      0.00
  -10   32    8     -1.05      0.00
   -9   31    8      4.45      0.00
   -8   30    8     -2.25      0.00
   22    0    8      1.71      0.00
   23    1    8     -1.23      0.00
   24    2    8     -0.02      0.00
   25    3    8      0.37      0.00
   26    4    8      2.91      0.00
   27    5    8     -0.51      0.00
   28    6    8     -0.32      0.00
  -10   34    8     -4.26      0.00
   -9   33    8      4.89      0.00
   -8   32    8     -3.70      0.00
   -7   31    8      1.96      0.00
   24    0    8     -1.93      0.00
   25    1    8     -1.63      0.00
   26    2    8     -1.29      0.00
   27    3    8      1.54      0.00
   28    4    8     -1.75      0.00
   29    5    8     -0.89      0.00
   -8   34    8     -1.86      0.00
   -7   33    8      1.27      0.00
   26    0    8      1.91      0.00
   27    1    8      2.36      0.00
   28    2    8     -2.81      0.00
   29    3    8      2.31      0.00
   -8   36    8     -1.69      0.00
   -7   35    8      0.85      0.00
   -6   34    8      0.29      0.00
   28    0    8      1.30      0.00
   29    1    8     -0.37      0.00
   30    2    8     -3.29      0.00
   -6   36    8      0.78      0.00
   -5   35    8     -1.63      0.00
   30    0    8      0.79      0.00
   -4   36    8      2.60      0.00
   -3   35    8     -0.95      0.00
   -2   36    8     -1.22      0.00
   30    4    8      1.60      0.00
   31    3    8     -0.99      0.00
    0   36    8     -0.74      0.00
   29    7    8      0.27      0.00
   30    6    8      1.22      0.00
   28   10    8     -0.66      0.00
   29    9    8     -1.15      0.00
   26   14    8      3.16      0.00
   27   13    8     -4.47      0.00
   28   12    8     -2.49      0.00
   24   18    8      0.27      0.00
   25   17    8     -4.80      0.00
  -27   11    9     -0.08      0.00
  -24   14    9     -1.90      0.00
  -23   15    9      2.04      0.00
  -22   16    9     -1.47      0.00
  -21   17    9      0.31      0.00
   -6   32    9     -0.54      0.00
   -5   33    9      1.03      0.00
  -30    6    9     -2.10      0.00
  -29    7    9     -0.89      0.00
  -28    8    9      1.38      0.00
  -27    9    9      0.12      0.00
  -26   10    9     -0.50      0.00
  -25   11    9     -1.41      0.00
  -24   12    9      1.87      0.00
  -23   13    9      0.52      0.00
  -22   14    9      1.05      0.00
  -21   15    9     -1.05      0.00
  -20   16    9     -0.26      0.00
  -19   17    9      3.37      0.00
   -8   28    9      1.34      0.00
   -7   29    9      1.24      0.00
   -6   30    9     -2.44      0.00
   -5   31    9     -1.02      0.00
   -4   32    9     -0.63      0.00
   -3   33    9      0.28      0.00
   -2   34    9      1.58      0.00
  -28    6    9     -1.57      0.00
  -27    7    9      1.53      0.00
  -26    8    9     -0.07      0.00
  -25    9    9     -1.91      0.00
  -24   10    9      3.37      0.00
  -23   11    9     -2.58      0.00
  -22   12    9      1.09      0.00
  -21   13    9     -1.25      0.00
  -20   14    9      0.52      0.00
  -19   15    9      1.17      0.00
  -18   16    9     -3.76      0.00
  -17   17    9      0.59      0.00
  -16   18    9     -0.55      0.00
  -15   19    9     -0.46      0.00
  -14   20    9      0.46      0.00
  -13   21    9     -0.34      0.00
  -12   22    9     -0.35      0.00
  -11   23    9     -2.26      0.00
  -10   24    9      0.04      0.00
   -9   25    9     -0.26      0.00
   -8   26    9      0.42      0.00
   -7   27    9     -0.43      0.00
   -6   28    9     -0.90      0.00
   -5   29    9      1.80      0.00
   -4   30    9      3.88      0.00
   -3   31    9     -2.41      0.00
   -2   32    9     -0.46      0.00
   -1   33    9      0.84      0.00
    0   34    9     -2.52      0.00
    1   35    9      0.33      0.00
  -29    3    9     -2.82      0.00
  -28    4    9     -0.93      0.00
  -27    5    9      1.99      0.00
  -26    6    9      0.15      0.00
  -25    7    9     -3.55      0.00
  -24    8    9      4.40      0.00
  -23    9    9     -1.40      0.00
  -22   10    9     -0.26      0.00
  -21   11    9      0.41      0.00
  -20   12    9     -0.87      0.00
  -19   13    9     -1.09      0.00
  -18   14    9     -0.27      0.00
  -17   15    9      1.21      0.00
  -16   16    9      0.86      0.00
  -15   17    9     -0.89      0.00
  -14   18    9     -0.17      0.00
  -13   19    9     -0.54      0.00
  -12   20    9     -0.82      0.00
  -11   21    9      2.27      0.00
  -10   22    9      1.20      0.00
   -9   23    9      0.93      0.00
   -8   24    9      0.51      0.00
   -7   25    9     -0.27      0.00
   -6   26    9     -0.06      0.00
   -5   27    9     -1.96      0.00
   -4   28    9     -2.18      0.00
   -3   29    9     -0.56      0.00
   -2   30    9      0.86      0.00
   -1   31    9     -1.66      0.00
    0   32    9      1.10      0.00
    1   33    9     -0.25      0.00
    2   34    9     -0.14      0.00
    3   35    9      0.50      0.00
  -29    1    9      1.50      0.00
  -28    2    9     -0.75      0.00
  -27    3    9      1.09      0.00
  -26    4    9     -0.99      0.00
  -25    5    9     -1.26      0.00
  -24    6    9      1.99      0.00
  -23    7    9      0.03      0.00
  -22    8    9     -0.90      0.00
  -21    9    9      0.36      0.00
  -20   10    9     -0.32      0.00
  -19   11    9     -0.93      0.00
  -18   12    9      3.23      0.00
  -17   13    9     -0.49      0.00
  -16   14    9      0.63      0.00
  -15   15    9      1.15      0.00
  -14   16    9      0.04      0.00
  -13   17    9     -0.86      0.00
  -12   18    9      0.01      0.00
  -11   19    9     -0.80      0.00
  -10   20    9      0.29      0.00
   -9   21    9      0.89      0.00
   -8   22    9     -1.77      0.00
   -7   23    9      0.00      0.00
   -6   24    9      0.62      0.00
   -5   25    9      0.30      0.00
   -4   26    9      1.78      0.00
   -3   27    9      1.54      0.00
   -2   28    9      0.13      0.00
   -1   29    9     -0.33      0.00
    0   30    9      2.15      0.00
    1   31    9     -0.46      0.00
    2   32    9     -1.74      0.00
    3   33    9      1.34      0.00
    4   34    9      0.65      0.00
    5   35    9     -2.49      0.00
    6   36    9      1.86      0.00
  -27    1    9      3.04      0.00
  -26    2    9     -0.11      0.00
  -25    3    9     -1.74      0.00
  -24    4    9      3.30      0.00
  -23    5    9     -1.08      0.00
  -22    6    9     -1.67      0.00
  -21    7    9     -0.02      0.00
  -20    8    9     -0.42      0.00
  -19    9    9     -1.26      0.00
  -18   10    9      3.51      0.00
  -17   11    9     -1.37      0.00
  -16   12    9     -1.96      0.00
  -15   13    9     -1.02      0.00
  -14   14    9     -1.79      0.00
  -13   15    9     -0.96      0.00
  -12   16    9      2.74      0.00
  -11   17    9      1.98      0.00
  -10   18    9      2.32      0.00
   -9   19    9     -0.62      0.00
   -8   20    9     -1.79      0.00
   -7   21    9     -2.19      0.00
   -6   22    9      0.58      0.00
   -5   23    9     -0.12      0.00
   -4   24    9     -1.14      0.00
   -3   25    9     -0.56      0.00
   -2   26    9     -0.49      0.00
   -1   27    9      0.27      0.00
    0   28    9     -0.09      0.00
    1   29    9      0.13      0.00
    2   30    9     -2.06      0.00
    3   31    9      2.93      0.00
    4   32    9     -1.11      0.00
    5   33    9     -1.41      0.00
    6   34    9      2.74      0.00
    7   35    9     -2.34      0.00
    8   36    9     -0.65      0.00
  -25    1    9      0.78      0.00
  -24    2    9     -1.32      0.00
  -23    3    9     -1.38      0.00
  -22    4    9      0.76      0.00
  -21    5    9     -0.70      0.00
  -20    6    9      1.54      0.00
  -19    7    9     -0.55      0.00
  -18    8    9      3.92      0.00
  -17    9    9     -1.56      0.00
  -16   10    9     -1.67      0.00
  -15   11    9      0.07      0.00
  -14   12    9      1.87      0.00
  -13   13    9      3.10      0.00
  -12   14    9      0.34      0.00
  -11   15    9     -3.60      0.00
  -10   16    9     -1.41      0.00
   -9   17    9     -2.19      0.00
   -8   18    9     -1.59      0.00
   -7   19    9      1.96      0.00
   -6   20    9      2.26      0.00
   -5   21    9      1.77      0.00
   -4   22    9     -0.44      0.00
   -3   23    9      1.26      0.00
   -2   24    9      0.18      0.00
   -1   25    9     -1.79      0.00
    0   26    9      0.85      0.00
    1   27    9     -1.09      0.00
    2   28    9     -0.71      0.00
    3   29    9      1.79      0.00
    4   30    9      0.04      0.00
    5   31    9      0.19      0.00
    6   32    9      0.09      0.00
    7   33    9     -0.12      0.00
    8   34    9      0.63      0.00
    9   35    9      3.05      0.00
  -29    5    9      3.40      0.00
  -23    1    9      0.53      0.00
  -22    2    9      0.50      0.00
  -21    3    9      0.69      0.00
  -20    4    9      0.04      0.00
  -19    5    9      0.54      0.00
  -18    6    9     -0.83      0.00
  -17    7    9     -1.57      0.00
  -16    8    9     -0.54      0.00
  -15    9    9     -0.39      0.00
  -14   10    9      0.61      0.00
  -13   11    9      0.59      0.00
  -12   12    9      0.08      0.00
  -11   13    9     -2.48      0.00
  -10   14    9      1.70      0.00
   -9   15    9      0.83      0.00
   -8   16    9      0.33      0.00
   -7   17    9     -1.34      0.00
   -6   18    9      0.79      0.00
   -5   19    9      0.95      0.00
   -4   20    9     -2.76      0.00
   -3   21    9     -0.40      0.00
   -2   22    9      0.30      0.00
   -1   23    9      0.48      0.00
    0   24    9      1.03      0.00
    1   25    9     -0.56      0.00
    2   26    9      1.70      0.00
    3   27    9      0.42      0.00
    4   28    9     -1.96      0.00
    5   29    9     -0.87      0.00
    6   30    9     -0.63      0.00
    7   31    9      0.70      0.00
    8   32    9     -1.29      0.00
    9   33    9     -1.82      0.00
   10   34    9      0.89      0.00
  -21    1    9     -0.98      0.00
  -20    2    9      0.41      0.00
  -19    3    9      0.70      0.00
  -18    4    9     -0.16      0.00
  -17    5    9     -1.65      0.00
  -16    6    9      0.58      0.00
  -15    7    9      1.24      0.00
  -14    8    9      0.51      0.00
  -13    9    9      1.61      0.00
  -12   10    9      0.41      0.00
  -11   11    9     -2.60      0.00
  -10   12    9     -2.43      0.00
   -9   13    9      0.91      0.00
   -8   14    9      3.69      0.00
   -7   15    9      1.24      0.00
   -6   16    9      1.34      0.00
   -5   17    9      1.71      0.00
   -4   18    9     -2.89      0.00
   -3   19    9     -1.31      0.00
   -2   20    9      0.66      0.00
   -1   21    9     -0.86      0.00
    0   22    9     -0.53      0.00
    1   23    9     -0.26      0.00
    2   24    9      0.87      0.00
    3   25    9     -0.59      0.00
    4   26    9      0.16      0.00
    5   27    9     -0.48      0.00
    6   28    9      0.58      0.00
    7   29    9      2.19      0.00
    8   30    9     -0.31      0.00
    9   31    9      0.37      0.00
   10   32    9      0.90      0.00
   11   33    9     -1.11      0.00
  -19    1    9      0.27      0.00
  -18    2    9     -1.36      0.00
  -17    3    9     -2.79      0.00
  -16    4    9      2.82      0.00
  -15    5    9      1.67      0.00
  -14    6    9     -0.63      0.00
  -13    7    9     -1.70      0.00
  -12    8    9     -0.12      0.00
  -11    9    9     -0.67      0.00
  -10   10    9     -1.86      0.00
   -9   11    9      1.08      0.00
   -8   12    9      4.85      0.00
   -7   13    9     -2.36      0.00
   -6   14    9     -4.33      0.00
   -5   15    9     -1.28      0.00
   -4   16    9     -1.19      0.00
   -3   17    9      1.32      0.00
   -2   18    9      1.05      0.00
   -1   19    9      1.14      0.00
    0   20    9      1.36      0.00
    1   21    9      1.25      0.00
    2   22    9     -1.22      0.00
    3   23    9     -2.30      0.00
    4   24    9      0.91      0.00
    5   25    9     -0.28      0.00
    6   26    9     -0.36      0.00
    7   27    9      0.64      0.00
    8   28    9     -0.49      0.00
    9   29    9     -0.90      0.00
   10   30    9      1.18      0.00
   11   31    9      1.08      0.00
   12   32    9     -1.51      0.00
  -28   10    9     -2.69      0.00
  -17    1    9      0.91      0.00
  -16    2    9      1.77      0.00
  -15    3    9      2.84      0.00
  -14    4    9     -2.83      0.00
  -13    5    9     -3.79      0.00
  -12    6    9     -0.30      0.00
  -11    7    9      1.42      0.00
  -10    8    9     -1.33      0.00
   -9    9    9      1.08      0.00
   -8   10    9      6.89      0.00
   -7   11    9      1.02      0.00
   -6   12    9     -6.37      0.00
   -5   13    9     -0.57      0.00
   -4   14    9      3.56      0.00
   -3   15    9     -0.41      0.00
   -2   16    9      1.16      0.00
   -1   17    9     -0.20      0.00
    0   18    9     -0.77      0.00
    1   19    9      0.45      0.00
    2   20    9     -2.76      0.00
    3   21    9      0.59      0.00
    4   22    9      1.60      0.00
    5   23    9      1.20      0.00
    6   24    9     -0.49      0.00
    7   25    9      1.38      0.00
    8   26    9      1.38      0.00
    9   27    9     -1.85      0.00
   10   28    9     -2.42      0.00
   11   29    9      1.46      0.00
   12   30    9     -1.79      0.00
   13   31    9      0.17      0.00
  -15    1    9      1.21      0.00
  -14    2    9     -2.61      0.00
  -13    3    9     -2.20      0.00
  -12    4    9      1.93      0.00
  -11    5    9      6.70      0.00
  -10    6    9      0.59      0.00
   -9    7    9     -1.90      0.00
   -8    8    9      2.89      0.00
   -7    9    9     -4.51      0.00
   -6   10    9     -7.13      0.00
   -5   11    9     -1.63      0.00
   -4   12    9     -0.56      0.00
   -3   13    9      3.89      0.00
   -2   14    9      0.47      0.00
   -1   15    9      1.81      0.00
    0   16    9     -4.28      0.00
    1   17    9      2.47      0.00
    2   18    9     -0.09      0.00
    3   19    9     -2.48      0.00
    4   20    9      2.44      0.00
    5   21    9      0.23      0.00
    6   22    9     -1.27      0.00
    7   23    9     -1.25      0.00
    8   24    9     -0.89      0.00
    9   25    9     -0.38      0.00
   10   26    9      0.85      0.00
   11   27    9      0.64      0.00
   12   28    9     -0.26      0.00
   13   29    9      3.07      0.00
   14   30    9     -1.20      0.00
  -27   13    9     -2.19      0.00
  -26   12    9      1.96      0.00
  -13    1    9     -0.70      0.00
  -12    2    9     -3.14      0.00
  -11    3    9      3.02      0.00
  -10    4    9      3.63      0.00
   -9    5    9     -2.11      0.00
   -8    6    9     -5.06      0.00
   -7    7    9      0.12      0.00
   -6    8    9     -1.49      0.00
   -5    9    9      4.19      0.00
   -4   10    9      6.50      0.00
   -3   11    9      9.46      0.00
   -2   12    9      3.76      0.00
   -1   13    9     -8.78      0.00
    0   14    9     -3.63      0.00
    1   15    9      0.20      0.00
    2   16    9      0.05      0.00
    3   17    9     -0.68      0.00
    4   18    9      2.26      0.00
    5   19    9      2.88      0.00
    6   20    9     -1.87      0.00
    7   21    9     -2.04      0.00
    8   22    9      2.72      0.00
    9   23    9      0.51      0.00
   10   24    9     -1.07      0.00
   11   25    9     -0.61      0.00
   12   26    9      1.48      0.00
   13   27    9      0.89      0.00
   14   28    9     -4.90      0.00
   15   29    9      1.43      0.00
  -26   14    9     -0.43      0.00
  -25   13    9     -0.93      0.00
  -11    1    9      4.80      0.00
  -10    2    9      4.36      0.00
   -9    3    9     -3.66      0.00
   -8    4    9    -10.27      0.00
   -7    5    9     -2.22      0.00
   -6    6    9      8.60      0.00
   -5    7    9     -1.79      0.00
   -4    8    9     -0.07      0.00
   -3    9    9     -4.32      0.00
   -2   10    9     -3.28      0.00
   -1   11    9     -7.95      0.00
    0   12    9     -1.31      0.00
    1   13    9      3.03      0.00
    2   14    9      8.02      0.00
    3   15    9      0.52      0.00
    4   16    9     -2.65      0.00
    5   17    9     -1.31      0.00
    6   18    9     -0.47      0.00
    7   19    9     -1.28      0.00
    8   20    9     -0.36      0.00
    9   21    9      1.42      0.00
   10   22    9     -0.74      0.00
   11   23    9      1.29      0.00
   12   24    9     -1.54      0.00
   13   25    9      1.84      0.00
   14   26    9     -1.69      0.00
   15   27    9      4.77      0.00
   16   28    9     -1.96      0.00
  -25   15    9      0.51      0.00
   -9    1    9     -3.58      0.00
   -8    2    9    -10.35      0.00
   -7    3    9      4.94      0.00
   -6    4    9      9.36      0.00
   -5    5    9     10.37      0.00
   -4    6    9     -4.22      0.00
   -3    7    9      1.53      0.00
   -2    8    9     -0.26      0.00
   -1    9    9     -4.29      0.00
    0   10    9     -4.60      0.00
    1   11    9      6.38      0.00
    2   12    9      3.32      0.00
    3   13    9     -0.21      0.00
    4   14    9     -6.56      0.00
    5   15    9      1.34      0.00
    6   16    9      3.83      0.00
    7   17    9     -2.64      0.00
    8   18    9      1.36      0.00
    9   19    9     -0.56      0.00
   10   20    9      1.72      0.00
   11   21    9     -1.56      0.00
   12   22    9      0.45      0.00
   13   23    9     -0.55      0.00
   14   24    9      0.70      0.00
   15   25    9     -2.42      0.00
   16   26    9     -0.97      0.00
   17   27    9      0.11      0.00
  -25   17    9     -0.44      0.00
  -24   16    9      1.46      0.00
   -7    1    9      1.44      0.00
   -6    2    9     11.95      0.00
   -5    3    9     -0.25      0.00
   -4    4    9     -5.17      0.00
   -3    5    9    -10.29      0.00
   -2    6    9     -5.44      0.00
   -1    7    9      6.94      0.00
    0    8    9     12.48      0.00
    1    9    9     -0.80      0.00
    2   10    9      3.22      0.00
    3   11    9      0.20      0.00
    4   12    9     -2.35      0.00
    5   13    9     -5.67      0.00
    6   14    9      4.13      0.00
    7   15    9      0.36      0.00
    8   16    9     -3.31      0.00
    9   17    9      4.94      0.00
   10   18    9     -3.28      0.00
   11   19    9      1.73      0.00
   12   20    9      0.36      0.00
   13   21    9     -1.27      0.00
   14   22    9      0.38      0.00
   15   23    9      0.29      0.00
   16   24    9      1.13      0.00
   17   25    9     -1.76      0.00
  -24   18    9     -1.92      0.00
  -23   17    9     -1.29      0.00
   -5    1    9      1.87      0.00
   -4    2    9     -9.32      0.00
   -3    3    9    -20.45      0.00
   -2    4    9      0.17      0.00
   -1    5    9     -0.35      0.00
    0    6    9      2.03      0.00
    1    7    9     -3.12      0.00
    2    8    9     -5.94      0.00
    3    9    9      2.68      0.00
    4   10    9     -1.30      0.00
    5   11    9     -3.55      0.00
    6   12    9      1.13      0.00
    7   13    9      4.41      0.00
    8   14    9      0.30      0.00
    9   15    9     -4.62      0.00
   10   16    9      5.10      0.00
   11   17    9     -1.61      0.00
   12   18    9     -1.13      0.00
   13   19    9     -0.74      0.00
   14   20    9     -0.22      0.00
   15   21    9      0.50      0.00
   16   22    9      0.83      0.00
   17   23    9      0.10      0.00
   18   24    9      0.57      0.00
  -23   19    9     -3.14      0.00
  -22   18    9      2.39      0.00
   -3    1    9     12.92      0.00
   -2    2    9      5.34      0.00
   -1    3    9     40.97      0.00
    0    4    9      9.24      0.00
    1    5    9      2.62      0.00
    2    6    9     -8.61      0.00
    3    7    9     -9.67      0.00
    4    8    9      5.34      0.00
    5    9    9     -7.82      0.00
    6   10    9      3.31      0.00
    7   11    9      4.15      0.00
    8   12    9     -0.10      0.00
    9   13    9      0.69      0.00
   10   14    9     -3.37      0.00
   11   15    9     -1.34      0.00
   12   16    9      1.55      0.00
   13   17    9     -0.40      0.00
   14   18    9      0.28      0.00
   15   19    9      1.46      0.00
   16   20    9     -0.33      0.00
   17   21    9     -0.97      0.00
   18   22    9     -1.22      0.00
   19   23    9      0.78      0.00
  -22   20    9      5.18      0.00
  -21   19    9      1.07      0.00
  -20   18    9     -1.15      0.00
   -1    1    9    -36.50      0.00
    0    2    9     -0.58      0.00
    1    3    9    -33.21      0.00
    2    4    9     -3.13      0.00
    3    5    9      4.58      0.00
    4    6    9     10.04      0.00
    5    7    9     15.54      0.00
    6    8    9     -9.92      0.00
    7    9    9      4.02      0.00
    8   10    9      3.04      0.00
    9   11    9     -6.76      0.00
   10   12    9     -1.94      0.00
   11   13    9      3.38      0.00
   12   14    9      0.87      0.00
   13   15    9      0.09      0.00
   14   16    9     -2.31      0.00
   15   17    9      0.74      0.00
   16   18    9      0.35      0.00
   17   19    9      2.31      0.00
   18   20    9     -3.24      0.00
   19   21    9      1.17      0.00
   20   22    9      3.19      0.00
  -22   22    9     -1.43      0.00
  -21   21    9     -1.01      0.00
  -20   20    9     -1.61      0.00
  -19   19    9     -3.51      0.00
  -18   18    9      0.43      0.00
    1    1    9     26.53      0.00
    2    2    9      2.91      0.00
    3    3    9     -4.40      0.00
    4    4    9     -6.43      0.00
    5    5    9      4.03      0.00
    6    6    9    -10.54      0.00
    7    7    9      0.71      0.00
    8    8    9      6.93      0.00
    9    9    9     -6.82      0.00
   10   10    9      1.02      0.00
   11   11    9      1.74      0.00
   12   12    9      0.12      0.00
   13   13    9      1.75      0.00
   14   14    9      2.41      0.00
   15   15    9     -2.63      0.00
   16   16    9      1.38      0.00
   17   17    9      0.70      0.00
   18   18    9     -2.75      0.00
   19   19    9      0.32      0.00
   20   20    9      0.81      0.00
   21   21    9     -1.49      0.00
  -21   23    9     -0.38      0.00
  -20   22    9      3.09      0.00
  -19   21    9     -2.85      0.00
  -18   20    9      1.58      0.00
  -17   19    9      1.34      0.00
    3    1    9     -4.28      0.00
    4    2    9      0.90      0.00
    5    3    9     15.37      0.00
    6    4    9     14.36      0.00
    7    5    9    -15.72      0.00
    8    6    9     -6.36      0.00
    9    7    9      7.73      0.00
   10    8    9     -4.49      0.00
   11    9    9     -1.08      0.00
   12   10    9      2.35      0.00
   13   11    9      0.37      0.00
   14   12    9     -4.86      0.00
   15   13    9     -2.54      0.00
   16   14    9      1.62      0.00
   17   15    9      1.71      0.00
   18   16    9     -2.25      0.00
   19   17    9      0.52      0.00
   20   18    9      1.63      0.00
   21   19    9      0.78      0.00
  -20   24    9      5.25      0.00
  -19   23    9     -3.10      0.00
  -18   22    9      1.43      0.00
  -17   21    9      4.14      0.00
  -16   20    9     -2.03      0.00
    5    1    9     -0.38      0.00
    6    2    9      6.72      0.00
    7    3    9    -23.98      0.00
    8    4    9      3.47      0.00
    9    5    9      7.74      0.00
   10    6    9     -0.16      0.00
   11    7    9      2.91      0.00
   12    8    9      0.93      0.00
   13    9    9     -1.98      0.00
   14   10    9      5.20      0.00
   15   11    9     -1.60      0.00
   16   12    9      0.59      0.00
   17   13    9      1.14      0.00
   18   14    9     -0.81      0.00
   19   15    9     -0.08      0.00
   20   16    9     -0.18      0.00
   21   17    9     -0.34      0.00
   22   18    9     -0.85      0.00
  -19   25    9     -5.73      0.00
  -18   24    9      1.65      0.00
  -17   23    9     -1.68      0.00
  -16   22    9     -3.92      0.00
  -15   21    9      1.87      0.00
    7    1    9     -2.32      0.00
    8    2    9    -11.17      0.00
    9    3    9      8.38      0.00
   10    4    9     14.19      0.00
   11    5    9    -11.11      0.00
   12    6    9     -2.82      0.00
   13    7    9      2.19      0.00
   14    8    9     -0.65      0.00
   15    9    9     -2.01      0.00
   16   10    9     -1.97      0.00
   17   11    9      3.98      0.00
   18   12    9      0.96      0.00
   19   13    9     -3.58      0.00
   20   14    9      1.68      0.00
   21   15    9      1.58      0.00
   22   16    9     -1.09      0.00
   23   17    9     -2.16      0.00
  -18   26    9      1.25      0.00
  -17   25    9      0.86      0.00
  -16   24    9      0.08      0.00
  -15   23    9      0.84      0.00
  -14   22    9      2.32      0.00
    9    1    9     11.57      0.00
   10    2    9      4.17      0.00
   11    3    9     -8.84      0.00
   12    4    9     -2.69      0.00
   13    5    9      3.69      0.00
   14    6    9     -1.59      0.00
   15    7    9     -0.72      0.00
   16    8    9      1.22      0.00
   17    9    9     -1.25      0.00
   18   10    9     -0.11      0.00
   19   11    9     -0.74      0.00
   20   12    9      0.49      0.00
   21   13    9     -0.83      0.00
   22   14    9      0.40      0.00
   23   15    9     -0.40      0.00
   24   16    9      4.46      0.00
  -17   27    9     -1.58      0.00
  -16   26    9      1.25      0.00
  -15   25    9      2.47      0.00
  -14   24    9     -1.72      0.00
  -13   23    9     -3.88      0.00
   11    1    9      3.14      0.00
   12    2    9    -10.29      0.00
   13    3    9      1.17      0.00
   14    4    9      5.42      0.00
   15    5    9      1.46      0.00
   16    6    9      0.06      0.00
   17    7    9     -0.03      0.00
   18    8    9     -0.71      0.00
   19    9    9      1.46      0.00
   20   10    9     -1.45      0.00
   21   11    9      0.61      0.00
   22   12    9      0.20      0.00
   23   13    9     -0.11      0.00
   24   14    9      0.57      0.00
  -16   28    9      2.85      0.00
  -15   27    9     -3.21      0.00
  -14   26    9     -1.17      0.00
  -13   25    9      2.83      0.00
  -12   24    9      1.97      0.00
   13    1    9      5.23      0.00
   14    2    9      1.79      0.00
   15    3    9     -1.60      0.00
   16    4    9     -1.88      0.00
   17    5    9     -1.05      0.00
   18    6    9     -0.74      0.00
   19    7    9      1.57      0.00
   20    8    9      1.44      0.00
   21    9    9     -1.18      0.00
   22   10    9     -0.32      0.00
   23   11    9      2.03      0.00
   24   12    9     -2.17      0.00
   25   13    9     -2.61      0.00
  -15   29    9     -3.45      0.00
  -14   28    9      2.65      0.00
  -13   27    9     -1.53      0.00
  -12   26    9     -0.03      0.00
  -11   25    9     -0.56      0.00
   15    1    9      0.76      0.00
   16    2    9     -0.76      0.00
   17    3    9      1.26      0.00
   18    4    9     -1.77      0.00
   19    5    9      1.22      0.00
   20    6    9      1.67      0.00
   21    7    9     -2.16      0.00
   22    8    9     -0.76      0.00
   23    9    9      1.40      0.00
   24   10    9      0.02      0.00
   25   11    9      1.03      0.00
  -14   30    9     -2.19      0.00
  -13   29    9      2.25      0.00
  -12   28    9      1.49      0.00
  -11   27    9     -2.15      0.00
  -10   26    9      1.42      0.00
   17    1    9     -1.25      0.00
   18    2    9     -1.57      0.00
   19    3    9      1.64      0.00
   20    4    9      1.14      0.00
   21    5    9     -1.97      0.00
   22    6    9     -0.24      0.00
   23    7    9      0.97      0.00
   24    8    9     -0.71      0.00
   25    9    9     -0.54      0.00
   26   10    9     -1.75      0.00
  -13   31    9      2.89      0.00
  -12   30    9     -1.34      0.00
  -11   29    9     -0.40      0.00
  -10   28    9      0.18      0.00
   -9   27    9     -1.74      0.00
   19    1    9      0.70      0.00
   20    2    9      0.87      0.00
   21    3    9      0.75      0.00
   22    4    9     -2.81      0.00
   23    5    9      0.60      0.00
   24    6    9      0.41      0.00
   25    7    9      0.48      0.00
   26    8    9     -0.50      0.00
   27    9    9      3.39      0.00
  -12   32    9     -3.53      0.00
  -11   31    9      2.63      0.00
  -10   30    9     -3.87      0.00
   -9   29    9      3.11      0.00
   21    1    9     -0.36      0.00
   22    2    9      0.03      0.00
   23    3    9     -0.90      0.00
   24    4    9      1.28      0.00
   25    5    9      0.63      0.00
   26    6    9     -1.11      0.00
   27    7    9      0.79      0.00
  -11   33    9      0.97      0.00
  -10   32    9     -1.04      0.00
   -9   31    9     -0.51      0.00
   -8   30    9     -0.76      0.00
   23    1    9      0.39      0.00
   24    2    9     -0.80      0.00
   25    3    9      4.00      0.00
   26    4    9     -0.97      0.00
   27    5    9      0.51      0.00
   28    6    9     -1.13      0.00
   -9   33    9      1.03      0.00
   -8   32    9      1.63      0.00
   -7   31    9      1.58      0.00
   25    1    9     -1.07      0.00
   26    2    9     -1.31      0.00
   27    3    9     -2.27      0.00
   28    4    9     -0.54      0.00
   -8   34    9      0.73      0.00
   -7   33    9     -3.02      0.00
   27    1    9      1.24      0.00
   28    2    9     -0.16      0.00
   29    3    9      0.61      0.00
   -7   35    9     -2.42      0.00
   -6   34    9      1.73      0.00
   29    1    9      0.41      0.00
   -6   36    9      0.07      0.00
   -5   35    9      1.68      0.00
   -4   34    9      0.62      0.00
   -3   35    9     -3.71      0.00
   30    2    9      0.00      0.00
   -2   36    9     -2.48      0.00
   -1   35    9      4.48      0.00
   29    5    9      0.62      0.00
   30    4    9      2.27      0.00
   28    8    9     -3.09      0.00
   29    7    9      1.57      0.00
   26   12    9      1.65      0.00
   27   11    9      2.19      0.00
   28   10    9     -4.87      0.00
   29    9    9      2.38      0.00
   25   15    9     -1.63      0.00
   26   14    9      2.67      0.00
   27   13    9     -3.47      0.00
   22   20    9     -2.54      0.00
   23   19    9      4.14      0.00
  -26   12   10      2.01      0.00
  -25   13   10     -1.12      0.00
  -24   14   10     -0.04      0.00
  -23   15   10     -3.07      0.00
  -22   16   10      2.42      0.00
  -21   17   10     -1.14      0.00
  -20   18   10     -2.04      0.00
   -8   30   10      0.47      0.00
   -7   31   10     -2.45      0.00
   -6   32   10      0.21      0.00
  -26   10   10     -2.08      0.00
  -25   11   10     -0.77      0.00
  -24   12   10     -0.27      0.00
  -23   13   10     -0.17      0.00
  -22   14   10      0.62      0.00
  -21   15   10      1.39      0.00
  -20   16   10     -0.31      0.00
  -19   17   10      1.09      0.00
  -18   18   10      1.55      0.00
  -17   19   10     -1.18      0.00
  -16   20   10     -0.71      0.00
  -15   21   10     -0.49      0.00
  -12   24   10     -2.98      0.00
  -11   25   10     -1.74      0.00
  -10   26   10      1.06      0.00
   -9   27   10     -0.57      0.00
   -8   28   10     -3.89      0.00
   -7   29   10      0.49      0.00
   -6   30   10     -0.55      0.00
   -5   31   10      0.43      0.00
   -4   32   10      0.52      0.00
   -3   33   10     -0.74      0.00
  -30    4   10     -1.04      0.00
  -29    5   10     -1.37      0.00
  -28    6   10      2.18      0.00
  -27    7   10     -1.80      0.00
  -26    8   10      0.09      0.00
  -25    9   10      0.11      0.00
  -24   10   10     -1.99      0.00
  -23   11   10     -0.13      0.00
  -22   12   10      0.70      0.00
  -21   13   10      0.70      0.00
  -20   14   10     -0.47      0.00
  -19   15   10      0.11      0.00
  -18   16   10     -2.67      0.00
  -17   17   10     -0.16      0.00
  -16   18   10      0.08      0.00
  -15   19   10      1.27      0.00
  -14   20   10     -0.69      0.00
  -13   21   10      1.23      0.00
  -12   22   10     -0.26      0.00
  -11   23   10     -0.78      0.00
  -10   24   10     -2.03      0.00
   -9   25   10     -0.02      0.00
   -8   26   10      0.76      0.00
   -7   27   10      1.39      0.00
   -6   28   10      0.29      0.00
   -5   29   10      0.68      0.00
   -4   30   10      1.33      0.00
   -3   31   10      2.31      0.00
   -2   32   10     -3.71      0.00
   -1   33   10     -1.79      0.00
    0   34   10     -0.11      0.00
  -29    3   10     -3.22      0.00
  -28    4   10      1.04      0.00
  -27    5   10     -1.10      0.00
  -26    6   10      0.57      0.00
  -25    7   10      0.02      0.00
  -24    8   10     -0.95      0.00
  -23    9   10      1.74      0.00
  -22   10   10      0.54      0.00
  -21   11   10      0.52      0.00
  -20   12   10      1.36      0.00
  -19   13   10     -2.26      0.00
  -18   14   10     -0.93      0.00
  -17   15   10      0.93      0.00
  -16   16   10      0.24      0.00
  -15   17   10      0.74      0.00
  -14   18   10     -0.25      0.00
  -13   19   10     -0.76      0.00
  -12   20   10     -1.47      0.00
  -11   21   10     -0.62      0.00
  -10   22   10      1.60      0.00
   -9   23   10      2.05      0.00
   -8   24   10      0.21      0.00
   -7   25   10      0.25      0.00
   -6   26   10     -1.21      0.00
   -5   27   10      0.50      0.00
   -4   28   10     -1.28      0.00
   -3   29   10     -1.93      0.00
   -2   30   10     -1.86      0.00
   -1   31   10      3.40      0.00
    0   32   10     -0.69      0.00
    1   33   10      3.28      0.00
    2   34   10     -2.40      0.00
    3   35   10     -0.72      0.00
  -29    1   10     -4.27      0.00
  -28    2   10      1.78      0.00
  -27    3   10      0.60      0.00
  -26    4   10     -1.66      0.00
  -25    5   10     -0.87      0.00
  -24    6   10      1.36      0.00
  -23    7   10      0.35      0.00
  -22    8   10      0.60      0.00
  -21    9   10      1.45      0.00
  -20   10   10     -2.25      0.00
  -19   11   10     -0.15      0.00
  -18   12   10      0.58      0.00
  -17   13   10      0.07      0.00
  -16   14   10      1.52      0.00
  -15   15   10      1.03      0.00
  -14   16   10      0.48      0.00
  -13   17   10      0.40      0.00
  -12   18   10     -0.07      0.00
  -11   19   10     -0.59      0.00
  -10   20   10     -0.37      0.00
   -9   21   10      0.58      0.00
   -8   22   10     -0.32      0.00
   -7   23   10      0.11      0.00
   -6   24   10      0.48      0.00
   -5   25   10      0.33      0.00
   -4   26   10      0.56      0.00
   -3   27   10      0.62      0.00
   -2   28   10      1.48      0.00
   -1   29   10     -1.15      0.00
    0   30   10      1.39      0.00
    1   31   10      0.47      0.00
    2   32   10     -3.64      0.00
    3   33   10     -0.51      0.00
    4   34   10      2.58      0.00
    5   35   10     -0.67      0.00
  -28    0   10     -0.70      0.00
  -27    1   10      4.33      0.00
  -26    2   10     -0.93      0.00
  -25    3   10      2.80      0.00
  -24    4   10     -0.37      0.00
  -23    5   10      0.51      0.00
  -22    6   10      0.04      0.00
  -21    7   10     -2.09      0.00
  -20    8   10     -1.55      0.00
  -19    9   10      0.39      0.00
  -18   10   10     -0.92      0.00
  -17   11   10     -1.80      0.00
  -16   12   10      2.67      0.00
  -15   13   10      0.22      0.00
  -14   14   10     -2.76      0.00
  -13   15   10     -2.94      0.00
  -12   16   10     -0.72      0.00
  -11   17   10      0.84      0.00
  -10   18   10      2.95      0.00
   -9   19   10      0.30      0.00
   -8   20   10     -0.21      0.00
   -7   21   10     -0.20      0.00
   -6   22   10     -0.94      0.00
   -5   23   10     -1.78      0.00
   -4   24   10     -0.48      0.00
   -3   25   10     -0.48      0.00
   -2   26   10     -0.48      0.00
   -1   27   10     -0.79      0.00
    0   28   10      1.80      0.00
    1   29   10     -1.63      0.00
    2   30   10     -0.88      0.00
    3   31   10      1.52      0.00
    4   32   10      2.45      0.00
    5   33   10      1.04      0.00
    6   34   10     -1.84      0.00
  -26    0   10     -5.08      0.00
  -25    1   10     -0.05      0.00
  -24    2   10      0.54      0.00
  -23    3   10     -2.57      0.00
  -22    4   10      1.17      0.00
  -21    5   10     -0.55      0.00
  -20    6   10     -1.01      0.00
  -19    7   10      3.21      0.00
  -18    8   10      0.50      0.00
  -17    9   10     -0.05      0.00
  -16   10   10      3.14      0.00
  -15   11   10     -0.16      0.00
  -14   12   10     -1.73      0.00
  -13   13   10      0.20      0.00
  -12   14   10      2.06      0.00
  -11   15   10      0.53      0.00
  -10   16   10     -0.88      0.00
   -9   17   10     -1.20      0.00
   -8   18   10     -0.53      0.00
   -7   19   10     -0.69      0.00
   -6   20   10      0.06      0.00
   -5   21   10      0.32      0.00
   -4   22   10      1.65      0.00
   -3   23   10      0.67      0.00
   -2   24   10      1.26      0.00
   -1   25   10      0.39      0.00
    0   26   10     -1.02      0.00
    1   27   10     -0.23      0.00
    2   28   10     -0.87      0.00
    3   29   10      1.12      0.00
    4   30   10      0.84      0.00
    5   31   10     -0.71      0.00
    6   32   10     -3.91      0.00
    7   33   10      0.84      0.00
  -24    0   10     -0.51      0.00
  -23    1   10      0.93      0.00
  -22    2   10      0.29      0.00
  -21    3   10     -0.13      0.00
  -20    4   10     -0.42      0.00
  -19    5   10     -0.94      0.00
  -18    6   10      0.88      0.00
  -17    7   10     -1.06      0.00
  -16    8   10      0.04      0.00
  -15    9   10     -0.87      0.00
  -14   10   10     -1.60      0.00
  -13   11   10     -1.75      0.00
  -12   12   10      0.53      0.00
  -11   13   10      3.00      0.00
  -10   14   10      1.61      0.00
   -9   15   10      0.39      0.00
   -8   16   10     -0.99      0.00
   -7   17   10     -0.54      0.00
   -6   18   10     -1.48      0.00
   -5   19   10      1.45      0.00
   -4   20   10      0.13      0.00
   -3   21   10     -0.58      0.00
   -2   22   10     -0.60      0.00
   -1   23   10     -0.31      0.00
    0   24   10     -1.14      0.00
    1   25   10      1.44      0.00
    2   26   10      0.37      0.00
    3   27   10      0.82      0.00
    4   28   10      1.01      0.00
    5   29   10     -2.04      0.00
    6   30   10     -1.00      0.00
    7   31   10      2.71      0.00
    8   32   10     -0.93      0.00
    9   33   10     -0.22      0.00
   10   34   10     -2.67      0.00
  -22    0   10     -1.23      0.00
  -21    1   10     -0.22      0.00
  -20    2   10     -0.91      0.00
  -19    3   10      2.23      0.00
  -18    4   10      1.27      0.00
  -17    5   10      2.12      0.00
  -16    6   10     -2.91      0.00
  -15    7   10     -1.21      0.00
  -14    8   10      0.22      0.00
  -13    9   10      1.30      0.00
  -12   10   10      2.99      0.00
  -11   11   10      0.10      0.00
  -10   12   10     -2.46      0.00
   -9   13   10     -2.26      0.00
   -8   14   10     -0.64      0.00
   -7   15   10     -1.45      0.00
   -6   16   10      3.20      0.00
   -5   17   10      1.51      0.00
   -4   18   10      0.41      0.00
   -3   19   10     -1.31      0.00
   -2   20   10     -0.25      0.00
   -1   21   10      0.24      0.00
    0   22   10     -1.52      0.00
    1   23   10      1.46      0.00
    2   24   10      0.30      0.00
    3   25   10     -0.48      0.00
    4   26   10     -1.13      0.00
    5   27   10     -0.12      0.00
    6   28   10     -0.77      0.00
    7   29   10      0.70      0.00
    8   30   10      1.23      0.00
    9   31   10     -1.21      0.00
   10   32   10      1.97      0.00
   11   33   10     -0.92      0.00
  -28    8   10     -2.14      0.00
  -20    0   10      1.89      0.00
  -19    1   10      1.07      0.00
  -18    2   10     -1.27      0.00
  -17    3   10     -1.72      0.00
  -16    4   10     -2.09      0.00
  -15    5   10      0.36      0.00
  -14    6   10      0.28      0.00
  -13    7   10      2.57      0.00
  -12    8   10      2.17      0.00
  -11    9   10     -1.62      0.00
  -10   10   10     -2.49      0.00
   -9   11   10     -0.17      0.00
   -8   12   10      1.76      0.00
   -7   13   10     -2.40      0.00
   -6   14   10      1.61      0.00
   -5   15   10      2.17      0.00
   -4   16   10     -1.00      0.00
   -3   17   10     -1.31      0.00
   -2   18   10     -0.10      0.00
   -1   19   10      0.75      0.00
    0   20   10      1.55      0.00
    1   21   10     -0.45      0.00
    2   22   10      0.75      0.00
    3   23   10     -0.36      0.00
    4   24   10     -1.89      0.00
    5   25   10      0.27      0.00
    6   26   10      0.67      0.00
    7   27   10      1.59      0.00
    8   28   10     -0.92      0.00
    9   29   10     -0.41      0.00
   10   30   10      0.82      0.00
   11   31   10      0.40      0.00
  -28   10   10     -1.01      0.00
  -27    9   10      5.15      0.00
  -18    0   10     -2.30      0.00
  -17    1   10     -0.90      0.00
  -16    2   10      1.89      0.00
  -15    3   10      0.89      0.00
  -14    4   10      1.32      0.00
  -13    5   10      0.35      0.00
  -12    6   10      0.70      0.00
  -11    7   10     -4.53      0.00
  -10    8   10     -4.77      0.00
   -9    9   10      0.28      0.00
   -8   10   10      5.10      0.00
   -7   11   10      0.32      0.00
   -6   12   10      1.28      0.00
   -5   13   10      1.07      0.00
   -4   14   10     -0.46      0.00
   -3   15   10     -2.06      0.00
   -2   16   10     -3.88      0.00
   -1   17   10      2.86      0.00
    0   18   10      2.35      0.00
    1   19   10     -2.52      0.00
    2   20   10     -1.97      0.00
    3   21   10      1.14      0.00
    4   22   10      1.38      0.00
    5   23   10     -0.67      0.00
    6   24   10      0.81      0.00
    7   25   10      0.32      0.00
    8   26   10      0.18      0.00
    9   27   10      0.01      0.00
   10   28   10     -0.25      0.00
   11   29   10     -1.70      0.00
   12   30   10     -0.65      0.00
  -27   11   10     -0.09      0.00
  -16    0   10      0.05      0.00
  -15    1   10      2.80      0.00
  -14    2   10     -1.10      0.00
  -13    3   10     -0.97      0.00
  -12    4   10      1.21      0.00
  -11    5   10     -0.17      0.00
  -10    6   10     -1.75      0.00
   -9    7   10      1.65      0.00
   -8    8   10      8.36      0.00
   -7    9   10     -0.82      0.00
   -6   10   10     -4.48      0.00
   -5   11   10     -1.33      0.00
   -4   12   10      0.32      0.00
   -3   13   10     -6.38      0.00
   -2   14   10      1.23      0.00
   -1   15   10      2.53      0.00
    0   16   10      4.22      0.00
    1   17   10     -3.87      0.00
    2   18   10     -0.72      0.00
    3   19   10      3.28      0.00
    4   20   10     -0.88      0.00
    5   21   10     -0.91      0.00
    6   22   10     -2.11      0.00
    7   23   10      2.42      0.00
    8   24   10     -0.71      0.00
    9   25   10     -1.69      0.00
   10   26   10     -0.41      0.00
   11   27   10      0.98      0.00
   12   28   10      0.02      0.00
   13   29   10     -0.12      0.00
  -14    0   10     -0.13      0.00
  -13    1   10     -4.90      0.00
  -12    2   10     -1.15      0.00
  -11    3   10      0.34      0.00
  -10    4   10     -2.56      0.00
   -9    5   10      1.12      0.00
   -8    6   10      5.45      0.00
   -7    7   10     -0.42      0.00
   -6    8   10     -5.25      0.00
   -5    9   10     -2.86      0.00
   -4   10   10      3.48      0.00
   -3   11   10      3.87      0.00
   -2   12   10      2.64      0.00
   -1   13   10      4.00      0.00
    0   14   10     -2.98      0.00
    1   15   10      0.94      0.00
    2   16   10     -3.49      0.00
    3   17   10     -1.31      0.00
    4   18   10      2.76      0.00
    5   19   10     -1.15      0.00
    6   20   10      1.53      0.00
    7   21   10      0.79      0.00
    8   22   10      0.81      0.00
    9   23   10     -0.53      0.00
   10   24   10      0.01      0.00
   11   25   10      0.87      0.00
   12   26   10      0.16      0.00
   13   27   10      2.28      0.00
   14   28   10     -1.81      0.00
  -26   14   10      0.49      0.00
  -12    0   10     -0.01      0.00
  -11    1   10      7.03      0.00
  -10    2   10      2.66      0.00
   -9    3   10     -1.91      0.00
   -8    4   10      3.35      0.00
   -7    5   10      1.23      0.00
   -6    6   10     -9.11      0.00
   -5    7   10     -2.56      0.00
   -4    8   10     -0.22      0.00
   -3    9   10      1.20      0.00
   -2   10   10     -0.77      0.00
   -1   11   10     -1.41      0.00
    0   12   10     -2.17      0.00
    1   13   10      0.63      0.00
    2   14   10     -0.25      0.00
    3   15   10      0.66      0.00
    4   16   10      1.25      0.00
    5   17   10      0.71      0.00
    6   18   10     -3.39      0.00
    7   19   10      0.99      0.00
    8   20   10     -0.92      0.00
    9   21   10     -1.14      0.00
   10   22   10     -0.92      0.00
   11   23   10     -0.31      0.00
   12   24   10      1.04      0.00
   13   25   10     -1.14      0.00
   14   26   10     -1.59      0.00
   15   27   10      1.09      0.00
  -25   15   10      0.95      0.00
  -10    0   10     -0.29      0.00
   -9    1   10     -3.35      0.00
   -8    2   10     -2.45      0.00
   -7    3   10     -4.31      0.00
   -6    4   10     -0.60      0.00
   -5    5   10     -2.14      0.00
   -4    6   10     11.07      0.00
   -3    7   10      5.38      0.00
   -2    8   10      4.80      0.00
   -1    9   10     -0.63      0.00
    0   10   10     -6.13      0.00
    1   11   10     -2.25      0.00
    2   12   10      4.21      0.00
    3   13   10     -3.30      0.00
    4   14   10     -0.41      0.00
    5   15   10      2.01      0.00
    6   16   10      2.25      0.00
    7   17   10      0.05      0.00
    8   18   10     -1.96      0.00
    9   19   10      2.25      0.00
   10   20   10     -0.35      0.00
   11   21   10      1.01      0.00
   12   22   10      0.40      0.00
   13   23   10     -0.49      0.00
   14   24   10      1.88      0.00
   15   25   10     -1.61      0.00
   16   26   10      0.51      0.00
  -24   16   10     -2.04      0.00
   -8    0   10     -4.20      0.00
   -7    1   10      1.09      0.00
   -6    2   10     -1.96      0.00
   -5    3   10      8.12      0.00
   -4    4   10     -1.86      0.00
   -3    5   10      2.27      0.00
   -2    6   10     -5.84      0.00
   -1    7   10     -2.88      0.00
    0    8   10     -2.51      0.00
    1    9   10      0.50      0.00
    2   10   10      5.92      0.00
    3   11   10     -0.38      0.00
    4   12   10     -1.35      0.00
    5   13   10      3.54      0.00
    6   14   10     -0.34      0.00
    7   15   10     -3.90      0.00
    8   16   10     -0.34      0.00
    9   17   10     -2.08      0.00
   10   18   10      4.78      0.00
   11   19   10     -1.33      0.00
   12   20   10     -1.72      0.00
   13   21   10      1.02      0.00
   14   22   10      0.83      0.00
   15   23   10     -2.40      0.00
   16   24   10      1.83      0.00
   17   25   10     -1.47      0.00
  -24   18   10     -1.32      0.00
  -23   17   10      3.66      0.00
   -6    0   10      4.03      0.00
   -5    1   10      8.56      0.00
   -4    2   10      6.17      0.00
   -3    3   10    -11.36      0.00
   -2    4   10     -6.96      0.00
   -1    5   10      0.65      0.00
    0    6   10     -4.38      0.00
    1    7   10    -10.77      0.00
    2    8   10      7.85      0.00
    3    9   10      6.57      0.00
    4   10   10     -2.64      0.00
    5   11   10     -2.50      0.00
    6   12   10      2.22      0.00
    7   13   10     -3.23      0.00
    8   14   10      0.46      0.00
    9   15   10      1.60      0.00
   10   16   10     -0.36      0.00
   11   17   10      2.23      0.00
   12   18   10     -2.84      0.00
   13   19   10     -0.22      0.00
   14   20   10      0.36      0.00
   15   21   10      1.00      0.00
   16   22   10     -1.59      0.00
   17   23   10      0.30      0.00
   18   24   10      3.07      0.00
  -23   19   10      0.03      0.00
  -22   18   10     -1.00      0.00
   -4    0   10     -6.51      0.00
   -3    1   10    -12.71      0.00
   -2    2   10      6.02      0.00
   -1    3   10      8.82      0.00
    0    4   10     21.10      0.00
    1    5   10     -0.93      0.00
    2    6   10      3.03      0.00
    3    7   10     14.24      0.00
    4    8   10    -11.66      0.00
    5    9   10     -8.99      0.00
    6   10   10     -1.06      0.00
    7   11   10      5.30      0.00
    8   12   10     -2.07      0.00
    9   13   10     -0.04      0.00
   10   14   10      4.65      0.00
   11   15   10     -2.77      0.00
   12   16   10     -1.02      0.00
   13   17   10     -1.42      0.00
   14   18   10      2.27      0.00
   15   19   10      2.87      0.00
   16   20   10     -3.54      0.00
   17   21   10      1.38      0.00
   18   22   10     -1.98      0.00
   19   23   10     -0.43      0.00
  -22   20   10     -3.44      0.00
  -21   19   10      1.39      0.00
   -2    0   10    -12.37      0.00
   -1    1   10     11.15      0.00
    0    2   10    -21.55      0.00
    1    3   10     -7.80      0.00
    2    4   10    -15.96      0.00
    3    5   10      9.93      0.00
    4    6   10     -0.06      0.00
    5    7   10     -9.35      0.00
    6    8   10     10.96      0.00
    7    9   10      2.59      0.00
    8   10   10     -0.19      0.00
    9   11   10      1.74      0.00
   10   12   10     -4.24      0.00
   11   13   10      1.15      0.00
   12   14   10      0.11      0.00
   13   15   10      0.12      0.00
   14   16   10      0.54      0.00
   15   17   10     -1.28      0.00
   16   18   10     -1.97      0.00
   17   19   10     -0.13      0.00
   18   20   10      2.28      0.00
   19   21   10      1.26      0.00
  -21   21   10      6.30      0.00
  -20   20   10     -2.46      0.00
  -19   19   10      3.12      0.00
    0    0   10     30.20      0.00
    1    1   10      1.54      0.00
    2    2   10     12.17      0.00
    3    3   10      2.56      0.00
    4    4   10      1.06      0.00
    5    5   10    -10.96      0.00
    6    6   10     -9.69      0.00
    7    7   10      9.83      0.00
    8    8   10      2.27      0.00
    9    9   10     -3.68      0.00
   10   10   10     -1.65      0.00
   11   11   10      1.26      0.00
   12   12   10      0.56      0.00
   13   13   10      0.97      0.00
   14   14   10     -2.70      0.00
   15   15   10      3.83      0.00
   16   16   10      1.61      0.00
   17   17   10     -1.61      0.00
   18   18   10     -0.54      0.00
   19   19   10      2.35      0.00
   20   20   10     -2.17      0.00
  -20   22   10     -1.22      0.00
  -19   21   10     -1.22      0.00
  -18   20   10     -1.53      0.00
    2    0   10    -25.48      0.00
    3    1   10     -9.66      0.00
    4    2   10      3.62      0.00
    5    3   10      0.11      0.00
    6    4   10      3.80      0.00
    7    5   10     15.19      0.00
    8    6   10     -0.48      0.00
    9    7   10     -9.29      0.00
   10    8   10      1.17      0.00
   11    9   10     -0.58      0.00
   12   10   10      0.43      0.00
   13   11   10      1.42      0.00
   14   12   10     -3.74      0.00
   15   13   10     -1.44      0.00
   16   14   10      0.98      0.00
   17   15   10     -1.04      0.00
   18   16   10      0.08      0.00
   19   17   10      0.33      0.00
   20   18   10     -0.32      0.00
   21   19   10      0.74      0.00
  -19   23   10     -2.74      0.00
  -18   22   10      1.66      0.00
  -17   21   10     -0.24      0.00
    4    0   10      7.58      0.00
    5    1   10     10.61      0.00
    6    2   10     -0.19      0.00
    7    3   10     -6.92      0.00
    8    4   10     -0.93      0.00
    9    5   10     -0.21      0.00
   10    6   10     -6.06      0.00
   11    7   10      3.31      0.00
   12    8   10      2.95      0.00
   13    9   10      1.89      0.00
   14   10   10     -2.93      0.00
   15   11   10      3.89      0.00
   16   12   10      1.23      0.00
   17   13   10      0.52      0.00
   18   14   10     -1.56      0.00
   19   15   10      0.26      0.00
   20   16   10      1.08      0.00
   21   17   10     -1.90      0.00
  -19   25   10      1.44      0.00
  -18   24   10      0.88      0.00
  -17   23   10     -1.39      0.00
  -16   22   10      2.86      0.00
    6    0   10      1.79      0.00
    7    1   10     -8.14      0.00
    8    2   10      1.33      0.00
    9    3   10     -5.35      0.00
   10    4   10      0.38      0.00
   11    5   10      5.10      0.00
   12    6   10     -0.06      0.00
   13    7   10     -1.88      0.00
   14    8   10      0.17      0.00
   15    9   10     -2.54      0.00
   16   10   10      0.80      0.00
   17   11   10     -0.56      0.00
   18   12   10      0.17      0.00
   19   13   10     -0.54      0.00
   20   14   10     -0.16      0.00
   21   15   10      1.08      0.00
   22   16   10      0.71      0.00
  -18   26   10     -2.53      0.00
  -17   25   10      2.94      0.00
  -16   24   10     -1.52      0.00
  -15   23   10     -0.83      0.00
  -14   22   10      0.42      0.00
    8    0   10    -13.61      0.00
    9    1   10      8.48      0.00
   10    2   10      7.31      0.00
   11    3   10     -0.67      0.00
   12    4   10      1.12      0.00
   13    5   10     -2.83      0.00
   14    6   10      2.22      0.00
   15    7   10     -1.27      0.00
   16    8   10     -0.40      0.00
   17    9   10      1.18      0.00
   18   10   10     -1.48      0.00
   19   11   10     -0.03      0.00
   20   12   10      0.91      0.00
   21   13   10     -0.47      0.00
   22   14   10     -0.60      0.00
   23   15   10      1.28      0.00
  -17   27   10      3.27      0.00
  -16   26   10     -1.11      0.00
  -15   25   10     -2.31      0.00
  -14   24   10     -0.75      0.00
  -13   23   10      3.31      0.00
   10    0   10      4.68      0.00
   11    1   10     -1.69      0.00
   12    2   10     -1.66      0.00
   13    3   10     -3.24      0.00
   14    4   10     -0.46      0.00
   15    5   10      1.84      0.00
   16    6   10      0.62      0.00
   17    7   10     -1.35      0.00
   18    8   10      2.23      0.00
   19    9   10     -0.98      0.00
   20   10   10     -0.01      0.00
   21   11   10     -0.90      0.00
   22   12   10      1.48      0.00
   23   13   10     -0.87      0.00
   24   14   10     -1.27      0.00
  -16   28   10     -2.07      0.00
  -15   27   10     -1.97      0.00
  -14   26   10      3.39      0.00
  -13   25   10      0.10      0.00
   12    0   10     -7.73      0.00
   13    1   10     -1.16      0.00
   14    2   10      2.63      0.00
   15    3   10      2.94      0.00
   16    4   10     -2.57      0.00
   17    5   10     -1.51      0.00
   18    6   10      1.74      0.00
   19    7   10      1.32      0.00
   20    8   10     -2.10      0.00
   21    9   10      1.17      0.00
   22   10   10      1.18      0.00
   23   11   10     -1.32      0.00
   24   12   10      0.26      0.00
  -15   29   10     -1.03      0.00
  -14   28   10      3.08      0.00
  -13   27   10     -2.62      0.00
  -12   26   10      5.27      0.00
   14    0   10      2.75      0.00
   15    1   10      1.46      0.00
   16    2   10     -0.44      0.00
   17    3   10     -0.39      0.00
   18    4   10      0.12      0.00
   19    5   10      1.58      0.00
   20    6   10     -2.14      0.00
   21    7   10     -0.53      0.00
   22    8   10      1.06      0.00
   23    9   10     -0.32      0.00
   24   10   10     -0.35      0.00
   25   11   10      2.70      0.00
  -14   30   10     -0.41      0.00
  -13   29   10     -0.51      0.00
  -12   28   10      0.61      0.00
  -11   27   10     -3.10      0.00
   16    0   10      0.49      0.00
   17    1   10     -2.49      0.00
   18    2   10     -0.57      0.00
   19    3   10      1.11      0.00
   20    4   10     -1.74      0.00
   21    5   10      0.02      0.00
   22    6   10      1.42      0.00
   23    7   10      0.50      0.00
   24    8   10     -1.52      0.00
   25    9   10     -0.63      0.00
  -13   31   10     -2.81      0.00
  -12   30   10      2.82      0.00
  -11   29   10     -3.26      0.00
  -10   28   10      2.37      0.00
   18    0   10      1.93      0.00
   19    1   10     -0.71      0.00
   20    2   10      1.53      0.00
   21    3   10     -0.98      0.00
   22    4   10      2.18      0.00
   23    5   10     -2.56      0.00
   24    6   10      0.08      0.00
   25    7   10      0.51      0.00
   26    8   10      0.87      0.00
  -12   32   10      0.89      0.00
  -11   31   10     -2.32      0.00
  -10   30   10      1.09      0.00
   -9   29   10      2.68      0.00
   20    0   10      1.22      0.00
   21    1   10      1.04      0.00
   22    2   10     -1.26      0.00
   23    3   10      0.97      0.00
   24    4   10     -0.16      0.00
   25    5   10     -0.29      0.00
   26    6   10      0.60      0.00
  -10   32   10      3.12      0.00
   -9   31   10      0.00      0.00
   22    0   10     -3.90      0.00
   23    1   10      0.76      0.00
   24    2   10      1.19      0.00
   25    3   10     -0.60      0.00
   26    4   10      0.93      0.00
   27    5   10      0.51      0.00
   -9   33   10     -2.06      0.00
   -8   32   10     -0.70      0.00
   24    0   10     -2.00      0.00
   25    1   10      1.02      0.00
   26    2   10     -2.06      0.00
   27    3   10      0.44      0.00
   -8   34   10     -0.12      0.00
   -7   33   10      1.30      0.00
   26    0   10      3.03      0.00
   27    1   10     -1.11      0.00
   28    2   10      0.54      0.00
   -6   34   10     -1.59      0.00
   -5   33   10      1.06      0.00
   28    0   10     -1.82      0.00
   -5   35   10      2.34      0.00
   -4   34   10     -0.53      0.00
   29    1   10      1.52      0.00
   -3   35   10     -1.87      0.00
   -2   34   10      2.25      0.00
   28    4   10     -0.52      0.00
   29    3   10      0.51      0.00
   -1   35   10      1.67      0.00
   27    7   10     -0.08      0.00
   28    6   10     -0.48      0.00
   29    5   10     -2.12      0.00
    1   35   10     -0.54      0.00
   26   10   10      0.67      0.00
   27    9   10     -2.13      0.00
   28    8   10     -0.49      0.00
   29    7   10      0.78      0.00
   25   13   10      1.70      0.00
   26   12   10     -3.29      0.00
   27   11   10     -0.41      0.00
   28   10   10      0.30      0.00
   22   18   10     -0.46      0.00
   23   17   10     -1.05      0.00
   24   16   10     -0.74      0.00
   25   15   10      1.92      0.00
   26   14   10     -4.26      0.00
   20   22   10     -0.55      0.00
   21   21   10     -1.66      0.00
  -23   15   11      0.76      0.00
  -22   16   11     -1.96      0.00
  -21   17   11     -0.20      0.00
  -20   18   11      1.33      0.00
  -19   19   11      1.27      0.00
  -10   28   11      0.97      0.00
   -9   29   11     -0.57      0.00
   -8   30   11      4.17      0.00
   -7   31   11     -2.95      0.00
  -25   11   11     -0.45      0.00
  -24   12   11     -2.44      0.00
  -23   13   11      1.85      0.00
  -22   14   11      0.45      0.00
  -21   15   11     -1.72      0.00
  -20   16   11      2.11      0.00
  -19   17   11      1.09      0.00
  -18   18   11     -3.20      0.00
  -17   19   11      3.17      0.00
  -16   20   11     -2.26      0.00
  -15   21   11     -0.75      0.00
  -14   22   11     -1.62      0.00
  -13   23   11      1.54      0.00
  -12   24   11     -1.33      0.00
  -11   25   11     -0.53      0.00
  -10   26   11     -3.26      0.00
   -9   27   11      0.88      0.00
   -8   28   11     -0.60      0.00
   -7   29   11     -1.44      0.00
   -6   30   11     -0.72      0.00
   -5   31   11      1.37      0.00
   -4   32   11     -0.53      0.00
  -27    7   11      1.92      0.00
  -26    8   11     -2.18      0.00
  -25    9   11      1.43      0.00
  -24   10   11     -2.55      0.00
  -23   11   11      2.77      0.00
  -22   12   11     -0.13      0.00
  -21   13   11     -1.39      0.00
  -20   14   11     -0.35      0.00
  -19   15   11     -0.24      0.00
  -18   16   11      0.15      0.00
  -17   17   11     -0.18      0.00
  -16   18   11     -2.30      0.00
  -15   19   11      1.29      0.00
  -14   20   11      1.01      0.00
  -13   21   11      1.30      0.00
  -12   22   11     -0.93      0.00
  -11   23   11      2.60      0.00
  -10   24   11     -0.70      0.00
   -9   25   11      1.32      0.00
   -8   26   11      0.48      0.00
   -7   27   11      0.57      0.00
   -6   28   11     -2.10      0.00
   -5   29   11      1.85      0.00
   -4   30   11      0.66      0.00
   -3   31   11     -0.68      0.00
   -2   32   11      0.52      0.00
   -1   33   11     -2.67      0.00
  -29    3   11      3.67      0.00
  -28    4   11     -0.05      0.00
  -27    5   11     -1.44      0.00
  -26    6   11     -0.50      0.00
  -25    7   11      0.26      0.00
  -24    8   11     -1.10      0.00
  -23    9   11      2.89      0.00
  -22   10   11     -1.07      0.00
  -21   11   11     -0.94      0.00
  -20   12   11      1.36      0.00
  -19   13   11      0.41      0.00
  -18   14   11      0.82      0.00
  -17   15   11     -0.06      0.00
  -16   16   11     -1.10      0.00
  -15   17   11      0.33      0.00
  -14   18   11      0.28      0.00
  -13   19   11      0.03      0.00
  -12   20   11     -0.62      0.00
  -11   21   11     -0.40      0.00
  -10   22   11     -0.83      0.00
   -9   23   11      1.72      0.00
   -8   24   11     -1.22      0.00
   -7   25   11     -0.60      0.00
   -6   26   11     -0.21      0.00
   -5   27   11     -0.08      0.00
   -4   28   11      1.71      0.00
   -3   29   11     -1.74      0.00
   -2   30   11      0.15      0.00
   -1   31   11      0.83      0.00
    0   32   11      3.64      0.00
    1   33   11     -0.59      0.00
    2   34   11     -0.39      0.00
  -28    2   11     -0.74      0.00
  -27    3   11     -1.85      0.00
  -26    4   11      0.30      0.00
  -25    5   11      0.15      0.00
  -24    6   11     -1.05      0.00
  -23    7   11      0.92      0.00
  -22    8   11     -0.54      0.00
  -21    9   11     -0.81      0.00
  -20   10   11      1.86      0.00
  -19   11   11     -1.92      0.00
  -18   12   11      2.33      0.00
  -17   13   11     -1.80      0.00
  -16   14   11     -0.78      0.00
  -15   15   11      0.72      0.00
  -14   16   11      1.11      0.00
  -13   17   11      1.55      0.00
  -12   18   11      1.07      0.00
  -11   19   11     -0.54      0.00
  -10   20   11     -0.16      0.00
   -9   21   11     -1.75      0.00
   -8   22   11     -1.66      0.00
   -7   23   11      1.47      0.00
   -6   24   11      1.65      0.00
   -5   25   11     -0.14      0.00
   -4   26   11      1.27      0.00
   -3   27   11     -1.81      0.00
   -2   28   11      0.52      0.00
   -1   29   11      0.60      0.00
    0   30   11     -2.77      0.00
    1   31   11      0.57      0.00
    2   32   11     -3.15      0.00
    3   33   11      0.08      0.00
  -27    1   11      0.79      0.00
  -26    2   11      0.30      0.00
  -25    3   11      0.58      0.00
  -24    4   11      1.52      0.00
  -23    5   11      0.48      0.00
  -22    6   11     -0.10      0.00
  -21    7   11     -0.58      0.00
  -20    8   11     -0.11      0.00
  -19    9   11      0.84      0.00
  -18   10   11     -0.61      0.00
  -17   11   11     -3.64      0.00
  -16   12   11      1.35      0.00
  -15   13   11      0.80      0.00
  -14   14   11      1.47      0.00
  -13   15   11     -1.39      0.00
  -12   16   11     -2.46      0.00
  -11   17   11     -2.02      0.00
  -10   18   11      0.23      0.00
   -9   19   11      0.19      0.00
   -8   20   11      2.13      0.00
   -7   21   11      0.99      0.00
   -6   22   11     -0.25      0.00
   -5   23   11     -1.31      0.00
   -4   24   11     -0.75      0.00
   -3   25   11     -1.23      0.00
   -2   26   11      1.75      0.00
   -1   27   11     -0.75      0.00
    0   28   11      0.94      0.00
    1   29   11      0.47      0.00
    2   30   11     -0.45      0.00
    3   31   11      1.67      0.00
    4   32   11      2.01      0.00
    5   33   11      1.37      0.00
    6   34   11     -0.84      0.00
  -25    1   11     -1.47      0.00
  -24    2   11     -0.95      0.00
  -23    3   11      0.69      0.00
  -22    4   11     -1.38      0.00
  -21    5   11      0.08      0.00
  -20    6   11      1.27      0.00
  -19    7   11     -0.11      0.00
  -18    8   11     -0.31      0.00
  -17    9   11     -0.93      0.00
  -16   10   11      2.61      0.00
  -15   11   11      2.39      0.00
  -14   12   11     -0.85      0.00
  -13   13   11     -1.05      0.00
  -12   14   11      0.74      0.00
  -11   15   11      0.54      0.00
  -10   16   11     -0.67      0.00
   -9   17   11     -0.87      0.00
   -8   18   11      2.06      0.00
   -7   19   11     -0.09      0.00
   -6   20   11     -0.91      0.00
   -5   21   11     -0.30      0.00
   -4   22   11     -0.04      0.00
   -3   23   11      1.08      0.00
   -2   24   11      0.49      0.00
   -1   25   11     -0.49      0.00
    0   26   11      0.39      0.00
    1   27   11     -1.80      0.00
    2   28   11      1.34      0.00
    3   29   11     -2.49      0.00
    4   30   11      2.73      0.00
    5   31   11     -1.86      0.00
    6   32   11     -5.17      0.00
  -23    1   11      0.39      0.00
  -22    2   11      2.65      0.00
  -21    3   11     -2.09      0.00
  -20    4   11     -0.22      0.00
  -19    5   11     -0.19      0.00
  -18    6   11     -2.35      0.00
  -17    7   11      0.99      0.00
  -16    8   11      0.55      0.00
  -15    9   11      0.93      0.00
  -14   10   11     -1.09      0.00
  -13   11   11     -1.43      0.00
  -12   12   11     -2.11      0.00
  -11   13   11     -0.53      0.00
  -10   14   11      2.78      0.00
   -9   15   11      2.90      0.00
   -8   16   11      0.99      0.00
   -7   17   11     -0.92      0.00
   -6   18   11     -0.77      0.00
   -5   19   11     -1.38      0.00
   -4   20   11     -0.11      0.00
   -3   21   11      1.01      0.00
   -2   22   11      0.89      0.00
   -1   23   11     -1.94      0.00
    0   24   11     -1.22      0.00
    1   25   11      2.08      0.00
    2   26   11      1.12      0.00
    3   27   11     -1.77      0.00
    4   28   11      2.39      0.00
    5   29   11     -0.89      0.00
    6   30   11     -0.47      0.00
    7   31   11      3.71      0.00
    8   32   11      0.28      0.00
    9   33   11     -1.43      0.00
  -28    6   11      0.29      0.00
  -21    1   11     -1.48      0.00
  -20    2   11     -1.04      0.00
  -19    3   11      0.82      0.00
  -18    4   11      3.20      0.00
  -17    5   11      0.22      0.00
  -16    6   11      1.14      0.00
  -15    7   11     -0.18      0.00
  -14    8   11     -1.89      0.00
  -13    9   11     -2.07      0.00
  -12   10   11     -0.08      0.00
  -11   11   11      2.50      0.00
  -10   12   11      0.32      0.00
   -9   13   11     -0.51      0.00
   -8   14   11     -1.76      0.00
   -7   15   11     -0.97      0.00
   -6   16   11     -1.83      0.00
   -5   17   11      1.60      0.00
   -4   18   11     -0.34      0.00
   -3   19   11      0.87      0.00
   -2   20   11      0.24      0.00
   -1   21   11     -1.51      0.00
    0   22   11      0.95      0.00
    1   23   11      1.12      0.00
    2   24   11     -0.89      0.00
    3   25   11     -1.00      0.00
    4   26   11      0.97      0.00
    5   27   11     -1.10      0.00
    6   28   11     -0.51      0.00
    7   29   11     -0.17      0.00
    8   30   11     -1.89      0.00
    9   31   11      2.75      0.00
   10   32   11     -3.32      0.00
  -28    8   11      1.30      0.00
  -19    1   11      1.64      0.00
  -18    2   11     -0.15      0.00
  -17    3   11     -0.88      0.00
  -16    4   11     -1.86      0.00
  -15    5   11     -1.08      0.00
  -14    6   11     -0.49      0.00
  -13    7   11     -0.26      0.00
  -12    8   11      3.09      0.00
  -11    9   11      2.06      0.00
  -10   10   11      1.19      0.00
   -9   11   11      3.00      0.00
   -8   12   11     -2.45      0.00
   -7   13   11     -3.21      0.00
   -6   14   11      0.02      0.00
   -5   15   11      2.89      0.00
   -4   16   11      0.20      0.00
   -3   17   11     -0.38      0.00
   -2   18   11      2.05      0.00
   -1   19   11     -0.15      0.00
    0   20   11     -1.31      0.00
    1   21   11      0.38      0.00
    2   22   11      0.48      0.00
    3   23   11      0.65      0.00
    4   24   11     -1.34      0.00
    5   25   11      0.25      0.00
    6   26   11      0.47      0.00
    7   27   11      1.29      0.00
    8   28   11      0.28      0.00
    9   29   11      0.78      0.00
   10   30   11     -2.08      0.00
   11   31   11      2.94      0.00
  -27    9   11     -2.07      0.00
  -17    1   11     -0.22      0.00
  -16    2   11     -0.16      0.00
  -15    3   11     -0.53      0.00
  -14    4   11      0.36      0.00
  -13    5   11      2.39      0.00
  -12    6   11      1.31      0.00
  -11    7   11     -2.76      0.00
  -10    8   11     -2.89      0.00
   -9    9   11     -0.95      0.00
   -8   10   11     -1.90      0.00
   -7   11   11     -6.11      0.00
   -6   12   11      4.56      0.00
   -5   13   11      3.60      0.00
   -4   14   11     -1.21      0.00
   -3   15   11     -2.52      0.00
   -2   16   11      1.65      0.00
   -1   17   11     -1.25      0.00
    0   18   11     -1.55      0.00
    1   19   11     -0.53      0.00
    2   20   11      3.18      0.00
    3   21   11     -2.59      0.00
    4   22   11     -0.40      0.00
    5   23   11      1.29      0.00
    6   24   11      0.80      0.00
    7   25   11     -0.64      0.00
    8   26   11     -2.45      0.00
    9   27   11      0.55      0.00
   10   28   11     -0.48      0.00
   11   29   11      1.88      0.00
   12   30   11     -3.05      0.00
  -27   11   11      0.72      0.00
  -26   10   11      2.22      0.00
  -15    1   11     -0.90      0.00
  -14    2   11     -0.22      0.00
  -13    3   11      2.44      0.00
  -12    4   11      1.37      0.00
  -11    5   11     -0.93      0.00
  -10    6   11      0.10      0.00
   -9    7   11      1.84      0.00
   -8    8   11      0.29      0.00
   -7    9   11     -0.65      0.00
   -6   10   11      3.67      0.00
   -5   11   11      4.23      0.00
   -4   12   11     -0.37      0.00
   -3   13   11     -2.87      0.00
   -2   14   11     -2.29      0.00
   -1   15   11      1.94      0.00
    0   16   11     -1.36      0.00
    1   17   11      0.39      0.00
    2   18   11      1.34      0.00
    3   19   11      0.25      0.00
    4   20   11      0.38      0.00
    5   21   11     -1.23      0.00
    6   22   11      0.20      0.00
    7   23   11     -0.30      0.00
    8   24   11     -0.01      0.00
    9   25   11      1.05      0.00
   10   26   11      0.65      0.00
   11   27   11     -0.13      0.00
   12   28   11     -1.68      0.00
   13   29   11      0.78      0.00
  -26   12   11     -1.97      0.00
  -13    1   11      2.00      0.00
  -12    2   11     -0.66      0.00
  -11    3   11     -3.31      0.00
  -10    4   11     -4.66      0.00
   -9    5   11     -1.67      0.00
   -8    6   11      3.10      0.00
   -7    7   11     -1.30      0.00
   -6    8   11      1.98      0.00
   -5    9   11      2.19      0.00
   -4   10   11     -1.85      0.00
   -3   11   11     -3.06      0.00
   -2   12   11      1.10      0.00
   -1   13   11      1.80      0.00
    0   14   11      2.08      0.00
    1   15   11     -1.78      0.00
    2   16   11      1.16      0.00
    3   17   11      0.09      0.00
    4   18   11     -1.84      0.00
    5   19   11      0.46      0.00
    6   20   11     -1.59      0.00
    7   21   11      3.51      0.00
    8   22   11     -2.11      0.00
    9   23   11      1.66      0.00
   10   24   11     -0.45      0.00
   11   25   11      0.45      0.00
   12   26   11     -0.22      0.00
   13   27   11      0.34      0.00
   14   28   11      4.64      0.00
  -11    1   11     -0.53      0.00
  -10    2   11     -0.60      0.00
   -9    3   11      1.80      0.00
   -8    4   11      5.51      0.00
   -7    5   11      4.23      0.00
   -6    6   11     -2.78      0.00
   -5    7   11     -2.41      0.00
   -4    8   11     -2.99      0.00
   -3    9   11     -4.02      0.00
   -2   10   11     -3.54      0.00
   -1   11   11      0.45      0.00
    0   12   11      1.96      0.00
    1   13   11      2.33      0.00
    2   14   11     -2.22      0.00
    3   15   11      1.06      0.00
    4   16   11     -0.44      0.00
    5   17   11      0.26      0.00
    6   18   11     -0.22      0.00
    7   19   11     -1.03      0.00
    8   20   11      1.08      0.00
    9   21   11     -1.06      0.00
   10   22   11     -0.34      0.00
   11   23   11     -0.66      0.00
   12   24   11     -1.70      0.00
   13   25   11     -1.00      0.00
   14   26   11      1.81      0.00
   15   27   11     -4.69      0.00
  -24   14   11     -1.74      0.00
   -9    1   11     -0.63      0.00
   -8    2   11      4.32      0.00
   -7    3   11     -0.34      0.00
   -6    4   11     -7.25      0.00
   -5    5   11     -0.07      0.00
   -4    6   11     -1.19      0.00
   -3    7   11      6.07      0.00
   -2    8   11      6.73      0.00
   -1    9   11     -1.04      0.00
    0   10   11      5.53      0.00
    1   11   11     -0.45      0.00
    2   12   11     -1.72      0.00
    3   13   11     -4.20      0.00
    4   14   11     -0.83      0.00
    5   15   11      3.47      0.00
    6   16   11     -2.23      0.00
    7   17   11      2.54      0.00
    8   18   11      1.68      0.00
    9   19   11     -0.84      0.00
   10   20   11      0.66      0.00
   11   21   11     -1.29      0.00
   12   22   11      0.95      0.00
   13   23   11      2.42      0.00
   14   24   11      0.64      0.00
   15   25   11     -0.50      0.00
  -24   16   11      5.81      0.00
   -7    1   11     -0.74      0.00
   -6    2   11      0.86      0.00
   -5    3   11     -9.04      0.00
   -4    4   11      2.51      0.00
   -3    5   11     -2.48      0.00
   -2    6   11      4.88      0.00
   -1    7   11     -3.88      0.00
    0    8   11     -2.82      0.00
    1    9   11      2.65      0.00
    2   10   11     -1.80      0.00
    3   11   11     -3.68      0.00
    4   12   11      0.65      0.00
    5   13   11      3.69      0.00
    6   14   11      2.20      0.00
    7   15   11     -5.08      0.00
    8   16   11      1.72      0.00
    9   17   11     -1.78      0.00
   10   18   11     -1.60      0.00
   11   19   11      1.08      0.00
   12   20   11     -0.16      0.00
   13   21   11      1.54      0.00
   14   22   11     -1.70      0.00
   15   23   11     -1.04      0.00
   16   24   11      0.62      0.00
  -23   17   11     -4.61      0.00
   -5    1   11      2.17      0.00
   -4    2   11      2.93      0.00
   -3    3   11     10.07      0.00
   -2    4   11      2.94      0.00
   -1    5   11     -1.31      0.00
    0    6   11     -9.58      0.00
    1    7   11      0.97      0.00
    2    8   11     -2.14      0.00
    3    9   11     -2.56      0.00
    4   10   11      1.41      0.00
    5   11   11      6.49      0.00
    6   12   11      0.12      0.00
    7   13   11     -3.13      0.00
    8   14   11     -0.44      0.00
    9   15   11      0.27      0.00
   10   16   11      2.48      0.00
   11   17   11     -2.20      0.00
   12   18   11      0.13      0.00
   13   19   11      3.12      0.00
   14   20   11     -2.88      0.00
   15   21   11     -1.06      0.00
   16   22   11      1.10      0.00
   17   23   11      1.68      0.00
  -22   18   11      4.16      0.00
   -3    1   11    -11.12      0.00
   -2    2   11      4.33      0.00
   -1    3   11      1.86      0.00
    0    4   11     -6.99      0.00
    1    5   11      7.46      0.00
    2    6   11      9.70      0.00
    3    7   11     -0.02      0.00
    4    8   11      0.21      0.00
    5    9   11      0.59      0.00
    6   10   11     -0.01      0.00
    7   11   11     -6.16      0.00
    8   12   11      1.25      0.00
    9   13   11      0.46      0.00
   10   14   11      0.60      0.00
   11   15   11      2.56      0.00
   12   16   11     -2.40      0.00
   13   17   11      0.97      0.00
   14   18   11     -1.68      0.00
   15   19   11      1.36      0.00
   16   20   11      1.86      0.00
   17   21   11     -0.34      0.00
   18   22   11     -0.92      0.00
  -21   19   11     -3.44      0.00
   -1    1   11     -0.79      0.00
    0    2   11     -7.21      0.00
    1    3   11    -17.27      0.00
    2    4   11      3.07      0.00
    3    5   11     -0.32      0.00
    4    6   11     -4.16      0.00
    5    7   11      2.16      0.00
    6    8   11      2.87      0.00
    7    9   11      0.24      0.00
    8   10   11     -2.86      0.00
    9   11   11      1.09      0.00
   10   12   11      3.71      0.00
   11   13   11     -3.45      0.00
   12   14   11      0.36      0.00
   13   15   11     -1.16      0.00
   14   16   11      1.87      0.00
   15   17   11     -0.57      0.00
   16   18   11     -1.25      0.00
   17   19   11     -1.72      0.00
   18   20   11     -1.22      0.00
   19   21   11      2.79      0.00
  -21   21   11     -2.29      0.00
  -20   20   11      0.55      0.00
    1    1   11     11.15      0.00
    2    2   11     11.34      0.00
    3    3   11     14.50      0.00
    4    4   11     -0.71      0.00
    5    5   11     -6.49      0.00
    6    6   11     -2.97      0.00
    7    7   11     -5.72      0.00
    8    8   11      0.99      0.00
    9    9   11      3.19      0.00
   10   10   11     -0.99      0.00
   11   11   11      0.96      0.00
   12   12   11     -0.18      0.00
   13   13   11     -0.40      0.00
   14   14   11      0.47      0.00
   15   15   11     -0.25      0.00
   16   16   11      2.08      0.00
   17   17   11     -0.48      0.00
   18   18   11      2.55      0.00
   19   19   11     -0.70      0.00
  -20   22   11      1.86      0.00
  -19   21   11     -0.15      0.00
  -18   20   11      0.05      0.00
    3    1   11     -7.33      0.00
    4    2   11     -3.04      0.00
    5    3   11     -9.18      0.00
    6    4   11     -3.36      0.00
    7    5   11     11.00      0.00
    8    6   11      3.83      0.00
    9    7   11      2.18      0.00
   10    8   11     -3.17      0.00
   11    9   11     -0.28      0.00
   12   10   11      1.55      0.00
   13   11   11     -2.29      0.00
   14   12   11     -1.29      0.00
   15   13   11      1.80      0.00
   16   14   11     -0.58      0.00
   17   15   11     -3.95      0.00
   18   16   11      1.92      0.00
   19   17   11     -0.96      0.00
   20   18   11     -0.22      0.00
  -19   23   11     -0.28      0.00
  -18   22   11      0.57      0.00
  -17   21   11      0.23      0.00
    5    1   11     -5.00      0.00
    6    2   11     -0.67      0.00
    7    3   11      6.26      0.00
    8    4   11      2.69      0.00
    9    5   11     -3.75      0.00
   10    6   11     -2.35      0.00
   11    7   11     -2.07      0.00
   12    8   11      2.24      0.00
   13    9   11      0.02      0.00
   14   10   11     -0.03      0.00
   15   11   11     -0.28      0.00
   16   12   11      3.38      0.00
   17   13   11     -1.85      0.00
   18   14   11      1.26      0.00
   19   15   11      0.73      0.00
   20   16   11      0.80      0.00
   21   17   11     -1.58      0.00
  -18   24   11      0.35      0.00
  -17   23   11     -1.19      0.00
  -16   22   11      0.88      0.00
    7    1   11      3.66      0.00
    8    2   11      8.49      0.00
    9    3   11     -5.99      0.00
   10    4   11     -7.26      0.00
   11    5   11      2.82      0.00
   12    6   11      1.30      0.00
   13    7   11      1.37      0.00
   14    8   11     -2.22      0.00
   15    9   11     -2.37      0.00
   16   10   11      4.59      0.00
   17   11   11     -1.07      0.00
   18   12   11     -3.18      0.00
   19   13   11      1.35      0.00
   20   14   11     -0.10      0.00
   21   15   11     -0.20      0.00
   22   16   11     -0.09      0.00
  -17   25   11     -1.62      0.00
  -16   24   11      0.81      0.00
  -15   23   11     -1.32      0.00
    9    1   11     -7.40      0.00
   10    2   11     -1.00      0.00
   11    3   11      3.18      0.00
   12    4   11      2.41      0.00
   13    5   11      2.02      0.00
   14    6   11     -1.76      0.00
   15    7   11     -0.42      0.00
   16    8   11      2.77      0.00
   17    9   11     -0.96      0.00
   18   10   11     -2.61      0.00
   19   11   11      0.47      0.00
   20   12   11      2.66      0.00
   21   13   11      0.87      0.00
   22   14   11     -2.76      0.00
  -16   26   11      3.80      0.00
  -15   25   11     -3.77      0.00
  -14   24   11      2.71      0.00
   11    1   11      0.30      0.00
   12    2   11      0.97      0.00
   13    3   11     -0.85      0.00
   14    4   11     -0.02      0.00
   15    5   11     -2.27      0.00
   16    6   11      0.13      0.00
   17    7   11      1.62      0.00
   18    8   11     -2.89      0.00
   19    9   11      1.06      0.00
   20   10   11      1.55      0.00
   21   11   11     -0.74      0.00
   22   12   11     -3.04      0.00
   23   13   11     -0.26      0.00
  -15   27   11     -4.17      0.00
  -14   26   11      1.92      0.00
  -13   25   11      0.56      0.00
   13    1   11      0.37      0.00
   14    2   11     -0.47      0.00
   15    3   11      0.38      0.00
   16    4   11      0.28      0.00
   17    5   11     -0.18      0.00
   18    6   11      0.59      0.00
   19    7   11      0.90      0.00
   20    8   11      0.90      0.00
   21    9   11     -0.12      0.00
   22   10   11     -0.44      0.00
   23   11   11      0.93      0.00
   24   12   11      2.50      0.00
  -14   28   11      1.46      0.00
  -13   27   11     -0.62      0.00
  -12   26   11     -1.35      0.00
   15    1   11      1.34      0.00
   16    2   11     -3.58      0.00
   17    3   11     -0.29      0.00
   18    4   11      2.67      0.00
   19    5   11     -1.46      0.00
   20    6   11     -1.12      0.00
   21    7   11     -0.16      0.00
   22    8   11     -0.98      0.00
   23    9   11     -0.28      0.00
   24   10   11      0.63      0.00
  -13   29   11     -0.37      0.00
  -12   28   11      1.07      0.00
  -11   27   11      2.30      0.00
   17    1   11      1.17      0.00
   18    2   11      2.37      0.00
   19    3   11     -0.41      0.00
   20    4   11     -1.82      0.00
   21    5   11     -0.13      0.00
   22    6   11      1.18      0.00
   23    7   11      1.83      0.00
   24    8   11     -0.68      0.00
   25    9   11     -1.14      0.00
  -12   30   11      1.29      0.00
  -11   29   11     -2.08      0.00
   19    1   11     -0.42      0.00
   20    2   11     -1.11      0.00
   21    3   11      1.32      0.00
   22    4   11     -0.80      0.00
   23    5   11      1.51      0.00
   24    6   11     -3.04      0.00
   25    7   11      1.64      0.00
  -11   31   11      1.19      0.00
  -10   30   11      0.59      0.00
   21    1   11     -0.64      0.00
   22    2   11      2.13      0.00
   23    3   11      0.28      0.00
   24    4   11      0.56      0.00
   25    5   11     -0.58      0.00
   26    6   11     -1.27      0.00
  -10   32   11     -1.87      0.00
   -9   31   11     -3.49      0.00
   23    1   11     -2.34      0.00
   24    2   11     -0.45      0.00
   25    3   11     -0.12      0.00
   26    4   11      1.11      0.00
   -9   33   11     -3.68      0.00
   -8   32   11      7.38      0.00
   25    1   11     -1.24      0.00
   26    2   11     -0.40      0.00
   27    3   11      0.39      0.00
   -7   33   11     -1.41      0.00
   -6   32   11     -1.27      0.00
   27    1   11      2.76      0.00
   -6   34   11      0.93      0.00
   -5   33   11     -0.55      0.00
   -4   34   11      0.83      0.00
   -3   33   11     -0.86      0.00
   28    2   11     -1.77      0.00
   -3   35   11     -3.24      0.00
   -2   34   11      3.31      0.00
   27    5   11     -0.17      0.00
   28    4   11     -0.43      0.00
   26    8   11      0.41      0.00
   27    7   11      1.72      0.00
   28    6   11     -0.69      0.00
   29    5   11      1.65      0.00
   25   11   11     -1.40      0.00
   26   10   11      1.38      0.00
   27    9   11     -2.49      0.00
   28    8   11      1.28      0.00
   29    7   11     -0.27      0.00
   23   15   11      0.57      0.00
   24   14   11      1.46      0.00
   25   13   11     -0.80      0.00
   26   12   11      0.64      0.00
   27   11   11      1.90      0.00
   20   20   11      0.17      0.00
   21   19   11      0.13      0.00
   22   18   11      0.43      0.00
   23   17   11     -0.29      0.00
   24   16   11      2.49      0.00
  -22   16   12      1.28      0.00
  -20   18   12      1.96      0.00
  -19   19   12     -0.81      0.00
  -18   20   12      0.55      0.00
  -17   21   12      2.24      0.00
  -16   22   12      1.41      0.00
  -15   23   12     -0.71      0.00
  -14   24   12      0.32      0.00
  -13   25   12      0.71      0.00
  -12   26   12     -0.86      0.00
  -11   27   12     -2.50      0.00
  -10   28   12      1.38      0.00
   -9   29   12     -1.14      0.00
   -8   30   12     -0.43      0.00
  -25   11   12      0.59      0.00
  -23   13   12      1.78      0.00
  -22   14   12     -0.56      0.00
  -21   15   12     -0.41      0.00
  -20   16   12      0.59      0.00
  -19   17   12     -0.87      0.00
  -18   18   12      1.11      0.00
  -17   19   12     -0.25      0.00
  -16   20   12     -1.06      0.00
  -15   21   12     -0.99      0.00
  -14   22   12      0.44      0.00
  -13   23   12     -2.09      0.00
  -12   24   12     -0.49      0.00
  -11   25   12     -0.91      0.00
  -10   26   12     -0.16      0.00
   -9   27   12     -1.93      0.00
   -8   28   12      2.32      0.00
   -7   29   12      0.16      0.00
   -6   30   12     -0.17      0.00
   -5   31   12      1.43      0.00
  -30    4   12     -1.05      0.00
  -29    5   12     -0.69      0.00
  -27    7   12     -2.46      0.00
  -26    8   12      4.04      0.00
  -25    9   12     -1.18      0.00
  -24   10   12      0.04      0.00
  -23   11   12      2.70      0.00
  -22   12   12     -1.92      0.00
  -21   13   12     -0.41      0.00
  -20   14   12      1.23      0.00
  -19   15   12     -1.85      0.00
  -18   16   12      0.19      0.00
  -17   17   12      0.70      0.00
  -16   18   12     -0.48      0.00
  -15   19   12     -0.43      0.00
  -14   20   12     -0.04      0.00
  -13   21   12      0.91      0.00
  -12   22   12      2.10      0.00
  -11   23   12     -0.71      0.00
  -10   24   12      1.12      0.00
   -9   25   12      4.17      0.00
   -8   26   12     -0.11      0.00
   -7   27   12     -0.44      0.00
   -6   28   12     -1.62      0.00
   -5   29   12      0.16      0.00
   -4   30   12      0.06      0.00
   -3   31   12     -1.47      0.00
   -2   32   12      0.62      0.00
  -28    4   12      1.03      0.00
  -27    5   12     -2.15      0.00
  -26    6   12      0.13      0.00
  -25    7   12     -0.55      0.00
  -24    8   12     -0.62      0.00
  -23    9   12      1.71      0.00
  -22   10   12     -1.15      0.00
  -21   11   12     -1.03      0.00
  -20   12   12      0.83      0.00
  -19   13   12      2.13      0.00
  -18   14   12     -0.63      0.00
  -17   15   12      0.46      0.00
  -16   16   12      0.15      0.00
  -15   17   12     -0.08      0.00
  -14   18   12     -0.53      0.00
  -13   19   12     -1.01      0.00
  -12   20   12     -0.11      0.00
  -11   21   12     -0.61      0.00
  -10   22   12     -0.38      0.00
   -9   23   12      1.76      0.00
   -8   24   12     -3.06      0.00
   -7   25   12     -1.03      0.00
   -6   26   12      0.36      0.00
   -5   27   12      2.06      0.00
   -4   28   12     -0.60      0.00
   -3   29   12     -1.17      0.00
   -2   30   12      1.44      0.00
   -1   31   12      2.72      0.00
    0   32   12     -0.94      0.00
  -28    2   12     -0.82      0.00
  -26    4   12     -0.67      0.00
  -25    5   12      1.99      0.00
  -24    6   12     -0.11      0.00
  -23    7   12     -1.14      0.00
  -22    8   12     -0.84      0.00
  -21    9   12     -0.01      0.00
  -20   10   12     -0.71      0.00
  -19   11   12      0.26      0.00
  -18   12   12     -0.28      0.00
  -17   13   12      0.78      0.00
  -16   14   12     -0.81      0.00
  -15   15   12     -1.11      0.00
  -14   16   12     -0.27      0.00
  -13   17   12      0.32      0.00
  -12   18   12      2.87      0.00
  -11   19   12      1.26      0.00
  -10   20   12     -0.21      0.00
   -9   21   12     -0.73      0.00
   -8   22   12     -0.81      0.00
   -7   23   12     -1.88      0.00
   -6   24   12      2.11      0.00
   -5   25   12      1.06      0.00
   -4   26   12     -2.29      0.00
   -3   27   12      0.40      0.00
   -2   28   12      0.09      0.00
   -1   29   12     -0.84      0.00
    0   30   12     -1.62      0.00
    1   31   12     -3.07      0.00
    2   32   12      1.27      0.00
    3   33   12     -0.69      0.00
  -28    0   12      0.04      0.00
  -27    1   12      0.07      0.00
  -26    2   12      1.33      0.00
  -25    3   12     -0.53      0.00
  -24    4   12     -1.17      0.00
  -23    5   12      0.58      0.00
  -22    6   12      1.00      0.00
  -21    7   12     -0.07      0.00
  -20    8   12      1.41      0.00
  -19    9   12      0.52      0.00
  -18   10   12      0.56      0.00
  -17   11   12     -1.52      0.00
  -16   12   12     -0.70      0.00
  -15   13   12      1.07      0.00
  -14   14   12     -1.60      0.00
  -13   15   12      1.64      0.00
  -12   16   12      0.78      0.00
  -11   17   12     -1.52      0.00
  -10   18   12     -2.76      0.00
   -9   19   12      0.50      0.00
   -8   20   12      0.75      0.00
   -7   21   12     -0.82      0.00
   -6   22   12      1.67      0.00
   -5   23   12      0.58      0.00
   -4   24   12     -1.55      0.00
   -3   25   12      0.33      0.00
   -2   26   12      0.41      0.00
   -1   27   12      2.50      0.00
    0   28   12     -0.77      0.00
    1   29   12      1.47      0.00
    2   30   12      1.74      0.00
    3   31   12      0.38      0.00
    4   32   12      0.34      0.00
    5   33   12     -0.21      0.00
  -26    0   12      0.32      0.00
  -25    1   12     -3.16      0.00
  -24    2   12      1.11      0.00
  -23    3   12     -0.25      0.00
  -22    4   12     -0.40      0.00
  -21    5   12     -1.55      0.00
  -20    6   12      1.19      0.00
  -19    7   12     -0.35      0.00
  -18    8   12     -1.89      0.00
  -17    9   12      0.91      0.00
  -16   10   12     -0.10      0.00
  -15   11   12     -0.71      0.00
  -14   12   12      0.40      0.00
  -13   13   12      1.88      0.00
  -12   14   12      1.63      0.00
  -11   15   12     -0.34      0.00
  -10   16   12     -1.75      0.00
   -9   17   12      0.79      0.00
   -8   18   12     -0.83      0.00
   -7   19   12     -1.42      0.00
   -6   20   12      3.33      0.00
   -5   21   12      0.26      0.00
   -4   22   12     -1.31      0.00
   -3   23   12     -0.72      0.00
   -2   24   12      0.67      0.00
   -1   25   12      0.14      0.00
    0   26   12     -2.47      0.00
    1   27   12      0.08      0.00
    2   28   12      0.35      0.00
    3   29   12     -1.24      0.00
    4   30   12     -0.52      0.00
    5   31   12     -0.92      0.00
    6   32   12      0.95      0.00
    7   33   12     -4.10      0.00
  -27    3   12      1.19      0.00
  -24    0   12      2.53      0.00
  -23    1   12      1.63      0.00
  -22    2   12     -0.24      0.00
  -21    3   12      1.42      0.00
  -20    4   12      0.37      0.00
  -19    5   12      0.10      0.00
  -18    6   12     -0.88      0.00
  -17    7   12     -0.69      0.00
  -16    8   12      0.85      0.00
  -15    9   12      1.05      0.00
  -14   10   12      0.22      0.00
  -13   11   12      0.84      0.00
  -12   12   12     -0.64      0.00
  -11   13   12     -2.08      0.00
  -10   14   12     -2.78      0.00
   -9   15   12      2.33      0.00
   -8   16   12      1.78      0.00
   -7   17   12      0.73      0.00
   -6   18   12      0.88      0.00
   -5   19   12     -0.86      0.00
   -4   20   12     -1.42      0.00
   -3   21   12     -0.53      0.00
   -2   22   12      0.94      0.00
   -1   23   12      0.81      0.00
    0   24   12     -0.12      0.00
    1   25   12     -0.03      0.00
    2   26   12      0.88      0.00
    3   27   12     -1.38      0.00
    4   28   12      1.43      0.00
    5   29   12     -1.47      0.00
    6   30   12      1.96      0.00
    7   31   12      0.85      0.00
    8   32   12     -0.54      0.00
  -28    6   12      1.20      0.00
  -22    0   12     -2.32      0.00
  -21    1   12     -0.80      0.00
  -20    2   12     -0.30      0.00
  -19    3   12     -0.28      0.00
  -18    4   12     -0.35      0.00
  -17    5   12      1.29      0.00
  -16    6   12     -0.18      0.00
  -15    7   12      1.49      0.00
  -14    8   12     -0.07      0.00
  -13    9   12     -1.84      0.00
  -12   10   12     -2.10      0.00
  -11   11   12      1.18      0.00
  -10   12   12     -1.21      0.00
   -9   13   12     -0.19      0.00
   -8   14   12      0.53      0.00
   -7   15   12      1.08      0.00
   -6   16   12     -0.09      0.00
   -5   17   12     -0.80      0.00
   -4   18   12     -0.54      0.00
   -3   19   12      0.14      0.00
   -2   20   12      0.63      0.00
   -1   21   12     -1.29      0.00
    0   22   12      1.24      0.00
    1   23   12      0.01      0.00
    2   24   12     -0.34      0.00
    3   25   12     -1.68      0.00
    4   26   12      2.56      0.00
    5   27   12     -0.79      0.00
    6   28   12      0.67      0.00
    7   29   12     -0.52      0.00
    8   30   12     -1.12      0.00
    9   31   12      0.75      0.00
  -20    0   12     -0.79      0.00
  -19    1   12      0.85      0.00
  -18    2   12      0.48      0.00
  -17    3   12     -0.98      0.00
  -16    4   12     -0.40      0.00
  -15    5   12      0.37      0.00
  -14    6   12     -1.13      0.00
  -13    7   12     -0.21      0.00
  -12    8   12     -0.94      0.00
  -11    9   12      3.39      0.00
  -10   10   12     -0.19      0.00
   -9   11   12      2.19      0.00
   -8   12   12      3.76      0.00
   -7   13   12     -1.17      0.00
   -6   14   12     -1.52      0.00
   -5   15   12     -0.95      0.00
   -4   16   12     -1.97      0.00
   -3   17   12      1.09      0.00
   -2   18   12      1.16      0.00
   -1   19   12      1.17      0.00
    0   20   12     -0.57      0.00
    1   21   12     -0.60      0.00
    2   22   12      0.11      0.00
    3   23   12     -0.82      0.00
    4   24   12      2.10      0.00
    5   25   12     -1.93      0.00
    6   26   12     -0.09      0.00
    7   27   12      0.50      0.00
    8   28   12      0.75      0.00
    9   29   12     -1.17      0.00
   10   30   12      0.78      0.00
  -18    0   12      0.70      0.00
  -17    1   12      0.83      0.00
  -16    2   12     -1.32      0.00
  -15    3   12      1.23      0.00
  -14    4   12      1.06      0.00
  -13    5   12      0.68      0.00
  -12    6   12     -2.41      0.00
  -11    7   12     -0.21      0.00
  -10    8   12     -0.34      0.00
   -9    9   12      0.36      0.00
   -8   10   12     -3.04      0.00
   -7   11   12     -1.83      0.00
   -6   12   12     -1.89      0.00
   -5   13   12     -0.11      0.00
   -4   14   12     -1.05      0.00
   -3   15   12      1.57      0.00
   -2   16   12      2.01      0.00
   -1   17   12     -0.75      0.00
    0   18   12     -1.81      0.00
    1   19   12      0.08      0.00
    2   20   12      0.78      0.00
    3   21   12      0.86      0.00
    4   22   12     -2.14      0.00
    5   23   12      1.77      0.00
    6   24   12     -0.50      0.00
    7   25   12      2.44      0.00
    8   26   12     -2.72      0.00
    9   27   12     -1.80      0.00
   10   28   12      1.47      0.00
   11   29   12     -0.33      0.00
  -16    0   12     -1.63      0.00
  -15    1   12     -0.42      0.00
  -14    2   12      0.69      0.00
  -13    3   12     -2.92      0.00
  -12    4   12     -0.50      0.00
  -11    5   12      2.08      0.00
  -10    6   12      4.02      0.00
   -9    7   12      2.46      0.00
   -8    8   12     -0.74      0.00
   -7    9   12     -1.90      0.00
   -6   10   12      2.08      0.00
   -5   11   12      3.26      0.00
   -4   12   12      0.65      0.00
   -3   13   12      1.12      0.00
   -2   14   12      2.03      0.00
   -1   15   12     -1.93      0.00
    0   16   12     -1.67      0.00
    1   17   12     -1.31      0.00
    2   18   12      2.75      0.00
    3   19   12     -0.68      0.00
    4   20   12     -0.03      0.00
    5   21   12     -0.34      0.00
    6   22   12      0.57      0.00
    7   23   12     -0.59      0.00
    8   24   12     -0.91      0.00
    9   25   12      1.49      0.00
   10   26   12      1.38      0.00
   11   27   12      0.64      0.00
   12   28   12     -1.62      0.00
  -14    0   12      1.79      0.00
  -13    1   12     -0.28      0.00
  -12    2   12      1.60      0.00
  -11    3   12      0.47      0.00
  -10    4   12     -0.62      0.00
   -9    5   12     -3.45      0.00
   -8    6   12     -3.06      0.00
   -7    7   12     -2.02      0.00
   -6    8   12     -4.06      0.00
   -5    9   12      6.14      0.00
   -4   10   12      0.14      0.00
   -3   11   12     -4.63      0.00
   -2   12   12      1.91      0.00
   -1   13   12      0.65      0.00
    0   14   12     -0.14      0.00
    1   15   12     -1.18      0.00
    2   16   12      1.85      0.00
    3   17   12      0.83      0.00
    4   18   12     -1.97      0.00
    5   19   12     -0.93      0.00
    6   20   12      1.40      0.00
    7   21   12     -1.00      0.00
    8   22   12      0.74      0.00
    9   23   12     -1.80      0.00
   10   24   12      0.45      0.00
   11   25   12      0.31      0.00
   12   26   12      0.30      0.00
   13   27   12      0.62      0.00
  -24   12   12     -0.73      0.00
  -12    0   12      0.43      0.00
  -11    1   12      0.68      0.00
  -10    2   12     -1.96      0.00
   -9    3   12      0.21      0.00
   -8    4   12      2.28      0.00
   -7    5   12     -0.49      0.00
   -6    6   12      3.41      0.00
   -5    7   12      3.26      0.00
   -4    8   12      1.56      0.00
   -3    9   12     -7.62      0.00
   -2   10   12      1.70      0.00
   -1   11   12     -3.51      0.00
    0   12   12      0.02      0.00
    1   13   12     -2.12      0.00
    2   14   12      2.41      0.00
    3   15   12      1.65      0.00
    4   16   12     -0.38      0.00
    5   17   12     -0.77      0.00
    6   18   12      0.37      0.00
    7   19   12      1.87      0.00
    8   20   12     -0.49      0.00
    9   21   12     -0.08      0.00
   10   22   12      0.21      0.00
   11   23   12     -0.23      0.00
   12   24   12      0.34      0.00
   13   25   12     -1.98      0.00
   14   26   12     -1.61      0.00
  -10    0   12     -2.42      0.00
   -9    1   12     -1.41      0.00
   -8    2   12      0.83      0.00
   -7    3   12      0.64      0.00
   -6    4   12     -0.90      0.00
   -5    5   12     -0.55      0.00
   -4    6   12      4.41      0.00
   -3    7   12     -3.46      0.00
   -2    8   12      0.45      0.00
   -1    9   12      6.19      0.00
    0   10   12     -0.07      0.00
    1   11   12      2.87      0.00
    2   12   12     -2.86      0.00
    3   13   12      3.15      0.00
    4   14   12     -2.76      0.00
    5   15   12     -2.13      0.00
    6   16   12      2.94      0.00
    7   17   12     -3.20      0.00
    8   18   12      3.20      0.00
    9   19   12     -1.58      0.00
   10   20   12     -0.45      0.00
   11   21   12      1.77      0.00
   12   22   12     -1.66      0.00
   13   23   12      1.50      0.00
   14   24   12      0.46      0.00
   15   25   12      1.65      0.00
  -23   15   12     -2.99      0.00
   -8    0   12      4.52      0.00
   -7    1   12      1.89      0.00
   -6    2   12     -0.81      0.00
   -5    3   12     -1.09      0.00
   -4    4   12     -2.31      0.00
   -3    5   12     -2.04      0.00
   -2    6   12     -8.89      0.00
   -1    7   12      1.61      0.00
    0    8   12      1.20      0.00
    1    9   12     -2.09      0.00
    2   10   12      1.13      0.00
    3   11   12     -0.45      0.00
    4   12   12      0.97      0.00
    5   13   12     -0.84      0.00
    6   14   12     -1.13      0.00
    7   15   12      0.88      0.00
    8   16   12     -0.42      0.00
    9   17   12      0.76      0.00
   10   18   12     -2.94      0.00
   11   19   12      0.80      0.00
   12   20   12      0.81      0.00
   13   21   12      0.32      0.00
   14   22   12     -1.07      0.00
   15   23   12      0.06      0.00
   16   24   12     -0.72      0.00
   -6    0   12     -0.93      0.00
   -5    1   12     -3.21      0.00
   -4    2   12      6.72      0.00
   -3    3   12      0.91      0.00
   -2    4   12      4.35      0.00
   -1    5   12      5.86      0.00
    0    6   12     -0.23      0.00
    1    7   12      0.09      0.00
    2    8   12      3.11      0.00
    3    9   12     -5.98      0.00
    4   10   12     -2.04      0.00
    5   11   12      1.82      0.00
    6   12   12      1.89      0.00
    7   13   12     -1.10      0.00
    8   14   12      2.91      0.00
    9   15   12     -1.02      0.00
   10   16   12     -0.37      0.00
   11   17   12      1.66      0.00
   12   18   12      0.00      0.00
   13   19   12     -0.73      0.00
   14   20   12     -0.50      0.00
   15   21   12      1.76      0.00
   16   22   12     -1.69      0.00
  -22   18   12     -0.95      0.00
  -21   17   12     -1.05      0.00
   -4    0   12    -10.73      0.00
   -3    1   12      1.83      0.00
   -2    2   12    -10.22      0.00
   -1    3   12      3.88      0.00
    0    4   12     -2.73      0.00
    1    5   12      1.43      0.00
    2    6   12      6.25      0.00
    3    7   12     -6.15      0.00
    4    8   12      1.11      0.00
    5    9   12      3.37      0.00
    6   10   12     -0.17      0.00
    7   11   12     -0.03      0.00
    8   12   12     -3.47      0.00
    9   13   12      2.40      0.00
   10   14   12      0.12      0.00
   11   15   12     -3.03      0.00
   12   16   12      2.26      0.00
   13   17   12     -0.40      0.00
   14   18   12     -1.71      0.00
   15   19   12      0.19      0.00
   16   20   12      2.07      0.00
   17   21   12     -0.69      0.00
  -21   19   12      1.69      0.00
   -2    0   12     19.21      0.00
   -1    1   12      2.08      0.00
    0    2   12     -2.10      0.00
    1    3   12     -5.34      0.00
    2    4   12     -4.42      0.00
    3    5   12     -6.94      0.00
    4    6   12     -4.60      0.00
    5    7   12      6.64      0.00
    6    8   12      2.31      0.00
    7    9   12      0.16      0.00
    8   10   12     -2.05      0.00
    9   11   12      0.76      0.00
   10   12   12     -0.50      0.00
   11   13   12      1.04      0.00
   12   14   12     -2.62      0.00
   13   15   12      2.50      0.00
   14   16   12      0.17      0.00
   15   17   12      0.61      0.00
   16   18   12     -0.60      0.00
   17   19   12     -0.94      0.00
   18   20   12     -1.63      0.00
  -20   20   12     -1.95      0.00
    0    0   12    -10.44      0.00
    1    1   12     -5.51      0.00
    2    2   12     10.86      0.00
    3    3   12      9.75      0.00
    4    4   12      0.74      0.00
    5    5   12      7.15      0.00
    6    6   12      0.58      0.00
    7    7   12     -5.25      0.00
    8    8   12     -4.86      0.00
    9    9   12      2.10      0.00
   10   10   12      0.51      0.00
   11   11   12      0.73      0.00
   12   12   12     -1.12      0.00
   13   13   12      0.37      0.00
   14   14   12      2.97      0.00
   15   15   12     -3.88      0.00
   16   16   12      0.47      0.00
   17   17   12      1.18      0.00
   18   18   12      0.92      0.00
   19   19   12      3.00      0.00
  -19   21   12      0.10      0.00
    2    0   12     -2.16      0.00
    3    1   12      9.04      0.00
    4    2   12     -8.13      0.00
    5    3   12     -5.32      0.00
    6    4   12      1.13      0.00
    7    5   12     -3.58      0.00
    8    6   12      1.79      0.00
    9    7   12      0.92      0.00
   10    8   12      0.76      0.00
   11    9   12      2.63      0.00
   12   10   12     -2.30      0.00
   13   11   12      0.67      0.00
   14   12   12      0.68      0.00
   15   13   12     -2.88      0.00
   16   14   12      1.96      0.00
   17   15   12     -0.02      0.00
   18   16   12     -2.09      0.00
   19   17   12      0.14      0.00
  -18   22   12     -2.73      0.00
    4    0   12      2.27      0.00
    5    1   12    -11.73      0.00
    6    2   12      1.70      0.00
    7    3   12      2.96      0.00
    8    4   12     -2.63      0.00
    9    5   12      3.02      0.00
   10    6   12     -3.06      0.00
   11    7   12      3.09      0.00
   12    8   12      0.34      0.00
   13    9   12     -2.88      0.00
   14   10   12      0.70      0.00
   15   11   12      0.43      0.00
   16   12   12     -0.13      0.00
   17   13   12     -0.90      0.00
   18   14   12      1.57      0.00
   19   15   12      1.50      0.00
   20   16   12     -0.20      0.00
  -17   23   12      1.42      0.00
    6    0   12      4.15      0.00
    7    1   12      7.92      0.00
    8    2   12     -1.53      0.00
    9    3   12      1.31      0.00
   10    4   12      0.49      0.00
   11    5   12     -1.14      0.00
   12    6   12      1.97      0.00
   13    7   12     -3.80      0.00
   14    8   12     -0.70      0.00
   15    9   12      2.28      0.00
   16   10   12     -0.34      0.00
   17   11   12      1.21      0.00
   18   12   12     -0.15      0.00
   19   13   12     -0.15      0.00
   20   14   12     -2.64      0.00
   21   15   12     -0.25      0.00
  -16   24   12      0.12      0.00
    8    0   12     -2.87      0.00
    9    1   12     -2.60      0.00
   10    2   12      1.21      0.00
   11    3   12     -1.22      0.00
   12    4   12     -0.62      0.00
   13    5   12      1.34      0.00
   14    6   12     -1.80      0.00
   15    7   12      2.49      0.00
   16    8   12      2.10      0.00
   17    9   12     -3.11      0.00
   18   10   12     -1.03      0.00
   19   11   12      1.32      0.00
   20   12   12     -0.77      0.00
   21   13   12      2.86      0.00
   22   14   12     -0.16      0.00
  -15   25   12     -1.19      0.00
   10    0   12      2.00      0.00
   11    1   12     -1.75      0.00
   12    2   12     -2.31      0.00
   13    3   12      1.25      0.00
   14    4   12     -0.70      0.00
   15    5   12      0.71      0.00
   16    6   12      0.32      0.00
   17    7   12     -1.52      0.00
   18    8   12     -0.30      0.00
   19    9   12     -0.24      0.00
   20   10   12      1.03      0.00
   21   11   12     -0.43      0.00
   22   12   12     -2.98      0.00
  -14   26   12      1.58      0.00
   12    0   12     -3.03      0.00
   13    1   12      5.31      0.00
   14    2   12      3.08      0.00
   15    3   12     -2.29      0.00
   16    4   12      0.42      0.00
   17    5   12      1.88      0.00
   18    6   12     -1.78      0.00
   19    7   12      0.22      0.00
   20    8   12      3.55      0.00
   21    9   12     -0.38      0.00
   22   10   12      0.17      0.00
   23   11   12      1.03      0.00
  -13   27   12      2.51      0.00
   14    0   12      0.11      0.00
   15    1   12     -3.89      0.00
   16    2   12     -0.12      0.00
   17    3   12     -1.28      0.00
   18    4   12     -1.91      0.00
   19    5   12      0.89      0.00
   20    6   12      0.58      0.00
   21    7   12     -1.09      0.00
   22    8   12     -2.60      0.00
   23    9   12     -1.25      0.00
  -12   28   12     -0.68      0.00
   16    0   12     -1.69      0.00
   17    1   12      2.72      0.00
   18    2   12      2.01      0.00
   19    3   12      0.13      0.00
   20    4   12      1.34      0.00
   21    5   12     -0.35      0.00
   22    6   12     -1.08      0.00
   23    7   12      0.64      0.00
   24    8   12      3.07      0.00
  -11   29   12      0.54      0.00
   18    0   12     -1.60      0.00
   19    1   12     -0.96      0.00
   20    2   12     -0.57      0.00
   21    3   12      0.73      0.00
   22    4   12     -1.18      0.00
   23    5   12      0.11      0.00
   24    6   12     -0.46      0.00
  -10   30   12      0.58      0.00
   20    0   12      1.82      0.00
   21    1   12     -0.50      0.00
   22    2   12     -1.19      0.00
   23    3   12      2.53      0.00
   24    4   12     -0.27      0.00
   25    5   12      1.48      0.00
   -9   31   12     -0.42      0.00
   22    0   12      0.19      0.00
   23    1   12     -0.19      0.00
   24    2   12     -3.07      0.00
   25    3   12      0.49      0.00
   -8   32   12      1.30      0.00
   -7   31   12     -0.01      0.00
   24    0   12      2.44      0.00
   25    1   12      0.13      0.00
   26    2   12      1.11      0.00
   -7   33   12      1.39      0.00
   -6   32   12     -1.99      0.00
   26    0   12      1.50      0.00
   -6   34   12     -0.49      0.00
   -5   33   12      2.15      0.00
   -4   32   12      0.49      0.00
   27    1   12     -0.49      0.00
   -4   34   12     -1.56      0.00
   -3   33   12     -2.44      0.00
   26    4   12      1.23      0.00
   27    3   12     -3.77      0.00
   25    7   12     -0.21      0.00
   26    6   12     -0.33      0.00
   27    5   12     -0.55      0.00
   24   10   12      0.65      0.00
   25    9   12      0.54      0.00
   26    8   12      0.44      0.00
   27    7   12     -2.81      0.00
   28    6   12     -1.41      0.00
   23   13   12     -0.47      0.00
   24   12   12      3.54      0.00
   25   11   12     -3.79      0.00
   26   10   12      0.75      0.00
   27    9   12     -2.80      0.00
   20   18   12     -1.96      0.00
   21   17   12      0.40      0.00
   22   16   12      0.58      0.00
   23   15   12      0.72      0.00
   24   14   12      0.73      0.00
   25   13   12     -2.95      0.00
   26   12   12      3.31      0.00
   17   23   12     -1.24      0.00
   18   22   12      0.46      0.00
   19   21   12      0.34      0.00
   20   20   12     -1.83      0.00
   21   19   12      0.51      0.00
   22   18   12     -2.03      0.00
  -23   15   13     -3.10      0.00
  -20   18   13      0.45      0.00
  -17   21   13      4.08      0.00
  -16   22   13     -0.35      0.00
  -15   23   13      1.45      0.00
  -14   24   13     -1.15      0.00
  -13   25   13     -0.65      0.00
  -12   26   13     -1.58      0.00
  -10   28   13     -1.09      0.00
  -23   13   13      0.61      0.00
  -22   14   13      1.81      0.00
  -21   15   13     -0.13      0.00
  -20   16   13     -2.34      0.00
  -19   17   13      1.78      0.00
  -18   18   13     -1.83      0.00
  -17   19   13      1.36      0.00
  -16   20   13     -1.20      0.00
  -15   21   13     -1.87      0.00
  -14   22   13     -0.35      0.00
  -13   23   13      2.16      0.00
  -12   24   13     -1.17      0.00
  -11   25   13      0.44      0.00
  -10   26   13      0.85      0.00
   -9   27   13      0.13      0.00
   -8   28   13     -1.20      0.00
   -7   29   13      2.23      0.00
   -6   30   13      0.82      0.00
  -23   11   13     -1.67      0.00
  -22   12   13      0.18      0.00
  -21   13   13     -0.68      0.00
  -20   14   13     -1.54      0.00
  -19   15   13      3.53      0.00
  -18   16   13     -3.72      0.00
  -17   17   13      0.88      0.00
  -16   18   13     -0.16      0.00
  -15   19   13      1.49      0.00
  -14   20   13      0.17      0.00
  -13   21   13      0.85      0.00
  -12   22   13     -0.99      0.00
  -11   23   13      1.50      0.00
  -10   24   13     -0.74      0.00
   -9   25   13      0.93      0.00
   -8   26   13      1.07      0.00
   -7   27   13      0.03      0.00
   -6   28   13     -0.89      0.00
   -5   29   13     -1.25      0.00
   -4   30   13      1.13      0.00
   -3   31   13     -0.90      0.00
  -30    2   13      3.39      0.00
  -29    3   13     -1.66      0.00
  -28    4   13     -0.93      0.00
  -25    7   13     -0.34      0.00
  -24    8   13     -1.51      0.00
  -23    9   13     -0.15      0.00
  -22   10   13     -0.65      0.00
  -21   11   13      0.93      0.00
  -20   12   13      0.21      0.00
  -19   13   13      1.00      0.00
  -18   14   13      0.08      0.00
  -17   15   13      0.44      0.00
  -16   16   13      1.04      0.00
  -15   17   13      0.19      0.00
  -14   18   13     -1.16      0.00
  -13   19   13      0.18      0.00
  -12   20   13     -1.48      0.00
  -11   21   13     -1.56      0.00
  -10   22   13     -0.05      0.00
   -9   23   13     -0.67      0.00
   -8   24   13      1.19      0.00
   -7   25   13     -1.58      0.00
   -6   26   13      0.78      0.00
   -5   27   13     -0.24      0.00
   -4   28   13      2.42      0.00
   -3   29   13     -1.16      0.00
   -2   30   13     -2.14      0.00
  -28    2   13     -1.38      0.00
  -27    3   13      0.28      0.00
  -26    4   13      1.99      0.00
  -25    5   13     -0.37      0.00
  -24    6   13      1.71      0.00
  -23    7   13      0.95      0.00
  -22    8   13     -2.44      0.00
  -21    9   13      0.53      0.00
  -20   10   13      0.64      0.00
  -19   11   13     -2.15      0.00
  -18   12   13     -0.73      0.00
  -17   13   13      1.49      0.00
  -16   14   13      0.67      0.00
  -15   15   13     -1.09      0.00
  -14   16   13     -1.37      0.00
  -13   17   13      1.18      0.00
  -12   18   13     -0.49      0.00
  -11   19   13      1.60      0.00
  -10   20   13      1.35      0.00
   -9   21   13      0.65      0.00
   -8   22   13     -0.07      0.00
   -7   23   13      0.64      0.00
   -6   24   13     -1.60      0.00
   -5   25   13     -1.18      0.00
   -4   26   13      0.93      0.00
   -3   27   13     -1.45      0.00
   -2   28   13     -0.60      0.00
   -1   29   13      2.30      0.00
    0   30   13     -4.40      0.00
    1   31   13      2.35      0.00
    3   33   13      1.15      0.00
  -26    2   13      0.62      0.00
  -25    3   13     -1.50      0.00
  -24    4   13      0.52      0.00
  -23    5   13     -1.40      0.00
  -22    6   13      0.96      0.00
  -21    7   13      1.01      0.00
  -20    8   13      0.20      0.00
  -19    9   13      0.58      0.00
  -18   10   13      1.65      0.00
  -17   11   13      1.08      0.00
  -16   12   13     -2.41      0.00
  -15   13   13     -1.14      0.00
  -14   14   13      1.35      0.00
  -13   15   13     -0.02      0.00
  -12   16   13     -0.96      0.00
  -11   17   13     -0.96      0.00
  -10   18   13      0.20      0.00
   -9   19   13      0.66      0.00
   -8   20   13     -0.63      0.00
   -7   21   13     -0.78      0.00
   -6   22   13     -0.26      0.00
   -5   23   13      0.19      0.00
   -4   24   13      1.17      0.00
   -3   25   13      1.02      0.00
   -2   26   13     -0.11      0.00
   -1   27   13      1.41      0.00
    0   28   13     -0.33      0.00
    1   29   13      1.81      0.00
    2   30   13      1.36      0.00
    3   31   13      0.26      0.00
    4   32   13     -0.30      0.00
    5   33   13      0.72      0.00
  -25    1   13      0.26      0.00
  -24    2   13      0.98      0.00
  -23    3   13      0.53      0.00
  -22    4   13     -1.75      0.00
  -21    5   13     -0.84      0.00
  -20    6   13     -0.80      0.00
  -19    7   13     -0.46      0.00
  -18    8   13     -0.66      0.00
  -17    9   13      0.34      0.00
  -16   10   13     -1.42      0.00
  -15   11   13      0.36      0.00
  -14   12   13     -1.11      0.00
  -13   13   13      1.03      0.00
  -12   14   13      0.95      0.00
  -11   15   13      1.00      0.00
  -10   16   13      2.12      0.00
   -9   17   13     -0.11      0.00
   -8   18   13     -2.16      0.00
   -7   19   13     -0.73      0.00
   -6   20   13     -0.37      0.00
   -5   21   13      2.18      0.00
   -4   22   13      0.43      0.00
   -3   23   13     -0.81      0.00
   -2   24   13     -1.27      0.00
   -1   25   13      0.17      0.00
    0   26   13     -1.15      0.00
    1   27   13     -1.21      0.00
    2   28   13      0.15      0.00
    3   29   13     -0.03      0.00
    4   30   13     -1.50      0.00
    5   31   13      2.62      0.00
    6   32   13     -2.68      0.00
  -23    1   13     -0.68      0.00
  -22    2   13     -1.72      0.00
  -21    3   13      1.54      0.00
  -20    4   13      3.12      0.00
  -19    5   13      0.99      0.00
  -18    6   13      0.60      0.00
  -17    7   13      1.10      0.00
  -16    8   13     -3.56      0.00
  -15    9   13      2.72      0.00
  -14   10   13      0.59      0.00
  -13   11   13     -0.03      0.00
  -12   12   13      0.01      0.00
  -11   13   13      0.27      0.00
  -10   14   13     -0.56      0.00
   -9   15   13     -2.25      0.00
   -8   16   13     -0.08      0.00
   -7   17   13      1.01      0.00
   -6   18   13      0.99      0.00
   -5   19   13     -0.27      0.00
   -4   20   13      0.52      0.00
   -3   21   13     -1.44      0.00
   -2   22   13     -0.41      0.00
   -1   23   13      0.77      0.00
    0   24   13      1.22      0.00
    1   25   13     -1.02      0.00
    2   26   13      1.79      0.00
    3   27   13     -2.01      0.00
    4   28   13      0.28      0.00
    5   29   13      0.85      0.00
    6   30   13     -3.37      0.00
    7   31   13      0.92      0.00
    8   32   13      2.31      0.00
  -27    5   13      1.43      0.00
  -21    1   13      0.22      0.00
  -20    2   13      0.69      0.00
  -19    3   13     -1.20      0.00
  -18    4   13     -2.72      0.00
  -17    5   13      0.37      0.00
  -16    6   13     -2.13      0.00
  -15    7   13      2.40      0.00
  -14    8   13     -1.81      0.00
  -13    9   13      1.20      0.00
  -12   10   13      0.04      0.00
  -11   11   13      1.12      0.00
  -10   12   13     -1.32      0.00
   -9   13   13     -2.98      0.00
   -8   14   13      1.21      0.00
   -7   15   13     -0.14      0.00
   -6   16   13      0.21      0.00
   -5   17   13      2.22      0.00
   -4   18   13      0.98      0.00
   -3   19   13     -1.68      0.00
   -2   20   13     -1.11      0.00
   -1   21   13      2.05      0.00
    0   22   13     -0.04      0.00
    1   23   13     -0.74      0.00
    2   24   13     -0.44      0.00
    3   25   13      1.79      0.00
    4   26   13     -0.14      0.00
    5   27   13      1.34      0.00
    6   28   13     -0.49      0.00
    7   29   13      1.91      0.00
    8   30   13      1.83      0.00
  -27    7   13      1.60      0.00
  -26    6   13     -2.11      0.00
  -19    1   13     -0.96      0.00
  -18    2   13     -0.29      0.00
  -17    3   13      0.37      0.00
  -16    4   13     -1.42      0.00
  -15    5   13      2.69      0.00
  -14    6   13     -0.51      0.00
  -13    7   13      1.08      0.00
  -12    8   13     -1.19      0.00
  -11    9   13      1.06      0.00
  -10   10   13     -1.41      0.00
   -9   11   13     -1.49      0.00
   -8   12   13      3.47      0.00
   -7   13   13      1.74      0.00
   -6   14   13     -0.34      0.00
   -5   15   13     -0.34      0.00
   -4   16   13     -1.94      0.00
   -3   17   13     -2.13      0.00
   -2   18   13     -0.35      0.00
   -1   19   13      0.82      0.00
    0   20   13      2.22      0.00
    1   21   13     -2.07      0.00
    2   22   13     -0.28      0.00
    3   23   13      0.98      0.00
    4   24   13     -2.48      0.00
    5   25   13      1.48      0.00
    6   26   13     -2.72      0.00
    7   27   13      0.04      0.00
    8   28   13     -1.43      0.00
    9   29   13     -0.71      0.00
  -26    8   13     -1.84      0.00
  -17    1   13      0.39      0.00
  -16    2   13      0.89      0.00
  -15    3   13      1.35      0.00
  -14    4   13      1.05      0.00
  -13    5   13      0.88      0.00
  -12    6   13     -1.98      0.00
  -11    7   13      0.35      0.00
  -10    8   13     -3.01      0.00
   -9    9   13     -0.12      0.00
   -8   10   13      0.89      0.00
   -7   11   13      0.55      0.00
   -6   12   13     -1.11      0.00
   -5   13   13      0.86      0.00
   -4   14   13     -2.97      0.00
   -3   15   13      1.54      0.00
   -2   16   13      1.68      0.00
   -1   17   13      0.27      0.00
    0   18   13      0.48      0.00
    1   19   13     -0.21      0.00
    2   20   13     -0.43      0.00
    3   21   13     -0.98      0.00
    4   22   13      2.31      0.00
    5   23   13     -0.17      0.00
    6   24   13      1.33      0.00
    7   25   13      0.34      0.00
    8   26   13      0.74      0.00
    9   27   13      0.94      0.00
   10   28   13     -0.13      0.00
  -25    9   13      3.69      0.00
  -15    1   13     -0.01      0.00
  -14    2   13     -0.62      0.00
  -13    3   13     -2.41      0.00
  -12    4   13     -3.81      0.00
  -11    5   13      0.25      0.00
  -10    6   13      2.48      0.00
   -9    7   13      1.78      0.00
   -8    8   13      2.37      0.00
   -7    9   13      1.72      0.00
   -6   10   13      0.11      0.00
   -5   11   13      0.06      0.00
   -4   12   13      0.17      0.00
   -3   13   13     -1.65      0.00
   -2   14   13      3.04      0.00
   -1   15   13     -1.49      0.00
    0   16   13     -0.66      0.00
    1   17   13     -0.23      0.00
    2   18   13     -0.05      0.00
    3   19   13     -1.15      0.00
    4   20   13      1.08      0.00
    5   21   13     -0.13      0.00
    6   22   13     -0.89      0.00
    7   23   13     -1.22      0.00
    8   24   13     -1.14      0.00
    9   25   13      1.17      0.00
   10   26   13     -0.78      0.00
   11   27   13      1.49      0.00
  -25   11   13      0.42      0.00
  -24   10   13      0.97      0.00
  -13    1   13      0.98      0.00
  -12    2   13      1.03      0.00
  -11    3   13      1.15      0.00
  -10    4   13      1.52      0.00
   -9    5   13      0.74      0.00
   -8    6   13     -1.37      0.00
   -7    7   13     -5.14      0.00
   -6    8   13      2.86      0.00
   -5    9   13     -7.86      0.00
   -4   10   13     -0.27      0.00
   -3   11   13     -0.79      0.00
   -2   12   13      3.13      0.00
   -1   13   13      0.84      0.00
    0   14   13     -1.92      0.00
    1   15   13      3.66      0.00
    2   16   13     -0.76      0.00
    3   17   13     -0.64      0.00
    4   18   13     -0.15      0.00
    5   19   13     -0.03      0.00
    6   20   13      1.02      0.00
    7   21   13     -2.31      0.00
    8   22   13      2.74      0.00
    9   23   13     -1.18      0.00
   10   24   13      0.23      0.00
   11   25   13     -1.19      0.00
   12   26   13      1.26      0.00
  -24   12   13     -0.27      0.00
  -11    1   13     -0.74      0.00
  -10    2   13      0.52      0.00
   -9    3   13      0.92      0.00
   -8    4   13      0.15      0.00
   -7    5   13     -2.93      0.00
   -6    6   13      3.87      0.00
   -5    7   13      0.90      0.00
   -4    8   13      0.81      0.00
   -3    9   13      2.14      0.00
   -2   10   13      0.86      0.00
   -1   11   13      2.42      0.00
    0   12   13     -5.01      0.00
    1   13   13     -1.34      0.00
    2   14   13     -1.56      0.00
    3   15   13      0.97      0.00
    4   16   13      0.56      0.00
    5   17   13      0.87      0.00
    6   18   13      1.09      0.00
    7   19   13     -1.49      0.00
    8   20   13      3.42      0.00
    9   21   13     -2.16      0.00
   10   22   13      1.97      0.00
   11   23   13      0.19      0.00
   12   24   13     -1.27      0.00
   13   25   13     -0.17      0.00
   -9    1   13      0.84      0.00
   -8    2   13     -0.12      0.00
   -7    3   13     -5.30      0.00
   -6    4   13      0.78      0.00
   -5    5   13     -1.32      0.00
   -4    6   13      1.90      0.00
   -3    7   13      2.73      0.00
   -2    8   13     -0.94      0.00
   -1    9   13      1.22      0.00
    0   10   13      0.85      0.00
    1   11   13     -3.18      0.00
    2   12   13      3.08      0.00
    3   13   13      0.10      0.00
    4   14   13      1.19      0.00
    5   15   13     -2.63      0.00
    6   16   13     -0.48      0.00
    7   17   13      1.45      0.00
    8   18   13     -1.39      0.00
    9   19   13     -1.71      0.00
   10   20   13      0.40      0.00
   11   21   13     -1.57      0.00
   12   22   13      2.02      0.00
   13   23   13     -1.65      0.00
   14   24   13      1.04      0.00
   -7    1   13      1.28      0.00
   -6    2   13     -0.90      0.00
   -5    3   13      3.44      0.00
   -4    4   13      3.54      0.00
   -3    5   13     -3.66      0.00
   -2    6   13     -4.83      0.00
   -1    7   13     -2.35      0.00
    0    8   13     -1.79      0.00
    1    9   13     -3.46      0.00
    2   10   13      1.13      0.00
    3   11   13      4.07      0.00
    4   12   13      0.15      0.00
    5   13   13      0.20      0.00
    6   14   13     -0.46      0.00
    7   15   13     -0.86      0.00
    8   16   13      1.35      0.00
    9   17   13     -1.90      0.00
   10   18   13      1.85      0.00
   11   19   13     -0.82      0.00
   12   20   13      0.54      0.00
   13   21   13      0.07      0.00
   14   22   13      0.36      0.00
   15   23   13      1.22      0.00
  -22   16   13      2.31      0.00
   -5    1   13      2.37      0.00
   -4    2   13      2.51      0.00
   -3    3   13      2.01      0.00
   -2    4   13     -3.24      0.00
   -1    5   13      3.94      0.00
    0    6   13      6.78      0.00
    1    7   13     -2.07      0.00
    2    8   13      3.84      0.00
    3    9   13      1.35      0.00
    4   10   13     -2.17      0.00
    5   11   13     -3.36      0.00
    6   12   13     -1.06      0.00
    7   13   13      3.37      0.00
    8   14   13     -1.22      0.00
    9   15   13      2.44      0.00
   10   16   13     -3.21      0.00
   11   17   13      2.72      0.00
   12   18   13      0.43      0.00
   13   19   13      0.45      0.00
   14   20   13     -1.11      0.00
   15   21   13     -1.56      0.00
   16   22   13      2.90      0.00
  -21   17   13     -2.00      0.00
   -3    1   13    -10.99      0.00
   -2    2   13     -1.29      0.00
   -1    3   13    -10.40      0.00
    0    4   13      2.34      0.00
    1    5   13      3.34      0.00
    2    6   13     -2.72      0.00
    3    7   13      1.94      0.00
    4    8   13     -2.74      0.00
    5    9   13      3.26      0.00
    6   10   13     -1.41      0.00
    7   11   13     -1.20      0.00
    8   12   13      1.07      0.00
    9   13   13     -1.63      0.00
   10   14   13      0.61      0.00
   11   15   13      1.33      0.00
   12   16   13     -3.17      0.00
   13   17   13      0.22      0.00
   14   18   13      0.09      0.00
   15   19   13      0.35      0.00
   16   20   13     -2.47      0.00
   -1    1   13     11.17      0.00
    0    2   13      5.08      0.00
    1    3   13      8.03      0.00
    2    4   13     -7.47      0.00
    3    5   13     -5.33      0.00
    4    6   13     -2.35      0.00
    5    7   13     -2.02      0.00
    6    8   13      2.32      0.00
    7    9   13     -0.07      0.00
    8   10   13      0.92      0.00
    9   11   13      2.57      0.00
   10   12   13     -1.18      0.00
   11   13   13     -1.47      0.00
   12   14   13      2.73      0.00
   13   15   13     -0.48      0.00
   14   16   13      0.94      0.00
   15   17   13      0.40      0.00
   16   18   13      0.95      0.00
   17   19   13     -0.58      0.00
  -19   19   13      0.94      0.00
    1    1   13     -2.48      0.00
    2    2   13     -4.04      0.00
    3    3   13      0.07      0.00
    4    4   13      5.53      0.00
    5    5   13      4.54      0.00
    6    6   13      3.35      0.00
    7    7   13     -0.52      0.00
    8    8   13     -1.88      0.00
    9    9   13     -0.45      0.00
   10   10   13      0.43      0.00
   11   11   13     -0.94      0.00
   12   12   13     -1.41      0.00
   13   13   13      0.96      0.00
   14   14   13     -1.78      0.00
   15   15   13      0.26      0.00
   16   16   13     -1.12      0.00
   17   17   13     -0.81      0.00
   18   18   13      0.43      0.00
  -18   20   13     -1.19      0.00
    3    1   13     -7.33      0.00
    4    2   13      1.68      0.00
    5    3   13      0.06      0.00
    6    4   13     -1.21      0.00
    7    5   13     -1.15      0.00
    8    6   13     -1.98      0.00
    9    7   13     -0.04      0.00
   10    8   13      0.50      0.00
   11    9   13      1.17      0.00
   12   10   13     -2.60      0.00
   13   11   13      2.63      0.00
   14   12   13      1.17      0.00
   15   13   13     -1.42      0.00
   16   14   13      0.75      0.00
   17   15   13      1.34      0.00
   18   16   13     -0.13      0.00
   19   17   13     -0.11      0.00
  -18   22   13     -2.37      0.00
    5    1   13      4.12      0.00
    6    2   13     -1.08      0.00
    7    3   13      0.48      0.00
    8    4   13     -1.82      0.00
    9    5   13     -2.38      0.00
   10    6   13      3.29      0.00
   11    7   13      0.36      0.00
   12    8   13     -2.46      0.00
   13    9   13      3.48      0.00
   14   10   13     -1.13      0.00
   15   11   13     -0.72      0.00
   16   12   13     -1.25      0.00
   17   13   13      0.78      0.00
   18   14   13     -0.98      0.00
   19   15   13      2.31      0.00
  -17   23   13     -0.86      0.00
    7    1   13      0.75      0.00
    8    2   13     -0.95      0.00
    9    3   13     -0.64      0.00
   10    4   13      0.00      0.00
   11    5   13      4.58      0.00
   12    6   13     -1.95      0.00
   13    7   13     -0.31      0.00
   14    8   13     -1.75      0.00
   15    9   13      1.61      0.00
   16   10   13      0.08      0.00
   17   11   13     -0.29      0.00
   18   12   13      2.38      0.00
   19   13   13     -0.01      0.00
   20   14   13     -2.08      0.00
  -16   24   13      0.76      0.00
    9    1   13     -0.58      0.00
   10    2   13      0.98      0.00
   11    3   13      0.78      0.00
   12    4   13      1.23      0.00
   13    5   13     -3.08      0.00
   14    6   13     -0.04      0.00
   15    7   13      1.15      0.00
   16    8   13     -1.05      0.00
   17    9   13     -0.17      0.00
   18   10   13     -0.05      0.00
   19   11   13      0.13      0.00
   20   12   13     -2.11      0.00
   21   13   13      0.31      0.00
  -15   25   13      1.06      0.00
   11    1   13     -0.94      0.00
   12    2   13      2.40      0.00
   13    3   13     -1.10      0.00
   14    4   13     -5.55      0.00
   15    5   13      4.64      0.00
   16    6   13      1.03      0.00
   17    7   13     -1.13      0.00
   18    8   13      0.10      0.00
   19    9   13      1.72      0.00
   20   10   13     -3.06      0.00
   21   11   13      1.09      0.00
  -14   26   13      0.27      0.00
   13    1   13     -1.80      0.00
   14    2   13     -0.91      0.00
   15    3   13      3.04      0.00
   16    4   13      1.84      0.00
   17    5   13     -1.97      0.00
   18    6   13      0.03      0.00
   19    7   13      0.81      0.00
   20    8   13     -1.88      0.00
   21    9   13      2.77      0.00
   22   10   13      0.68      0.00
  -13   27   13      0.39      0.00
   15    1   13     -0.86      0.00
   16    2   13      1.56      0.00
   17    3   13     -1.42      0.00
   18    4   13     -2.04      0.00
   19    5   13     -0.54      0.00
   20    6   13      0.99      0.00
   21    7   13     -0.14      0.00
   22    8   13     -1.82      0.00
   23    9   13     -0.51      0.00
  -12   28   13      1.33      0.00
  -11   27   13     -0.72      0.00
   17    1   13     -0.37      0.00
   18    2   13     -0.29      0.00
   19    3   13      2.85      0.00
   20    4   13     -0.29      0.00
   21    5   13      0.05      0.00
   22    6   13      0.69      0.00
   23    7   13      2.18      0.00
  -11   29   13      2.27      0.00
   19    1   13     -0.58      0.00
   20    2   13     -0.93      0.00
   21    3   13     -1.48      0.00
   22    4   13      1.74      0.00
   23    5   13     -0.84      0.00
   24    6   13     -1.25      0.00
  -10   30   13     -1.38      0.00
   -9   29   13     -0.82      0.00
   21    1   13      1.21      0.00
   22    2   13      0.40      0.00
   23    3   13     -0.30      0.00
   24    4   13     -0.26      0.00
   -8   30   13     -1.30      0.00
   23    1   13     -0.16      0.00
   24    2   13     -0.80      0.00
   25    3   13     -0.64      0.00
   -7   31   13     -2.37      0.00
   25    1   13      2.80      0.00
   -5   31   13      1.49      0.00
   -4   32   13     -0.70      0.00
   26    2   13     -1.71      0.00
   -1   31   13      2.49      0.00
   25    5   13      0.59      0.00
   26    4   13      0.57      0.00
   24    8   13     -1.32      0.00
   25    7   13     -2.34      0.00
   26    6   13      3.11      0.00
    2   32   13     -3.09      0.00
   22   12   13     -0.72      0.00
   23   11   13      2.54      0.00
   24   10   13     -2.23      0.00
   25    9   13      1.58      0.00
   26    8   13      1.46      0.00
   20   16   13     -2.26      0.00
   21   15   13     -1.85      0.00
   22   14   13      5.25      0.00
   23   13   13     -1.99      0.00
   24   12   13      1.20      0.00
   25   11   13     -1.29      0.00
   26   10   13      1.60      0.00
   17   21   13      1.63      0.00
   18   20   13      0.86      0.00
   19   19   13      1.92      0.00
   20   18   13     -2.19      0.00
   21   17   13      1.73      0.00
   22   16   13      2.16      0.00
   23   15   13     -2.46      0.00
   24   14   13      0.38      0.00
   16   24   13     -1.48      0.00
   17   23   13     -3.61      0.00
   19   21   13     -2.83      0.00
  -20   18   14     -3.00      0.00
  -18   20   14     -0.29      0.00
  -17   21   14      0.53      0.00
  -16   22   14      3.59      0.00
  -15   23   14     -1.59      0.00
  -14   24   14     -0.85      0.00
  -13   25   14      0.51      0.00
  -12   26   14     -2.03      0.00
  -24   12   14      1.60      0.00
  -21   15   14      0.63      0.00
  -20   16   14     -0.41      0.00
  -19   17   14     -2.25      0.00
  -18   18   14      0.26      0.00
  -17   19   14     -0.31      0.00
  -16   20   14     -0.96      0.00
  -15   21   14     -0.47      0.00
  -14   22   14     -1.08      0.00
  -13   23   14      1.06      0.00
  -12   24   14     -0.34      0.00
  -11   25   14      2.45      0.00
  -10   26   14      2.67      0.00
   -9   27   14     -0.31      0.00
   -8   28   14     -0.92      0.00
  -23   11   14      0.78      0.00
  -22   12   14      0.03      0.00
  -21   13   14     -0.46      0.00
  -20   14   14     -2.09      0.00
  -19   15   14     -0.34      0.00
  -18   16   14      0.98      0.00
  -17   17   14     -0.34      0.00
  -16   18   14      0.22      0.00
  -15   19   14     -0.56      0.00
  -14   20   14      1.40      0.00
  -13   21   14     -0.44      0.00
  -12   22   14      0.50      0.00
  -11   23   14     -0.35      0.00
  -10   24   14     -0.01      0.00
   -9   25   14     -2.26      0.00
   -8   26   14      1.18      0.00
   -7   27   14     -0.90      0.00
   -6   28   14      0.19      0.00
   -5   29   14     -0.27      0.00
  -24    8   14     -1.39      0.00
  -23    9   14     -0.53      0.00
  -22   10   14      0.86      0.00
  -21   11   14     -2.26      0.00
  -20   12   14      2.10      0.00
  -19   13   14      0.91      0.00
  -18   14   14      0.33      0.00
  -17   15   14      0.03      0.00
  -16   16   14      0.98      0.00
  -15   17   14      0.64      0.00
  -14   18   14      0.26      0.00
  -13   19   14     -2.17      0.00
  -12   20   14      1.53      0.00
  -11   21   14     -0.77      0.00
  -10   22   14      0.00      0.00
   -9   23   14     -1.36      0.00
   -8   24   14      0.97      0.00
   -7   25   14     -0.85      0.00
   -6   26   14      0.20      0.00
   -5   27   14      1.03      0.00
   -4   28   14      0.26      0.00
   -3   29   14      1.37      0.00
  -29    1   14     -4.96      0.00
  -28    2   14      6.15      0.00
  -25    5   14     -0.39      0.00
  -24    6   14      0.43      0.00
  -23    7   14      1.95      0.00
  -22    8   14      0.11      0.00
  -21    9   14     -1.90      0.00
  -20   10   14      1.28      0.00
  -19   11   14     -0.60      0.00
  -18   12   14     -2.17      0.00
  -17   13   14     -0.24      0.00
  -16   14   14      2.34      0.00
  -15   15   14     -1.86      0.00
  -14   16   14     -0.37      0.00
  -13   17   14     -0.59      0.00
  -12   18   14      2.89      0.00
  -11   19   14     -1.79      0.00
  -10   20   14      0.53      0.00
   -9   21   14      0.40      0.00
   -8   22   14      1.42      0.00
   -7   23   14     -1.71      0.00
   -6   24   14      1.22      0.00
   -5   25   14     -0.50      0.00
   -4   26   14     -1.07      0.00
   -3   27   14     -0.03      0.00
   -2   28   14     -1.93      0.00
   -1   29   14      4.03      0.00
    1   31   14     -1.79      0.00
  -28    0   14     -0.65      0.00
  -27    1   14      2.00      0.00
  -26    2   14     -2.95      0.00
  -25    3   14     -0.30      0.00
  -24    4   14     -1.34      0.00
  -23    5   14      0.93      0.00
  -22    6   14     -0.77      0.00
  -21    7   14      0.99      0.00
  -20    8   14      1.10      0.00
  -19    9   14     -0.57      0.00
  -18   10   14      0.52      0.00
  -17   11   14      0.68      0.00
  -16   12   14      1.00      0.00
  -15   13   14     -2.17      0.00
  -14   14   14      0.15      0.00
  -13   15   14      1.39      0.00
  -12   16   14      0.09      0.00
  -11   17   14     -1.94      0.00
  -10   18   14     -1.62      0.00
   -9   19   14      0.74      0.00
   -8   20   14      1.21      0.00
   -7   21   14     -0.94      0.00
   -6   22   14      0.79      0.00
   -5   23   14     -0.41      0.00
   -4   24   14      0.25      0.00
   -3   25   14      2.26      0.00
   -2   26   14     -0.73      0.00
   -1   27   14      0.49      0.00
    0   28   14      0.23      0.00
    1   29   14      0.72      0.00
    2   30   14     -1.04      0.00
    3   31   14      3.05      0.00
    4   32   14     -1.29      0.00
  -25    1   14      3.51      0.00
  -24    2   14     -0.51      0.00
  -23    3   14      2.59      0.00
  -22    4   14     -0.33      0.00
  -21    5   14     -1.88      0.00
  -20    6   14     -0.43      0.00
  -19    7   14     -1.49      0.00
  -18    8   14     -0.57      0.00
  -17    9   14      0.09      0.00
  -16   10   14      1.12      0.00
  -15   11   14      0.29      0.00
  -14   12   14     -0.28      0.00
  -13   13   14     -0.90      0.00
  -12   14   14     -0.02      0.00
  -11   15   14     -0.02      0.00
  -10   16   14      1.22      0.00
   -9   17   14      2.26      0.00
   -8   18   14     -0.92      0.00
   -7   19   14     -0.78      0.00
   -6   20   14      0.14      0.00
   -5   21   14     -1.34      0.00
   -4   22   14      0.29      0.00
   -3   23   14      0.70      0.00
   -2   24   14     -1.75      0.00
   -1   25   14     -0.46      0.00
    0   26   14      0.94      0.00
    1   27   14     -2.21      0.00
    2   28   14      0.30      0.00
    3   29   14     -0.74      0.00
    4   30   14      1.20      0.00
    5   31   14     -2.27      0.00
    6   32   14      2.26      0.00
  -24    0   14     -3.87      0.00
  -23    1   14     -0.62      0.00
  -22    2   14     -0.83      0.00
  -21    3   14      0.65      0.00
  -20    4   14     -0.27      0.00
  -19    5   14      2.40      0.00
  -18    6   14      1.68      0.00
  -17    7   14      1.49      0.00
  -16    8   14      0.63      0.00
  -15    9   14     -1.66      0.00
  -14   10   14     -1.43      0.00
  -13   11   14      0.54      0.00
  -12   12   14      1.05      0.00
  -11   13   14     -0.76      0.00
  -10   14   14     -0.07      0.00
   -9   15   14     -0.16      0.00
   -8   16   14      0.60      0.00
   -7   17   14     -0.16      0.00
   -6   18   14     -0.17      0.00
   -5   19   14      0.81      0.00
   -4   20   14     -0.55      0.00
   -3   21   14     -0.39      0.00
   -2   22   14      1.33      0.00
   -1   23   14      0.15      0.00
    0   24   14     -1.16      0.00
    1   25   14     -0.03      0.00
    2   26   14      0.95      0.00
    3   27   14      0.35      0.00
    4   28   14     -1.32      0.00
    5   29   14     -0.77      0.00
    6   30   14      0.93      0.00
    7   31   14     -1.97      0.00
  -26    4   14      0.08      0.00
  -22    0   14      1.98      0.00
  -21    1   14      0.98      0.00
  -20    2   14     -0.36      0.00
  -19    3   14     -1.15      0.00
  -18    4   14      0.16      0.00
  -17    5   14     -3.33      0.00
  -16    6   14     -0.27      0.00
  -15    7   14     -0.58      0.00
  -14    8   14     -1.34      0.00
  -13    9   14     -0.20      0.00
  -12   10   14      3.08      0.00
  -11   11   14     -0.17      0.00
  -10   12   14     -1.06      0.00
   -9   13   14      1.63      0.00
   -8   14   14     -1.20      0.00
   -7   15   14     -1.59      0.00
   -6   16   14     -0.89      0.00
   -5   17   14      0.06      0.00
   -4   18   14      1.73      0.00
   -3   19   14     -0.40      0.00
   -2   20   14      1.44      0.00
   -1   21   14     -0.11      0.00
    0   22   14     -0.83      0.00
    1   23   14      0.32      0.00
    2   24   14      1.32      0.00
    3   25   14     -0.59      0.00
    4   26   14      2.19      0.00
    5   27   14     -0.41      0.00
    6   28   14      1.83      0.00
    7   29   14     -0.62      0.00
    8   30   14      3.96      0.00
  -20    0   14      0.16      0.00
  -19    1   14     -2.21      0.00
  -18    2   14      1.96      0.00
  -17    3   14     -0.50      0.00
  -16    4   14      0.90      0.00
  -15    5   14      0.15      0.00
  -14    6   14      0.94      0.00
  -13    7   14     -0.23      0.00
  -12    8   14      2.07      0.00
  -11    9   14     -0.46      0.00
  -10   10   14     -1.57      0.00
   -9   11   14      1.22      0.00
   -8   12   14     -1.07      0.00
   -7   13   14      0.66      0.00
   -6   14   14     -0.58      0.00
   -5   15   14      1.75      0.00
   -4   16   14     -0.82      0.00
   -3   17   14     -0.72      0.00
   -2   18   14     -0.88      0.00
   -1   19   14     -0.04      0.00
    0   20   14     -1.24      0.00
    1   21   14     -0.60      0.00
    2   22   14      0.35      0.00
    3   23   14      0.33      0.00
    4   24   14     -0.33      0.00
    5   25   14     -2.77      0.00
    6   26   14      0.95      0.00
    7   27   14     -3.77      0.00
    8   28   14      0.90      0.00
    9   29   14     -3.63      0.00
  -25    7   14     -1.12      0.00
  -18    0   14      2.10      0.00
  -17    1   14      0.43      0.00
  -16    2   14     -0.69      0.00
  -15    3   14      0.18      0.00
  -14    4   14      1.12      0.00
  -13    5   14     -0.28      0.00
  -12    6   14      0.88      0.00
  -11    7   14      0.34      0.00
  -10    8   14     -0.12      0.00
   -9    9   14     -3.33      0.00
   -8   10   14      0.31      0.00
   -7   11   14      0.26      0.00
   -6   12   14      0.50      0.00
   -5   13   14     -0.47      0.00
   -4   14   14      3.71      0.00
   -3   15   14     -1.29      0.00
   -2   16   14      0.90      0.00
   -1   17   14      0.18      0.00
    0   18   14     -0.08      0.00
    1   19   14     -0.26      0.00
    2   20   14      2.36      0.00
    3   21   14     -1.33      0.00
    4   22   14      0.97      0.00
    5   23   14      0.23      0.00
    6   24   14      1.74      0.00
    7   25   14     -0.58      0.00
    8   26   14      3.74      0.00
    9   27   14     -0.10      0.00
   10   28   14      2.15      0.00
  -25    9   14     -0.52      0.00
  -16    0   14     -2.38      0.00
  -15    1   14      0.48      0.00
  -14    2   14      0.03      0.00
  -13    3   14     -1.11      0.00
  -12    4   14     -1.59      0.00
  -11    5   14     -0.48      0.00
  -10    6   14     -1.79      0.00
   -9    7   14     -0.26      0.00
   -8    8   14      0.74      0.00
   -7    9   14      2.71      0.00
   -6   10   14      1.58      0.00
   -5   11   14      0.11      0.00
   -4   12   14     -0.38      0.00
   -3   13   14     -0.15      0.00
   -2   14   14     -2.71      0.00
   -1   15   14     -1.60      0.00
    0   16   14     -0.41      0.00
    1   17   14      2.21      0.00
    2   18   14     -1.56      0.00
    3   19   14     -0.35      0.00
    4   20   14      1.26      0.00
    5   21   14     -1.66      0.00
    6   22   14     -0.59      0.00
    7   23   14     -2.60      0.00
    8   24   14      0.42      0.00
    9   25   14     -1.38      0.00
   10   26   14      0.61      0.00
  -24   10   14      0.48      0.00
  -14    0   14      0.35      0.00
  -13    1   14      1.43      0.00
  -12    2   14      1.28      0.00
  -11    3   14      0.82      0.00
  -10    4   14      1.41      0.00
   -9    5   14     -0.40      0.00
   -8    6   14      0.61      0.00
   -7    7   14      1.04      0.00
   -6    8   14     -1.07      0.00
   -5    9   14     -0.02      0.00
   -4   10   14     -6.52      0.00
   -3   11   14     -1.06      0.00
   -2   12   14      2.59      0.00
   -1   13   14     -0.98      0.00
    0   14   14      3.02      0.00
    1   15   14      1.27      0.00
    2   16   14      2.47      0.00
    3   17   14     -2.37      0.00
    4   18   14      1.82      0.00
    5   19   14     -2.11      0.00
    6   20   14      1.05      0.00
    7   21   14      0.85      0.00
    8   22   14      0.39      0.00
    9   23   14      1.32      0.00
   10   24   14      0.02      0.00
   11   25   14      1.66      0.00
  -12    0   14     -2.26      0.00
  -11    1   14     -2.67      0.00
  -10    2   14     -0.46      0.00
   -9    3   14     -0.07      0.00
   -8    4   14     -0.42      0.00
   -7    5   14      1.72      0.00
   -6    6   14      1.66      0.00
   -5    7   14     -1.70      0.00
   -4    8   14     -0.82      0.00
   -3    9   14      4.56      0.00
   -2   10   14      1.89      0.00
   -1   11   14     -0.81      0.00
    0   12   14      0.63      0.00
    1   13   14      0.05      0.00
    2   14   14     -2.41      0.00
    3   15   14     -3.32      0.00
    4   16   14      0.52      0.00
    5   17   14     -0.42      0.00
    6   18   14      2.25      0.00
    7   19   14     -0.84      0.00
    8   20   14      0.84      0.00
    9   21   14     -0.66      0.00
   10   22   14      1.19      0.00
   11   23   14     -0.87      0.00
   12   24   14      0.14      0.00
  -23   13   14     -2.95      0.00
  -10    0   14      2.00      0.00
   -9    1   14      2.83      0.00
   -8    2   14     -0.80      0.00
   -7    3   14      1.30      0.00
   -6    4   14     -3.32      0.00
   -5    5   14     -2.17      0.00
   -4    6   14     -2.18      0.00
   -3    7   14      0.03      0.00
   -2    8   14      3.12      0.00
   -1    9   14     -0.20      0.00
    0   10   14     -1.12      0.00
    1   11   14     -0.88      0.00
    2   12   14      0.78      0.00
    3   13   14      1.49      0.00
    4   14   14     -2.68      0.00
    5   15   14      2.32      0.00
    6   16   14     -0.68      0.00
    7   17   14     -0.55      0.00
    8   18   14     -0.59      0.00
    9   19   14     -0.22      0.00
   10   20   14      0.79      0.00
   11   21   14     -3.10      0.00
   12   22   14      0.67      0.00
   13   23   14      0.46      0.00
  -22   14   14      3.94      0.00
   -8    0   14     -0.77      0.00
   -7    1   14     -1.22      0.00
   -6    2   14      0.27      0.00
   -5    3   14      1.44      0.00
   -4    4   14      1.92      0.00
   -3    5   14      0.53      0.00
   -2    6   14      1.45      0.00
   -1    7   14     -0.21      0.00
    0    8   14     -3.32      0.00
    1    9   14     -3.09      0.00
    2   10   14      1.44      0.00
    3   11   14      0.49      0.00
    4   12   14     -0.33      0.00
    5   13   14      2.38      0.00
    6   14   14      0.69      0.00
    7   15   14      2.83      0.00
    8   16   14     -3.80      0.00
    9   17   14      1.91      0.00
   10   18   14     -0.71      0.00
   11   19   14      0.55      0.00
   12   20   14      2.05      0.00
   13   21   14     -1.78      0.00
   14   22   14      0.42      0.00
   -6    0   14     -6.35      0.00
   -5    1   14      3.51      0.00
   -4    2   14      0.50      0.00
   -3    3   14      0.12      0.00
   -2    4   14      2.53      0.00
   -1    5   14      1.17      0.00
    0    6   14     -1.55      0.00
    1    7   14      3.00      0.00
    2    8   14     -0.59      0.00
    3    9   14      2.33      0.00
    4   10   14     -0.62      0.00
    5   11   14     -0.52      0.00
    6   12   14     -1.97      0.00
    7   13   14     -0.35      0.00
    8   14   14      0.75      0.00
    9   15   14     -1.75      0.00
   10   16   14      1.96      0.00
   11   17   14     -1.21      0.00
   12   18   14     -0.33      0.00
   13   19   14     -0.29      0.00
   14   20   14      1.35      0.00
   15   21   14     -0.21      0.00
   -4    0   14      1.83      0.00
   -3    1   14     -0.08      0.00
   -2    2   14     -8.34      0.00
   -1    3   14      0.21      0.00
    0    4   14     -7.86      0.00
    1    5   14     -1.97      0.00
    2    6   14      1.65      0.00
    3    7   14      0.61      0.00
    4    8   14      3.05      0.00
    5    9   14     -1.43      0.00
    6   10   14      1.13      0.00
    7   11   14     -0.79      0.00
    8   12   14     -1.46      0.00
    9   13   14      0.34      0.00
   10   14   14     -1.06      0.00
   11   15   14      2.34      0.00
   12   16   14     -1.09      0.00
   13   17   14     -0.92      0.00
   14   18   14     -0.69      0.00
   15   19   14      1.71      0.00
   16   20   14      0.73      0.00
   -2    0   14      1.99      0.00
   -1    1   14     -0.29      0.00
    0    2   14     10.31      0.00
    1    3   14      4.21      0.00
    2    4   14      3.98      0.00
    3    5   14     -1.74      0.00
    4    6   14     -0.91      0.00
    5    7   14     -2.66      0.00
    6    8   14     -3.79      0.00
    7    9   14     -0.60      0.00
    8   10   14      4.13      0.00
    9   11   14     -0.11      0.00
   10   12   14      0.87      0.00
   11   13   14     -0.52      0.00
   12   14   14     -0.95      0.00
   13   15   14      3.73      0.00
   14   16   14      0.10      0.00
   15   17   14     -0.04      0.00
   16   18   14     -0.78      0.00
    0    0   14     -5.41      0.00
    1    1   14      0.85      0.00
    2    2   14     -4.38      0.00
    3    3   14     -2.06      0.00
    4    4   14      0.21      0.00
    5    5   14      2.19      0.00
    6    6   14      2.78      0.00
    7    7   14     -0.84      0.00
    8    8   14      2.01      0.00
    9    9   14      0.23      0.00
   10   10   14     -2.03      0.00
   11   11   14     -0.08      0.00
   12   12   14      0.44      0.00
   13   13   14     -1.31      0.00
   14   14   14     -1.60      0.00
   15   15   14     -1.09      0.00
   16   16   14     -0.49      0.00
   17   17   14     -0.03      0.00
    2    0   14     -0.71      0.00
    3    1   14      0.40      0.00
    4    2   14     -5.56      0.00
    5    3   14      2.46      0.00
    6    4   14     -1.08      0.00
    7    5   14     -1.63      0.00
    8    6   14     -0.68      0.00
    9    7   14      2.38      0.00
   10    8   14     -0.27      0.00
   11    9   14     -1.84      0.00
   12   10   14      1.42      0.00
   13   11   14      0.89      0.00
   14   12   14     -1.31      0.00
   15   13   14      2.64      0.00
   16   14   14     -0.01      0.00
   17   15   14      0.63      0.00
   18   16   14      1.42      0.00
    4    0   14      0.36      0.00
    5    1   14      3.27      0.00
    6    2   14      3.18      0.00
    7    3   14     -0.97      0.00
    8    4   14     -0.70      0.00
    9    5   14      0.48      0.00
   10    6   14      1.06      0.00
   11    7   14     -2.51      0.00
   12    8   14     -0.58      0.00
   13    9   14      1.37      0.00
   14   10   14     -0.41      0.00
   15   11   14      0.02      0.00
   16   12   14      0.14      0.00
   17   13   14     -1.84      0.00
   18   14   14     -0.20      0.00
    6    0   14      1.49      0.00
    7    1   14     -1.23      0.00
    8    2   14     -2.04      0.00
    9    3   14      0.75      0.00
   10    4   14      2.13      0.00
   11    5   14     -3.66      0.00
   12    6   14      1.03      0.00
   13    7   14      2.47      0.00
   14    8   14     -1.07      0.00
   15    9   14     -0.50      0.00
   16   10   14      1.20      0.00
   17   11   14      0.78      0.00
   18   12   14     -1.52      0.00
   19   13   14      1.79      0.00
    8    0   14     -3.00      0.00
    9    1   14     -0.50      0.00
   10    2   14      0.77      0.00
   11    3   14      0.78      0.00
   12    4   14     -1.77      0.00
   13    5   14      2.44      0.00
   14    6   14     -1.09      0.00
   15    7   14     -0.32      0.00
   16    8   14     -1.75      0.00
   17    9   14     -0.48      0.00
   18   10   14     -0.28      0.00
   19   11   14      1.19      0.00
   20   12   14     -0.93      0.00
   10    0   14      0.69      0.00
   11    1   14      1.71      0.00
   12    2   14      0.52      0.00
   13    3   14      0.36      0.00
   14    4   14      0.24      0.00
   15    5   14     -2.67      0.00
   16    6   14      3.29      0.00
   17    7   14      1.48      0.00
   18    8   14     -0.77      0.00
   19    9   14      0.19      0.00
   20   10   14      1.96      0.00
   12    0   14      1.08      0.00
   13    1   14     -2.44      0.00
   14    2   14     -3.22      0.00
   15    3   14      2.59      0.00
   16    4   14     -0.13      0.00
   17    5   14     -0.47      0.00
   18    6   14     -1.51      0.00
   19    7   14      0.81      0.00
   20    8   14      0.19      0.00
   21    9   14     -3.01      0.00
   14    0   14      0.14      0.00
   15    1   14      1.39      0.00
   16    2   14      0.54      0.00
   17    3   14      0.01      0.00
   18    4   14     -1.45      0.00
   19    5   14      1.15      0.00
   20    6   14     -0.74      0.00
   21    7   14     -0.39      0.00
   22    8   14      0.82      0.00
  -11   27   14     -1.46      0.00
   16    0   14      2.11      0.00
   17    1   14     -1.52      0.00
   18    2   14     -0.35      0.00
   19    3   14      0.35      0.00
   20    4   14      1.48      0.00
   21    5   14     -0.12      0.00
   22    6   14     -1.21      0.00
   18    0   14      0.31      0.00
   19    1   14      0.55      0.00
   20    2   14     -0.25      0.00
   21    3   14     -0.87      0.00
   22    4   14     -1.56      0.00
   23    5   14      2.40      0.00
   20    0   14     -0.98      0.00
   21    1   14      0.65      0.00
   22    2   14      0.33      0.00
   23    3   14      1.39      0.00
   -8   30   14     -4.64      0.00
   22    0   14     -1.64      0.00
   23    1   14      0.93      0.00
   24    2   14     -0.92      0.00
   24    0   14     -0.12      0.00
   -4   30   14     -1.70      0.00
   -3   31   14      4.11      0.00
   -2   30   14     -5.34      0.00
   24    4   14     -0.87      0.00
   25    3   14      0.17      0.00
   -1   31   14      0.92      0.00
    0   30   14     -0.29      0.00
   23    7   14      3.37      0.00
   24    6   14     -1.64      0.00
   25    5   14     -1.51      0.00
   21   11   14     -1.41      0.00
   22   10   14      0.69      0.00
   23    9   14     -0.58      0.00
   24    8   14      2.37      0.00
   25    7   14     -4.06      0.00
   19   15   14     -0.92      0.00
   20   14   14      1.09      0.00
   21   13   14     -1.39      0.00
   22   12   14     -0.37      0.00
   23   11   14      2.82      0.00
   24   10   14      1.36      0.00
   25    9   14     -5.34      0.00
   17   19   14      2.31      0.00
   18   18   14     -2.50      0.00
   19   17   14     -0.47      0.00
   20   16   14      1.88      0.00
   21   15   14     -0.56      0.00
   22   14   14      1.76      0.00
   23   13   14     -2.90      0.00
   24   12   14      1.75      0.00
   25   11   14     -3.83      0.00
   11   27   14     -2.53      0.00
   12   26   14     -3.62      0.00
   13   25   14     -0.58      0.00
   14   24   14     -0.41      0.00
   15   23   14      0.82      0.00
   16   22   14     -2.92      0.00
   17   21   14     -3.49      0.00
   18   20   14     -1.07      0.00
   19   19   14      0.98      0.00
   20   18   14      0.92      0.00
   21   17   14     -2.97      0.00
   22   16   14      1.03      0.00
  -21   15   15      2.88      0.00
  -18   18   15     -4.75      0.00
  -17   19   15      2.55      0.00
  -16   20   15      1.97      0.00
  -12   24   15     -0.77      0.00
  -11   25   15      1.00      0.00
  -22   12   15      3.73      0.00
  -20   14   15      1.30      0.00
  -19   15   15     -1.47      0.00
  -18   16   15     -0.09      0.00
  -17   17   15      1.02      0.00
  -16   18   15      2.59      0.00
  -15   19   15     -3.25      0.00
  -14   20   15      1.42      0.00
  -13   21   15     -1.26      0.00
  -12   22   15      0.22      0.00
  -11   23   15     -0.09      0.00
  -10   24   15     -0.73      0.00
   -9   25   15     -1.91      0.00
   -8   26   15      1.59      0.00
   -7   27   15     -1.61      0.00
   -6   28   15     -0.21      0.00
  -22   10   15      0.66      0.00
  -21   11   15     -2.16      0.00
  -20   12   15      1.32      0.00
  -19   13   15      1.38      0.00
  -18   14   15     -0.73      0.00
  -17   15   15      1.58      0.00
  -16   16   15      1.62      0.00
  -15   17   15     -2.56      0.00
  -14   18   15      1.54      0.00
  -13   19   15      0.79      0.00
  -12   20   15      0.11      0.00
  -11   21   15     -2.10      0.00
  -10   22   15      1.32      0.00
   -9   23   15      4.88      0.00
   -8   24   15     -3.91      0.00
   -7   25   15     -1.57      0.00
   -6   26   15      1.97      0.00
   -5   27   15     -0.15      0.00
   -4   28   15     -0.59      0.00
   -3   29   15     -0.82      0.00
  -23    7   15      0.36      0.00
  -22    8   15      0.13      0.00
  -21    9   15     -0.30      0.00
  -20   10   15      1.80      0.00
  -19   11   15     -1.45      0.00
  -18   12   15     -1.02      0.00
  -17   13   15     -1.78      0.00
  -16   14   15      2.54      0.00
  -15   15   15     -2.21      0.00
  -14   16   15     -1.70      0.00
  -13   17   15     -0.50      0.00
  -12   18   15      0.82      0.00
  -11   19   15     -0.06      0.00
  -10   20   15      1.58      0.00
   -9   21   15     -0.66      0.00
   -8   22   15     -2.35      0.00
   -7   23   15      0.44      0.00
   -6   24   15      1.34      0.00
   -5   25   15      0.27      0.00
   -4   26   15      0.72      0.00
   -3   27   15     -2.12      0.00
   -2   28   15      2.19      0.00
  -23    5   15     -0.61      0.00
  -22    6   15     -0.82      0.00
  -21    7   15      2.44      0.00
  -20    8   15     -0.70      0.00
  -19    9   15      0.69      0.00
  -18   10   15     -0.45      0.00
  -17   11   15      0.69      0.00
  -16   12   15     -0.55      0.00
  -15   13   15     -1.76      0.00
  -14   14   15      1.82      0.00
  -13   15   15      1.06      0.00
  -12   16   15      1.86      0.00
  -11   17   15     -0.94      0.00
  -10   18   15      0.75      0.00
   -9   19   15     -2.44      0.00
   -8   20   15      0.97      0.00
   -7   21   15     -0.29      0.00
   -6   22   15      0.50      0.00
   -5   23   15      2.35      0.00
   -4   24   15     -2.07      0.00
   -3   25   15      0.70      0.00
   -2   26   15      2.37      0.00
   -1   27   15     -3.29      0.00
    0   28   15      0.16      0.00
    1   29   15      0.90      0.00
    2   30   15      0.83      0.00
    3   31   15     -1.25      0.00
  -24    2   15      2.56      0.00
  -23    3   15     -3.18      0.00
  -22    4   15      1.80      0.00
  -21    5   15      2.66      0.00
  -20    6   15     -4.14      0.00
  -19    7   15      0.59      0.00
  -18    8   15     -2.17      0.00
  -17    9   15      0.30      0.00
  -16   10   15      1.38      0.00
  -15   11   15      0.39      0.00
  -14   12   15      1.53      0.00
  -13   13   15     -0.32      0.00
  -12   14   15     -0.45      0.00
  -11   15   15     -0.96      0.00
  -10   16   15     -2.09      0.00
   -9   17   15      1.18      0.00
   -8   18   15      2.60      0.00
   -7   19   15     -3.97      0.00
   -6   20   15      1.90      0.00
   -5   21   15     -0.26      0.00
   -4   22   15     -1.65      0.00
   -3   23   15     -0.02      0.00
   -2   24   15     -2.02      0.00
   -1   25   15     -1.61      0.00
    0   26   15      3.33      0.00
    1   27   15     -0.60      0.00
    2   28   15     -2.76      0.00
    3   29   15      1.99      0.00
    4   30   15     -2.63      0.00
    5   31   15      1.23      0.00
  -25    1   15     -0.23      0.00
  -23    1   15     -2.60      0.00
  -22    2   15      1.10      0.00
  -21    3   15     -0.48      0.00
  -20    4   15      0.26      0.00
  -19    5   15     -1.10      0.00
  -18    6   15      2.54      0.00
  -17    7   15      1.19      0.00
  -16    8   15      1.46      0.00
  -15    9   15     -1.59      0.00
  -14   10   15     -0.41      0.00
  -13   11   15      0.01      0.00
  -12   12   15     -0.47      0.00
  -11   13   15     -0.69      0.00
  -10   14   15     -1.09      0.00
   -9   15   15      2.44      0.00
   -8   16   15     -0.43      0.00
   -7   17   15      0.09      0.00
   -6   18   15      1.84      0.00
   -5   19   15      0.63      0.00
   -4   20   15     -0.33      0.00
   -3   21   15      0.59      0.00
   -2   22   15     -0.40      0.00
   -1   23   15      1.86      0.00
    0   24   15      0.63      0.00
    1   25   15     -1.05      0.00
    2   26   15      0.12      0.00
    3   27   15      1.07      0.00
    4   28   15     -1.43      0.00
    5   29   15     -0.22      0.00
    6   30   15      3.29      0.00
  -25    3   15      1.19      0.00
  -21    1   15     -0.70      0.00
  -20    2   15      1.66      0.00
  -19    3   15     -0.05      0.00
  -18    4   15     -2.08      0.00
  -17    5   15     -0.35      0.00
  -16    6   15      0.20      0.00
  -15    7   15     -3.06      0.00
  -14    8   15      1.77      0.00
  -13    9   15     -0.30      0.00
  -12   10   15     -0.37      0.00
  -11   11   15     -0.48      0.00
  -10   12   15      0.03      0.00
   -9   13   15      1.61      0.00
   -8   14   15      1.28      0.00
   -7   15   15     -2.54      0.00
   -6   16   15     -1.66      0.00
   -5   17   15      0.89      0.00
   -4   18   15     -2.73      0.00
   -3   19   15     -0.49      0.00
   -2   20   15      1.74      0.00
   -1   21   15      0.26      0.00
    0   22   15     -0.06      0.00
    1   23   15      1.18      0.00
    2   24   15     -1.39      0.00
    3   25   15      0.86      0.00
    4   26   15     -0.48      0.00
    5   27   15      1.14      0.00
    6   28   15      1.70      0.00
    7   29   15     -2.30      0.00
  -25    5   15      3.19      0.00
  -19    1   15      0.31      0.00
  -18    2   15     -2.88      0.00
  -17    3   15      2.61      0.00
  -16    4   15      2.69      0.00
  -15    5   15     -1.61      0.00
  -14    6   15      1.23      0.00
  -13    7   15     -0.15      0.00
  -12    8   15     -0.37      0.00
  -11    9   15     -1.26      0.00
  -10   10   15      2.70      0.00
   -9   11   15      1.24      0.00
   -8   12   15     -0.64      0.00
   -7   13   15     -0.95      0.00
   -6   14   15     -0.07      0.00
   -5   15   15      0.99      0.00
   -4   16   15      1.83      0.00
   -3   17   15     -3.09      0.00
   -2   18   15      3.90      0.00
   -1   19   15     -1.21      0.00
    0   20   15     -1.44      0.00
    1   21   15     -0.51      0.00
    2   22   15     -2.39      0.00
    3   23   15      1.89      0.00
    4   24   15     -0.59      0.00
    5   25   15     -0.49      0.00
    6   26   15     -0.60      0.00
    7   27   15     -0.43      0.00
    8   28   15     -0.25      0.00
  -24    6   15     -2.14      0.00
  -17    1   15      1.38      0.00
  -16    2   15      0.36      0.00
  -15    3   15     -2.20      0.00
  -14    4   15     -0.75      0.00
  -13    5   15     -0.19      0.00
  -12    6   15      1.41      0.00
  -11    7   15     -1.13      0.00
  -10    8   15      2.23      0.00
   -9    9   15     -0.60      0.00
   -8   10   15     -2.33      0.00
   -7   11   15     -0.67      0.00
   -6   12   15     -0.72      0.00
   -5   13   15      1.30      0.00
   -4   14   15     -0.10      0.00
   -3   15   15      0.13      0.00
   -2   16   15      1.73      0.00
   -1   17   15      0.78      0.00
    0   18   15     -0.28      0.00
    1   19   15     -2.49      0.00
    2   20   15      1.08      0.00
    3   21   15      3.65      0.00
    4   22   15     -2.79      0.00
    5   23   15      2.08      0.00
    6   24   15     -1.42      0.00
    7   25   15      2.47      0.00
    8   26   15     -0.19      0.00
    9   27   15      0.81      0.00
  -24    8   15     -0.56      0.00
  -15    1   15      0.09      0.00
  -14    2   15      0.54      0.00
  -13    3   15     -0.64      0.00
  -12    4   15     -0.87      0.00
  -11    5   15      0.88      0.00
  -10    6   15      1.46      0.00
   -9    7   15     -3.60      0.00
   -8    8   15      1.25      0.00
   -7    9   15     -0.83      0.00
   -6   10   15      0.70      0.00
   -5   11   15      1.95      0.00
   -4   12   15      0.52      0.00
   -3   13   15     -0.86      0.00
   -2   14   15      0.43      0.00
   -1   15   15     -2.43      0.00
    0   16   15     -0.77      0.00
    1   17   15     -2.79      0.00
    2   18   15      2.47      0.00
    3   19   15      0.51      0.00
    4   20   15      0.24      0.00
    5   21   15     -0.33      0.00
    6   22   15     -2.53      0.00
    7   23   15      1.45      0.00
    8   24   15     -1.06      0.00
    9   25   15     -2.71      0.00
  -23    9   15     -0.26      0.00
  -13    1   15     -1.02      0.00
  -12    2   15      1.87      0.00
  -11    3   15      2.24      0.00
  -10    4   15     -0.38      0.00
   -9    5   15     -0.88      0.00
   -8    6   15      0.39      0.00
   -7    7   15      1.32      0.00
   -6    8   15     -0.78      0.00
   -5    9   15      0.46      0.00
   -4   10   15     -0.97      0.00
   -3   11   15      0.31      0.00
   -2   12   15     -3.15      0.00
   -1   13   15      0.37      0.00
    0   14   15      1.25      0.00
    1   15   15      1.72      0.00
    2   16   15     -0.15      0.00
    3   17   15      4.25      0.00
    4   18   15     -0.35      0.00
    5   19   15     -2.17      0.00
    6   20   15     -0.74      0.00
    7   21   15      2.20      0.00
    8   22   15      1.83      0.00
    9   23   15     -2.23      0.00
   10   24   15      2.16      0.00
  -11    1   15     -1.03      0.00
  -10    2   15     -1.00      0.00
   -9    3   15     -2.48      0.00
   -8    4   15     -0.19      0.00
   -7    5   15      0.92      0.00
   -6    6   15      0.20      0.00
   -5    7   15      1.08      0.00
   -4    8   15     -0.10      0.00
   -3    9   15      0.87      0.00
   -2   10   15      2.05      0.00
   -1   11   15     -2.31      0.00
    0   12   15      1.39      0.00
    1   13   15      0.88      0.00
    2   14   15     -0.60      0.00
    3   15   15     -1.02      0.00
    4   16   15     -3.07      0.00
    5   17   15     -1.04      0.00
    6   18   15     -0.27      0.00
    7   19   15      2.38      0.00
    8   20   15     -1.61      0.00
    9   21   15     -1.36      0.00
   10   22   15      2.08      0.00
   11   23   15     -0.68      0.00
   -9    1   15      1.09      0.00
   -8    2   15      0.16      0.00
   -7    3   15      0.90      0.00
   -6    4   15      0.77      0.00
   -5    5   15     -2.06      0.00
   -4    6   15     -0.80      0.00
   -3    7   15     -0.97      0.00
   -2    8   15     -3.29      0.00
   -1    9   15      1.06      0.00
    0   10   15      0.13      0.00
    1   11   15      2.07      0.00
    2   12   15     -0.99      0.00
    3   13   15     -0.37      0.00
    4   14   15      1.31      0.00
    5   15   15     -0.46      0.00
    6   16   15      0.52      0.00
    7   17   15     -0.16      0.00
    8   18   15     -0.24      0.00
    9   19   15     -0.18      0.00
   10   20   15      0.97      0.00
   11   21   15     -0.17      0.00
   12   22   15     -0.64      0.00
  -21   13   15     -3.12      0.00
   -7    1   15      2.56      0.00
   -6    2   15     -0.65      0.00
   -5    3   15      1.50      0.00
   -4    4   15     -0.88      0.00
   -3    5   15      1.79      0.00
   -2    6   15      0.77      0.00
   -1    7   15      1.83      0.00
    0    8   15     -0.99      0.00
    1    9   15      0.81      0.00
    2   10   15     -0.04      0.00
    3   11   15     -1.38      0.00
    4   12   15     -1.46      0.00
    5   13   15      1.50      0.00
    6   14   15      0.97      0.00
    7   15   15      0.36      0.00
    8   16   15      2.58      0.00
    9   17   15     -2.07      0.00
   10   18   15      0.30      0.00
   11   19   15      0.10      0.00
   12   20   15      1.62      0.00
   13   21   15     -1.91      0.00
   -5    1   15     -4.40      0.00
   -4    2   15     -0.74      0.00
   -3    3   15     -0.45      0.00
   -2    4   15     -0.27      0.00
   -1    5   15      2.73      0.00
    0    6   15     -0.54      0.00
    1    7   15      0.31      0.00
    2    8   15      0.46      0.00
    3    9   15     -1.35      0.00
    4   10   15     -1.50      0.00
    5   11   15      0.98      0.00
    6   12   15      0.60      0.00
    7   13   15     -1.43      0.00
    8   14   15     -1.58      0.00
    9   15   15      0.80      0.00
   10   16   15     -0.15      0.00
   11   17   15      0.25      0.00
   12   18   15      0.19      0.00
   13   19   15     -4.31      0.00
   14   20   15      1.73      0.00
   -3    1   15      2.51      0.00
   -2    2   15      0.70      0.00
   -1    3   15     -1.56      0.00
    0    4   15     -0.83      0.00
    1    5   15     -6.69      0.00
    2    6   15     -1.60      0.00
    3    7   15      2.91      0.00
    4    8   15      0.79      0.00
    5    9   15      1.22      0.00
    6   10   15      0.96      0.00
    7   11   15      0.03      0.00
    8   12   15      1.21      0.00
    9   13   15     -1.83      0.00
   10   14   15      1.43      0.00
   11   15   15     -1.35      0.00
   12   16   15      0.40      0.00
   13   17   15      0.21      0.00
   14   18   15      1.93      0.00
   15   19   15     -0.13      0.00
  -19   17   15     -0.51      0.00
   -1    1   15      2.79      0.00
    0    2   15     -0.03      0.00
    1    3   15      3.24      0.00
    2    4   15      3.79      0.00
    3    5   15      4.35      0.00
    4    6   15     -2.57      0.00
    5    7   15     -1.25      0.00
    6    8   15     -1.37      0.00
    7    9   15     -0.70      0.00
    8   10   15     -0.30      0.00
    9   11   15      1.59      0.00
   10   12   15     -2.11      0.00
   11   13   15      1.36      0.00
   12   14   15     -1.77      0.00
   13   15   15      1.18      0.00
   14   16   15      1.54      0.00
   15   17   15      0.43      0.00
    1    1   15     -7.17      0.00
    2    2   15     -1.00      0.00
    3    3   15     -0.14      0.00
    4    4   15     -2.01      0.00
    5    5   15      1.63      0.00
    6    6   15     -0.62      0.00
    7    7   15      2.67      0.00
    8    8   15      0.36      0.00
    9    9   15     -1.52      0.00
   10   10   15     -1.04      0.00
   11   11   15      0.42      0.00
   12   12   15      0.52      0.00
   13   13   15      1.36      0.00
   14   14   15     -1.60      0.00
   15   15   15     -1.30      0.00
   16   16   15     -1.25      0.00
    3    1   15      1.62      0.00
    4    2   15      1.25      0.00
    5    3   15     -0.16      0.00
    6    4   15     -2.40      0.00
    7    5   15     -2.14      0.00
    8    6   15      0.62      0.00
    9    7   15      0.81      0.00
   10    8   15      0.14      0.00
   11    9   15      0.14      0.00
   12   10   15      1.93      0.00
   13   11   15      0.42      0.00
   14   12   15     -1.12      0.00
   15   13   15     -0.66      0.00
   16   14   15      1.55      0.00
   17   15   15      2.70      0.00
    5    1   15      0.43      0.00
    6    2   15     -1.09      0.00
    7    3   15      0.63      0.00
    8    4   15      0.51      0.00
    9    5   15      2.45      0.00
   10    6   15     -1.61      0.00
   11    7   15     -1.17      0.00
   12    8   15      0.49      0.00
   13    9   15     -0.34      0.00
   14   10   15     -2.19      0.00
   15   11   15      2.40      0.00
   16   12   15     -1.18      0.00
   17   13   15      1.52      0.00
  -15   21   15     -5.40      0.00
    7    1   15     -0.02      0.00
    8    2   15      0.40      0.00
    9    3   15      1.88      0.00
   10    4   15      0.76      0.00
   11    5   15     -2.21      0.00
   12    6   15     -0.13      0.00
   13    7   15      1.71      0.00
   14    8   15     -1.40      0.00
   15    9   15      1.77      0.00
   16   10   15     -1.31      0.00
   17   11   15      0.44      0.00
   18   12   15     -0.08      0.00
  -14   22   15      3.95      0.00
    9    1   15      0.28      0.00
   10    2   15     -1.23      0.00
   11    3   15     -0.92      0.00
   12    4   15     -0.02      0.00
   13    5   15      0.18      0.00
   14    6   15     -0.02      0.00
   15    7   15      0.70      0.00
   16    8   15     -1.73      0.00
   17    9   15     -0.64      0.00
   18   10   15     -1.05      0.00
   19   11   15      1.61      0.00
  -13   23   15     -1.06      0.00
   11    1   15      0.46      0.00
   12    2   15     -2.12      0.00
   13    3   15      1.10      0.00
   14    4   15      2.37      0.00
   15    5   15      0.18      0.00
   16    6   15     -1.00      0.00
   17    7   15      2.01      0.00
   18    8   15      0.58      0.00
   19    9   15      1.27      0.00
   13    1   15      0.23      0.00
   14    2   15      1.10      0.00
   15    3   15     -2.97      0.00
   16    4   15      0.50      0.00
   17    5   15     -0.88      0.00
   18    6   15     -0.88      0.00
   19    7   15      0.87      0.00
   20    8   15     -0.78      0.00
   15    1   15      1.21      0.00
   16    2   15     -0.43      0.00
   17    3   15      1.19      0.00
   18    4   15     -0.72      0.00
   19    5   15     -0.10      0.00
   20    6   15     -0.13      0.00
   21    7   15      0.77      0.00
  -10   26   15      2.36      0.00
   17    1   15      0.39      0.00
   18    2   15     -1.15      0.00
   19    3   15      0.37      0.00
   20    4   15     -0.24      0.00
   21    5   15      0.79      0.00
   19    1   15      0.43      0.00
   20    2   15     -0.01      0.00
   21    3   15      0.76      0.00
   22    4   15      0.16      0.00
   21    1   15     -0.13      0.00
   22    2   15      1.29      0.00
   23    1   15     -1.09      0.00
   23    3   15     -1.31      0.00
   -1   29   15      1.41      0.00
   22    6   15      1.65      0.00
   23    5   15     -3.16      0.00
   20   10   15     -0.85      0.00
   21    9   15     -1.50      0.00
   22    8   15      0.95      0.00
   23    7   15     -4.97      0.00
    1   31   15     -1.06      0.00
   18   14   15     -2.96      0.00
   19   13   15     -0.65      0.00
   20   12   15     -0.13      0.00
   21   11   15      3.10      0.00
   22   10   15     -2.62      0.00
   23    9   15      0.07      0.00
   24    8   15      5.12      0.00
   16   18   15     -3.39      0.00
   17   17   15      1.60      0.00
   18   16   15     -2.15      0.00
   19   15   15     -1.69      0.00
   20   14   15      2.39      0.00
   21   13   15      0.08      0.00
   22   12   15     -1.29      0.00
   23   11   15     -0.22      0.00
   24   10   15      0.13      0.00
   10   26   15      1.24      0.00
   11   25   15      0.08      0.00
   12   24   15     -0.99      0.00
   13   23   15     -1.71      0.00
   14   22   15      1.88      0.00
   15   21   15      2.95      0.00
   16   20   15     -2.58      0.00
   17   19   15      2.20      0.00
   18   18   15      0.19      0.00
   19   17   15      1.28      0.00
   20   16   15      1.79      0.00
   21   15   15      0.99      0.00
   22   14   15     -1.53      0.00
   23   13   15     -2.75      0.00
   14   24   15      1.57      0.00
   15   23   15      0.96      0.00
   16   22   15     -4.61      0.00
   17   21   15      4.51      0.00
   18   20   15      1.82      0.00
  -19   17   16     -2.83      0.00
  -16   20   16     -0.62      0.00
  -20   14   16     -0.24      0.00
  -19   15   16     -0.63      0.00
  -18   16   16      2.03      0.00
  -17   17   16      1.44      0.00
  -16   18   16     -1.73      0.00
  -15   19   16      1.42      0.00
  -14   20   16      0.35      0.00
  -13   21   16     -1.51      0.00
  -12   22   16      0.54      0.00
  -11   23   16      0.65      0.00
  -10   24   16     -1.40      0.00
   -8   26   16     -1.74      0.00
   -7   27   16      2.15      0.00
  -23    9   16      0.67      0.00
  -21   11   16     -1.66      0.00
  -20   12   16      0.63      0.00
  -19   13   16     -0.71      0.00
  -18   14   16      0.61      0.00
  -17   15   16     -0.36      0.00
  -16   16   16      2.13      0.00
  -15   17   16     -0.72      0.00
  -14   18   16     -0.48      0.00
  -13   19   16      1.18      0.00
  -12   20   16      0.03      0.00
  -11   21   16      0.83      0.00
  -10   22   16     -1.19      0.00
   -9   23   16     -2.02      0.00
   -7   25   16     -3.03      0.00
   -6   26   16      0.15      0.00
   -5   27   16     -0.79      0.00
   -4   28   16     -2.42      0.00
  -23    7   16     -0.86      0.00
  -21    9   16     -0.31      0.00
  -20   10   16     -0.31      0.00
  -19   11   16      1.06      0.00
  -18   12   16     -0.38      0.00
  -17   13   16      1.26      0.00
  -16   14   16     -2.02      0.00
  -15   15   16     -0.67      0.00
  -14   16   16      0.16      0.00
  -13   17   16     -1.21      0.00
  -12   18   16     -3.11      0.00
  -11   19   16      1.46      0.00
  -10   20   16      1.49      0.00
   -9   21   16     -1.91      0.00
   -8   22   16      1.06      0.00
   -7   23   16     -0.37      0.00
   -6   24   16      0.34      0.00
   -5   25   16      0.44      0.00
   -4   26   16     -0.25      0.00
   -3   27   16      3.45      0.00
   -2   28   16      1.10      0.00
   -1   29   16     -2.59      0.00
  -23    5   16     -0.63      0.00
  -22    6   16     -0.79      0.00
  -21    7   16      1.98      0.00
  -20    8   16     -1.71      0.00
  -19    9   16      2.87      0.00
  -18   10   16      0.63      0.00
  -17   11   16     -2.00      0.00
  -16   12   16      1.11      0.00
  -15   13   16     -3.09      0.00
  -14   14   16      1.64      0.00
  -13   15   16      0.66      0.00
  -12   16   16      1.52      0.00
  -11   17   16      2.65      0.00
  -10   18   16     -0.75      0.00
   -9   19   16     -0.78      0.00
   -8   20   16      1.65      0.00
   -7   21   16     -1.31      0.00
   -6   22   16     -0.56      0.00
   -5   23   16     -0.35      0.00
   -4   24   16      1.90      0.00
   -3   25   16     -2.60      0.00
   -2   26   16      2.50      0.00
   -1   27   16     -3.67      0.00
    0   28   16      0.89      0.00
    1   29   16     -0.15      0.00
    2   30   16     -1.08      0.00
  -23    3   16     -0.86      0.00
  -22    4   16     -0.92      0.00
  -21    5   16      1.94      0.00
  -20    6   16     -0.93      0.00
  -19    7   16      0.92      0.00
  -18    8   16     -1.53      0.00
  -17    9   16     -2.24      0.00
  -16   10   16      0.72      0.00
  -15   11   16      1.37      0.00
  -14   12   16      1.88      0.00
  -13   13   16     -1.15      0.00
  -12   14   16      0.37      0.00
  -11   15   16     -0.78      0.00
  -10   16   16     -1.22      0.00
   -9   17   16     -1.12      0.00
   -8   18   16     -0.42      0.00
   -7   19   16      0.63      0.00
   -6   20   16     -1.04      0.00
   -5   21   16      1.27      0.00
   -4   22   16     -1.94      0.00
   -3   23   16      0.46      0.00
   -2   24   16     -1.43      0.00
   -1   25   16     -2.57      0.00
    0   26   16      2.62      0.00
    1   27   16      0.19      0.00
    2   28   16     -1.83      0.00
    3   29   16     -0.47      0.00
    4   30   16      1.62      0.00
  -23    1   16     -1.59      0.00
  -22    2   16      3.07      0.00
  -21    3   16     -0.37      0.00
  -20    4   16     -1.11      0.00
  -19    5   16      0.52      0.00
  -18    6   16     -1.17      0.00
  -17    7   16      2.82      0.00
  -16    8   16     -0.65      0.00
  -15    9   16     -0.31      0.00
  -14   10   16     -0.44      0.00
  -13   11   16      1.11      0.00
  -12   12   16     -1.08      0.00
  -11   13   16     -0.58      0.00
  -10   14   16     -0.19      0.00
   -9   15   16      1.54      0.00
   -8   16   16     -0.99      0.00
   -7   17   16      1.17      0.00
   -6   18   16      1.46      0.00
   -5   19   16      0.00      0.00
   -4   20   16      1.44      0.00
   -3   21   16      1.68      0.00
   -2   22   16     -1.66      0.00
   -1   23   16      3.04      0.00
    0   24   16      1.32      0.00
    1   25   16     -1.13      0.00
    2   26   16      0.69      0.00
    3   27   16      0.68      0.00
    4   28   16      0.13      0.00
    5   29   16      1.06      0.00
  -22    0   16      1.06      0.00
  -21    1   16     -0.83      0.00
  -20    2   16      0.26      0.00
  -19    3   16     -0.75      0.00
  -18    4   16      0.54      0.00
  -17    5   16     -0.50      0.00
  -16    6   16     -1.73      0.00
  -15    7   16      0.44      0.00
  -14    8   16     -0.15      0.00
  -13    9   16      2.66      0.00
  -12   10   16     -2.87      0.00
  -11   11   16      0.71      0.00
  -10   12   16      1.08      0.00
   -9   13   16     -1.01      0.00
   -8   14   16     -0.46      0.00
   -7   15   16      1.85      0.00
   -6   16   16     -0.95      0.00
   -5   17   16     -2.39      0.00
   -4   18   16     -0.23      0.00
   -3   19   16     -1.49      0.00
   -2   20   16     -2.36      0.00
   -1   21   16      1.54      0.00
    0   22   16     -0.34      0.00
    1   23   16     -1.18      0.00
    2   24   16      2.01      0.00
    3   25   16     -2.39      0.00
    4   26   16      0.74      0.00
    5   27   16      0.24      0.00
    6   28   16     -2.07      0.00
  -20    0   16      2.92      0.00
  -19    1   16     -3.47      0.00
  -18    2   16      0.78      0.00
  -17    3   16      2.06      0.00
  -16    4   16     -0.71      0.00
  -15    5   16      1.47      0.00
  -14    6   16      0.64      0.00
  -13    7   16     -0.08      0.00
  -12    8   16     -0.92      0.00
  -11    9   16     -0.88      0.00
  -10   10   16     -0.15      0.00
   -9   11   16      0.52      0.00
   -8   12   16      2.38      0.00
   -7   13   16     -2.72      0.00
   -6   14   16      2.61      0.00
   -5   15   16     -0.84      0.00
   -4   16   16     -1.33      0.00
   -3   17   16      3.92      0.00
   -2   18   16     -1.40      0.00
   -1   19   16      1.71      0.00
    0   20   16     -0.03      0.00
    1   21   16     -1.12      0.00
    2   22   16      0.26      0.00
    3   23   16     -0.91      0.00
    4   24   16      0.52      0.00
    5   25   16     -0.40      0.00
    6   26   16      0.00      0.00
  -18    0   16      0.73      0.00
  -17    1   16      1.68      0.00
  -16    2   16     -1.03      0.00
  -15    3   16     -0.92      0.00
  -14    4   16     -0.54      0.00
  -13    5   16     -1.33      0.00
  -12    6   16      0.75      0.00
  -11    7   16     -0.19      0.00
  -10    8   16      0.65      0.00
   -9    9   16     -0.73      0.00
   -8   10   16      0.82      0.00
   -7   11   16     -1.23      0.00
   -6   12   16      0.99      0.00
   -5   13   16     -1.21      0.00
   -4   14   16     -1.98      0.00
   -3   15   16      1.18      0.00
   -2   16   16      1.25      0.00
   -1   17   16     -1.00      0.00
    0   18   16      0.58      0.00
    1   19   16      1.20      0.00
    2   20   16     -2.38      0.00
    3   21   16      1.88      0.00
    4   22   16     -1.20      0.00
    5   23   16      0.10      0.00
    6   24   16      0.27      0.00
    7   25   16      0.94      0.00
    8   26   16     -1.49      0.00
  -16    0   16     -0.07      0.00
  -15    1   16     -0.39      0.00
  -14    2   16      1.49      0.00
  -13    3   16     -0.43      0.00
  -12    4   16      2.24      0.00
  -11    5   16     -3.93      0.00
  -10    6   16      3.15      0.00
   -9    7   16      0.19      0.00
   -8    8   16     -0.23      0.00
   -7    9   16      1.00      0.00
   -6   10   16     -1.54      0.00
   -5   11   16     -1.10      0.00
   -4   12   16      0.97      0.00
   -3   13   16      2.14      0.00
   -2   14   16      1.12      0.00
   -1   15   16     -1.37      0.00
    0   16   16     -1.21      0.00
    1   17   16     -0.96      0.00
    2   18   16     -0.58      0.00
    3   19   16      0.94      0.00
    4   20   16     -0.32      0.00
    5   21   16      1.35      0.00
    6   22   16     -1.14      0.00
    7   23   16      1.28      0.00
    8   24   16     -0.27      0.00
  -22    8   16     -0.85      0.00
  -14    0   16     -2.67      0.00
  -13    1   16      0.31      0.00
  -12    2   16      0.20      0.00
  -11    3   16     -0.33      0.00
  -10    4   16      1.75      0.00
   -9    5   16     -1.78      0.00
   -8    6   16      0.62      0.00
   -7    7   16     -0.56      0.00
   -6    8   16      0.08      0.00
   -5    9   16     -0.47      0.00
   -4   10   16      0.80      0.00
   -3   11   16      0.11      0.00
   -2   12   16      0.45      0.00
   -1   13   16     -3.16      0.00
    0   14   16      0.10      0.00
    1   15   16      1.11      0.00
    2   16   16      1.66      0.00
    3   17   16     -0.73      0.00
    4   18   16      1.84      0.00
    5   19   16     -0.28      0.00
    6   20   16      0.18      0.00
    7   21   16      0.80      0.00
    8   22   16     -1.25      0.00
    9   23   16     -1.02      0.00
  -12    0   16      0.20      0.00
  -11    1   16      0.56      0.00
  -10    2   16     -0.64      0.00
   -9    3   16      1.42      0.00
   -8    4   16     -1.95      0.00
   -7    5   16     -0.19      0.00
   -6    6   16     -0.65      0.00
   -5    7   16      0.64      0.00
   -4    8   16      0.39      0.00
   -3    9   16      2.43      0.00
   -2   10   16     -1.83      0.00
   -1   11   16      1.13      0.00
    0   12   16     -0.20      0.00
    1   13   16      1.21      0.00
    2   14   16     -1.79      0.00
    3   15   16     -0.72      0.00
    4   16   16      0.82      0.00
    5   17   16     -2.16      0.00
    6   18   16     -0.35      0.00
    7   19   16     -0.70      0.00
    8   20   16      0.60      0.00
    9   21   16     -1.65      0.00
   10   22   16      1.51      0.00
  -10    0   16     -0.26      0.00
   -9    1   16     -0.28      0.00
   -8    2   16     -0.64      0.00
   -7    3   16      0.75      0.00
   -6    4   16     -0.08      0.00
   -5    5   16      1.01      0.00
   -4    6   16     -1.02      0.00
   -3    7   16      0.88      0.00
   -2    8   16     -1.21      0.00
   -1    9   16     -4.01      0.00
    0   10   16      0.81      0.00
    1   11   16      1.59      0.00
    2   12   16     -0.25      0.00
    3   13   16     -0.37      0.00
    4   14   16      2.20      0.00
    5   15   16      1.67      0.00
    6   16   16     -0.79      0.00
    7   17   16     -0.42      0.00
    8   18   16     -0.66      0.00
    9   19   16      0.84      0.00
   10   20   16      1.52      0.00
   11   21   16     -1.70      0.00
   -8    0   16     -1.60      0.00
   -7    1   16      2.25      0.00
   -6    2   16      0.75      0.00
   -5    3   16      0.42      0.00
   -4    4   16      1.16      0.00
   -3    5   16      0.21      0.00
   -2    6   16     -0.19      0.00
   -1    7   16     -0.03      0.00
    0    8   16      0.71      0.00
    1    9   16      1.95      0.00
    2   10   16     -1.29      0.00
    3   11   16      0.20      0.00
    4   12   16      0.37      0.00
    5   13   16     -1.10      0.00
    6   14   16     -0.21      0.00
    7   15   16     -1.83      0.00
    8   16   16      1.84      0.00
    9   17   16      1.42      0.00
   10   18   16     -0.20      0.00
   11   19   16     -1.56      0.00
   12   20   16      1.63      0.00
   -6    0   16     -5.26      0.00
   -5    1   16      2.63      0.00
   -4    2   16     -4.89      0.00
   -3    3   16     -0.21      0.00
   -2    4   16     -1.53      0.00
   -1    5   16     -1.98      0.00
    0    6   16      3.80      0.00
    1    7   16     -0.65      0.00
    2    8   16      3.07      0.00
    3    9   16     -2.29      0.00
    4   10   16     -0.99      0.00
    5   11   16      0.75      0.00
    6   12   16     -2.19      0.00
    7   13   16     -0.26      0.00
    8   14   16      0.72      0.00
    9   15   16      0.15      0.00
   10   16   16      0.35      0.00
   11   17   16     -1.01      0.00
   12   18   16     -0.56      0.00
   13   19   16      0.75      0.00
   -4    0   16     -0.17      0.00
   -3    1   16      2.25      0.00
   -2    2   16      3.35      0.00
   -1    3   16     -0.06      0.00
    0    4   16     -0.14      0.00
    1    5   16     -1.28      0.00
    2    6   16     -1.15      0.00
    3    7   16     -2.43      0.00
    4    8   16     -0.46      0.00
    5    9   16      1.54      0.00
    6   10   16      0.50      0.00
    7   11   16      0.84      0.00
    8   12   16      0.91      0.00
    9   13   16      1.98      0.00
   10   14   16     -2.37      0.00
   11   15   16      0.82      0.00
   12   16   16      0.21      0.00
   13   17   16     -0.37      0.00
   14   18   16      1.43      0.00
   -2    0   16     -3.24      0.00
   -1    1   16     -0.70      0.00
    0    2   16      0.54      0.00
    1    3   16      1.93      0.00
    2    4   16      1.72      0.00
    3    5   16      1.62      0.00
    4    6   16     -0.93      0.00
    5    7   16     -0.78      0.00
    6    8   16      0.53      0.00
    7    9   16      0.24      0.00
    8   10   16      1.05      0.00
    9   11   16     -2.32      0.00
   10   12   16      0.88      0.00
   11   13   16     -2.58      0.00
   12   14   16      1.81      0.00
   13   15   16     -0.75      0.00
   14   16   16     -0.80      0.00
    0    0   16     -1.90      0.00
    1    1   16      1.17      0.00
    2    2   16     -5.42      0.00
    3    3   16     -1.33      0.00
    4    4   16     -0.75      0.00
    5    5   16      0.97      0.00
    6    6   16      0.93      0.00
    7    7   16      2.19      0.00
    8    8   16      0.23      0.00
    9    9   16     -1.75      0.00
   10   10   16     -0.82      0.00
   11   11   16      0.48      0.00
   12   12   16      0.67      0.00
   13   13   16      1.47      0.00
   14   14   16     -2.53      0.00
   15   15   16      2.82      0.00
    2    0   16      3.27      0.00
    3    1   16     -0.48      0.00
    4    2   16      2.21      0.00
    5    3   16      2.03      0.00
    6    4   16     -1.92      0.00
    7    5   16      0.85      0.00
    8    6   16     -1.61      0.00
    9    7   16     -3.21      0.00
   10    8   16      1.49      0.00
   11    9   16      0.56      0.00
   12   10   16      0.75      0.00
   13   11   16      1.43      0.00
   14   12   16     -2.87      0.00
   15   13   16      2.01      0.00
   16   14   16     -2.36      0.00
    4    0   16      1.45      0.00
    5    1   16      1.83      0.00
    6    2   16     -3.36      0.00
    7    3   16     -0.03      0.00
    8    4   16      2.31      0.00
    9    5   16     -2.85      0.00
   10    6   16      0.96      0.00
   11    7   16      1.15      0.00
   12    8   16     -0.83      0.00
   13    9   16      0.69      0.00
   14   10   16     -1.36      0.00
   15   11   16      1.51      0.00
   16   12   16     -0.24      0.00
    6    0   16     -3.38      0.00
    7    1   16     -1.30      0.00
    8    2   16      1.57      0.00
    9    3   16      0.36      0.00
   10    4   16     -0.66      0.00
   11    5   16      2.51      0.00
   12    6   16     -0.18      0.00
   13    7   16      0.53      0.00
   14    8   16     -1.20      0.00
   15    9   16     -1.10      0.00
   16   10   16     -0.49      0.00
   17   11   16      1.96      0.00
    8    0   16      0.85      0.00
    9    1   16      2.57      0.00
   10    2   16     -0.31      0.00
   11    3   16     -1.14      0.00
   12    4   16      1.23      0.00
   13    5   16     -1.06      0.00
   14    6   16     -0.76      0.00
   15    7   16      0.28      0.00
   16    8   16      1.15      0.00
   17    9   16     -0.90      0.00
   18   10   16      0.14      0.00
   10    0   16     -0.93      0.00
   11    1   16     -1.93      0.00
   12    2   16     -0.24      0.00
   13    3   16     -1.78      0.00
   14    4   16      1.37      0.00
   15    5   16      0.46      0.00
   16    6   16      0.91      0.00
   17    7   16     -0.65      0.00
   18    8   16      0.07      0.00
   12    0   16     -1.11      0.00
   13    1   16      2.98      0.00
   14    2   16      0.46      0.00
   15    3   16     -1.97      0.00
   16    4   16     -0.31      0.00
   17    5   16     -0.77      0.00
   18    6   16     -0.11      0.00
   19    7   16      2.19      0.00
   14    0   16     -1.48      0.00
   15    1   16      0.14      0.00
   16    2   16      2.72      0.00
   17    3   16     -1.53      0.00
   18    4   16      0.67      0.00
   19    5   16      0.34      0.00
   -9   25   16     -0.74      0.00
   -8   24   16      6.26      0.00
   16    0   16     -0.81      0.00
   17    1   16     -0.48      0.00
   18    2   16     -0.42      0.00
   19    3   16      1.29      0.00
   20    4   16      0.38      0.00
   18    0   16     -1.76      0.00
   19    1   16      1.43      0.00
   20    2   16     -0.50      0.00
   20    0   16     -0.42      0.00
   21    1   16     -0.52      0.00
   21    3   16     -1.47      0.00
   20    6   16     -1.20      0.00
   21    5   16     -0.84      0.00
   22    4   16      0.81      0.00
   19    9   16      2.13      0.00
   20    8   16     -3.18      0.00
   21    7   16      1.30      0.00
   22    6   16     -2.00      0.00
    0   30   16      3.32      0.00
   17   13   16      0.57      0.00
   18   12   16     -2.20      0.00
   19   11   16     -0.87      0.00
   20   10   16     -0.94      0.00
   21    9   16      1.19      0.00
   22    8   16      0.52      0.00
   15   17   16     -0.17      0.00
   16   16   16     -2.22      0.00
   17   15   16      2.57      0.00
   18   14   16     -0.06      0.00
   19   13   16      0.82      0.00
   20   12   16      0.11      0.00
   21   11   16      1.22      0.00
   22   10   16     -2.65      0.00
    7   27   16      1.87      0.00
    9   25   16      0.89      0.00
   10   24   16      0.19      0.00
   11   23   16      1.06      0.00
   12   22   16      1.20      0.00
   13   21   16     -1.14      0.00
   14   20   16     -1.36      0.00
   15   19   16      1.18      0.00
   16   18   16     -0.39      0.00
   17   17   16      2.05      0.00
   18   16   16      0.61      0.00
   19   15   16      0.23      0.00
   20   14   16     -1.62      0.00
   21   13   16      0.14      0.00
   22   12   16      1.29      0.00
    9   27   16     -1.04      0.00
   10   26   16     -2.12      0.00
   11   25   16      0.22      0.00
   12   24   16     -0.60      0.00
   13   23   16     -1.15      0.00
   14   22   16      0.73      0.00
   15   21   16     -1.52      0.00
   16   20   16      0.06      0.00
   17   19   16     -1.02      0.00
   18   18   16     -0.24      0.00
   19   17   16     -2.49      0.00
   20   16   16     -3.59      0.00
  -20   14   17      2.32      0.00
  -17   17   17      2.24      0.00
  -14   20   17     -0.01      0.00
  -19   13   17     -2.04      0.00
  -18   14   17      0.67      0.00
  -17   15   17      0.53      0.00
  -16   16   17     -2.56      0.00
  -15   17   17      1.57      0.00
  -14   18   17     -0.17      0.00
  -13   19   17     -0.32      0.00
  -12   20   17      2.17      0.00
  -11   21   17     -2.66      0.00
  -10   22   17      0.77      0.00
   -9   23   17      0.67      0.00
   -8   24   17     -2.98      0.00
   -7   25   17      5.64      0.00
  -21    9   17     -1.04      0.00
  -20   10   17     -2.00      0.00
  -19   11   17      1.04      0.00
  -18   12   17      0.00      0.00
  -17   13   17      2.16      0.00
  -16   14   17     -0.42      0.00
  -15   15   17     -1.73      0.00
  -14   16   17      1.57      0.00
  -13   17   17     -0.28      0.00
  -12   18   17     -0.02      0.00
  -11   19   17     -2.87      0.00
  -10   20   17      1.15      0.00
   -9   21   17      1.24      0.00
   -8   22   17     -1.11      0.00
   -7   23   17      0.97      0.00
   -6   24   17      0.73      0.00
   -5   25   17     -2.09      0.00
   -4   26   17      4.10      0.00
   -3   27   17      0.08      0.00
  -20    8   17      1.11      0.00
  -19    9   17      0.54      0.00
  -18   10   17      1.77      0.00
  -17   11   17      0.06      0.00
  -16   12   17     -3.29      0.00
  -15   13   17      2.48      0.00
  -14   14   17     -1.19      0.00
  -13   15   17     -0.47      0.00
  -12   16   17      0.56      0.00
  -11   17   17      0.92      0.00
  -10   18   17      1.93      0.00
   -9   19   17     -0.96      0.00
   -8   20   17     -1.73      0.00
   -7   21   17      2.60      0.00
   -6   22   17     -1.83      0.00
   -5   23   17     -1.75      0.00
   -4   24   17      0.94      0.00
   -3   25   17     -2.87      0.00
   -2   26   17      0.81      0.00
   -1   27   17     -0.67      0.00
    0   28   17     -0.81      0.00
    1   29   17     -0.72      0.00
  -22    4   17      1.74      0.00
  -21    5   17     -0.75      0.00
  -20    6   17     -0.53      0.00
  -19    7   17      2.77      0.00
  -18    8   17     -1.04      0.00
  -17    9   17     -1.56      0.00
  -16   10   17      0.19      0.00
  -15   11   17      1.71      0.00
  -14   12   17     -0.93      0.00
  -13   13   17      1.40      0.00
  -12   14   17     -0.27      0.00
  -11   15   17     -0.91      0.00
  -10   16   17     -0.05      0.00
   -9   17   17     -1.15      0.00
   -8   18   17     -0.29      0.00
   -7   19   17      0.73      0.00
   -6   20   17      0.01      0.00
   -5   21   17      0.49      0.00
   -4   22   17      0.39      0.00
   -3   23   17     -2.56      0.00
   -2   24   17      3.93      0.00
   -1   25   17     -4.33      0.00
    0   26   17      1.73      0.00
    1   27   17      0.30      0.00
    2   28   17      0.11      0.00
  -22    2   17      1.91      0.00
  -21    3   17      0.54      0.00
  -20    4   17     -0.92      0.00
  -19    5   17      1.87      0.00
  -18    6   17     -2.17      0.00
  -17    7   17     -0.09      0.00
  -16    8   17      0.73      0.00
  -15    9   17      1.10      0.00
  -14   10   17     -3.38      0.00
  -13   11   17      2.28      0.00
  -12   12   17     -0.73      0.00
  -11   13   17     -1.92      0.00
  -10   14   17      1.54      0.00
   -9   15   17     -0.33      0.00
   -8   16   17      1.01      0.00
   -7   17   17      0.02      0.00
   -6   18   17      0.79      0.00
   -5   19   17     -1.22      0.00
   -4   20   17      0.61      0.00
   -3   21   17      2.49      0.00
   -2   22   17      1.61      0.00
   -1   23   17     -1.71      0.00
    0   24   17      4.39      0.00
    1   25   17     -1.20      0.00
    2   26   17      1.02      0.00
    3   27   17     -1.84      0.00
  -21    1   17     -1.48      0.00
  -20    2   17      0.32      0.00
  -19    3   17     -1.52      0.00
  -18    4   17      0.06      0.00
  -17    5   17      0.41      0.00
  -16    6   17     -1.47      0.00
  -15    7   17      1.22      0.00
  -14    8   17     -2.35      0.00
  -13    9   17      3.17      0.00
  -12   10   17     -1.62      0.00
  -11   11   17      0.07      0.00
  -10   12   17      2.60      0.00
   -9   13   17      0.99      0.00
   -8   14   17     -1.82      0.00
   -7   15   17     -0.65      0.00
   -6   16   17      1.22      0.00
   -5   17   17     -1.01      0.00
   -4   18   17      0.01      0.00
   -3   19   17     -1.28      0.00
   -2   20   17     -2.60      0.00
   -1   21   17     -1.01      0.00
    0   22   17     -0.25      0.00
    1   23   17     -0.18      0.00
    2   24   17     -2.97      0.00
    3   25   17     -0.18      0.00
    4   26   17      2.85      0.00
  -19    1   17     -0.24      0.00
  -18    2   17      1.27      0.00
  -17    3   17     -0.01      0.00
  -16    4   17      1.82      0.00
  -15    5   17     -0.39      0.00
  -14    6   17     -0.43      0.00
  -13    7   17      2.76      0.00
  -12    8   17     -2.49      0.00
  -11    9   17      0.47      0.00
  -10   10   17      0.01      0.00
   -9   11   17     -2.17      0.00
   -8   12   17     -0.91      0.00
   -7   13   17      1.23      0.00
   -6   14   17     -1.31      0.00
   -5   15   17      0.77      0.00
   -4   16   17     -0.04      0.00
   -3   17   17     -0.25      0.00
   -2   18   17      2.65      0.00
   -1   19   17     -1.32      0.00
    0   20   17      2.48      0.00
    1   21   17      0.46      0.00
    2   22   17     -1.17      0.00
    3   23   17      1.09      0.00
    4   24   17      2.21      0.00
    5   25   17     -1.83      0.00
  -17    1   17     -0.67      0.00
  -16    2   17     -0.12      0.00
  -15    3   17     -1.12      0.00
  -14    4   17     -1.69      0.00
  -13    5   17      1.18      0.00
  -12    6   17     -0.26      0.00
  -11    7   17     -0.25      0.00
  -10    8   17      0.96      0.00
   -9    9   17     -0.45      0.00
   -8   10   17     -0.05      0.00
   -7   11   17      1.25      0.00
   -6   12   17      0.96      0.00
   -5   13   17      0.03      0.00
   -4   14   17      0.59      0.00
   -3   15   17     -0.69      0.00
   -2   16   17     -0.08      0.00
   -1   17   17     -1.04      0.00
    0   18   17      1.88      0.00
    1   19   17     -2.10      0.00
    2   20   17      1.55      0.00
    3   21   17     -1.11      0.00
    4   22   17      0.38      0.00
    5   23   17     -2.16      0.00
    6   24   17      0.87      0.00
  -15    1   17      0.57      0.00
  -14    2   17     -1.15      0.00
  -13    3   17      4.55      0.00
  -12    4   17     -2.20      0.00
  -11    5   17      1.51      0.00
  -10    6   17     -2.99      0.00
   -9    7   17      0.37      0.00
   -8    8   17      2.41      0.00
   -7    9   17     -0.18      0.00
   -6   10   17     -0.53      0.00
   -5   11   17     -1.69      0.00
   -4   12   17     -0.92      0.00
   -3   13   17      1.27      0.00
   -2   14   17     -0.19      0.00
   -1   15   17     -0.19      0.00
    0   16   17      1.00      0.00
    1   17   17     -1.26      0.00
    2   18   17      0.05      0.00
    3   19   17      0.21      0.00
    4   20   17     -0.91      0.00
    5   21   17      0.95      0.00
    6   22   17      1.27      0.00
    7   23   17     -1.66      0.00
  -21    7   17     -1.63      0.00
  -13    1   17     -0.03      0.00
  -12    2   17     -2.39      0.00
  -11    3   17      1.43      0.00
  -10    4   17     -2.09      0.00
   -9    5   17      1.67      0.00
   -8    6   17      0.42      0.00
   -7    7   17     -1.30      0.00
   -6    8   17      0.29      0.00
   -5    9   17     -1.11      0.00
   -4   10   17      2.45      0.00
   -3   11   17     -0.70      0.00
   -2   12   17     -1.59      0.00
   -1   13   17      1.20      0.00
    0   14   17     -0.40      0.00
    1   15   17     -0.67      0.00
    2   16   17      1.95      0.00
    3   17   17     -1.24      0.00
    4   18   17      0.89      0.00
    5   19   17     -0.68      0.00
    6   20   17      0.24      0.00
    7   21   17      1.37      0.00
    8   22   17      1.46      0.00
  -11    1   17      0.57      0.00
  -10    2   17     -0.55      0.00
   -9    3   17      1.20      0.00
   -8    4   17      1.73      0.00
   -7    5   17     -1.74      0.00
   -6    6   17      0.06      0.00
   -5    7   17     -1.77      0.00
   -4    8   17      1.36      0.00
   -3    9   17     -0.43      0.00
   -2   10   17      1.32      0.00
   -1   11   17      0.73      0.00
    0   12   17      0.94      0.00
    1   13   17     -0.27      0.00
    2   14   17     -0.19      0.00
    3   15   17     -3.44      0.00
    4   16   17      2.54      0.00
    5   17   17     -1.49      0.00
    6   18   17      0.53      0.00
    7   19   17     -1.03      0.00
    8   20   17     -0.12      0.00
    9   21   17     -1.20      0.00
   -9    1   17     -0.31      0.00
   -8    2   17     -0.32      0.00
   -7    3   17     -0.98      0.00
   -6    4   17     -0.65      0.00
   -5    5   17      1.73      0.00
   -4    6   17      1.30      0.00
   -3    7   17     -0.90      0.00
   -2    8   17     -1.18      0.00
   -1    9   17      0.94      0.00
    0   10   17     -2.28      0.00
    1   11   17     -0.73      0.00
    2   12   17     -1.29      0.00
    3   13   17      2.33      0.00
    4   14   17      1.40      0.00
    5   15   17     -0.22      0.00
    6   16   17      2.04      0.00
    7   17   17     -1.16      0.00
    8   18   17      1.14      0.00
    9   19   17     -2.26      0.00
   10   20   17      1.20      0.00
   -7    1   17     -0.49      0.00
   -6    2   17     -0.49      0.00
   -5    3   17      3.29      0.00
   -4    4   17     -1.08      0.00
   -3    5   17     -0.49      0.00
   -2    6   17      1.93      0.00
   -1    7   17     -1.40      0.00
    0    8   17      2.56      0.00
    1    9   17     -2.27      0.00
    2   10   17      0.90      0.00
    3   11   17     -1.20      0.00
    4   12   17      0.91      0.00
    5   13   17      1.75      0.00
    6   14   17     -3.12      0.00
    7   15   17     -0.46      0.00
    8   16   17     -0.93      0.00
    9   17   17      3.07      0.00
   10   18   17     -1.18      0.00
   11   19   17      0.08      0.00
   -5    1   17     -0.05      0.00
   -4    2   17     -1.70      0.00
   -3    3   17     -2.89      0.00
   -2    4   17      0.72      0.00
   -1    5   17     -1.86      0.00
    0    6   17     -0.68      0.00
    1    7   17      1.17      0.00
    2    8   17      0.84      0.00
    3    9   17      1.95      0.00
    4   10   17      1.54      0.00
    5   11   17     -0.20      0.00
    6   12   17     -2.28      0.00
    7   13   17     -2.42      0.00
    8   14   17      3.15      0.00
    9   15   17      1.16      0.00
   10   16   17     -2.67      0.00
   11   17   17     -0.19      0.00
   12   18   17      1.60      0.00
   -3    1   17      2.50      0.00
   -2    2   17      1.44      0.00
   -1    3   17      3.08      0.00
    0    4   17     -1.95      0.00
    1    5   17      0.27      0.00
    2    6   17      0.26      0.00
    3    7   17     -2.08      0.00
    4    8   17     -0.90      0.00
    5    9   17     -0.96      0.00
    6   10   17     -1.42      0.00
    7   11   17      2.54      0.00
    8   12   17      0.30      0.00
    9   13   17      0.17      0.00
   10   14   17     -1.59      0.00
   11   15   17      0.31      0.00
   12   16   17      2.25      0.00
   -1    1   17     -3.87      0.00
    0    2   17     -0.80      0.00
    1    3   17      2.50      0.00
    2    4   17      0.91      0.00
    3    5   17      1.53      0.00
    4    6   17     -0.83      0.00
    5    7   17      0.44      0.00
    6    8   17      0.76      0.00
    7    9   17     -1.05      0.00
    8   10   17     -0.05      0.00
    9   11   17      1.03      0.00
   10   12   17     -0.85      0.00
   11   13   17      2.66      0.00
   12   14   17     -3.33      0.00
   13   15   17      1.45      0.00
    1    1   17     -0.33      0.00
    2    2   17     -0.18      0.00
    3    3   17     -0.75      0.00
    4    4   17     -3.82      0.00
    5    5   17      0.07      0.00
    6    6   17      1.48      0.00
    7    7   17     -0.48      0.00
    8    8   17      1.98      0.00
    9    9   17     -1.30      0.00
   10   10   17      1.65      0.00
   11   11   17     -0.03      0.00
   12   12   17     -1.00      0.00
   13   13   17     -0.75      0.00
   14   14   17      0.92      0.00
    3    1   17      1.59      0.00
    4    2   17     -1.23      0.00
    5    3   17     -0.10      0.00
    6    4   17      2.24      0.00
    7    5   17      0.48      0.00
    8    6   17     -0.05      0.00
    9    7   17     -1.62      0.00
   10    8   17     -0.37      0.00
   11    9   17     -0.46      0.00
   12   10   17     -1.90      0.00
   13   11   17      1.25      0.00
   14   12   17      0.47      0.00
   15   13   17      0.62      0.00
    5    1   17     -0.08      0.00
    6    2   17      1.69      0.00
    7    3   17      2.05      0.00
    8    4   17     -2.60      0.00
    9    5   17      0.51      0.00
   10    6   17     -0.83      0.00
   11    7   17     -0.49      0.00
   12    8   17      2.44      0.00
   13    9   17     -0.98      0.00
   14   10   17      1.14      0.00
   15   11   17     -0.57      0.00
    7    1   17      0.31      0.00
    8    2   17     -2.15      0.00
    9    3   17     -1.51      0.00
   10    4   17      0.55      0.00
   11    5   17      0.27      0.00
   12    6   17      2.14      0.00
   13    7   17     -0.76      0.00
   14    8   17     -0.09      0.00
   15    9   17     -3.15      0.00
   16   10   17      0.88      0.00
    9    1   17     -0.59      0.00
   10    2   17      0.81      0.00
   11    3   17      3.18      0.00
   12    4   17     -1.16      0.00
   13    5   17     -0.37      0.00
   14    6   17      0.67      0.00
   15    7   17     -1.24      0.00
   16    8   17      3.74      0.00
   11    1   17     -1.03      0.00
   12    2   17     -1.68      0.00
   13    3   17      0.35      0.00
   14    4   17     -1.38      0.00
   15    5   17      0.51      0.00
   16    6   17     -0.43      0.00
   17    7   17      0.37      0.00
   13    1   17      0.72      0.00
   14    2   17      0.84      0.00
   15    3   17      0.52      0.00
   16    4   17     -1.49      0.00
   17    5   17     -0.83      0.00
   15    1   17      0.31      0.00
   16    2   17     -0.68      0.00
   17    3   17      0.95      0.00
   18    4   17     -0.11      0.00
   17    1   17     -1.03      0.00
   18    2   17      1.32      0.00
   19    1   17     -0.95      0.00
   19    3   17      1.59      0.00
   18    6   17      0.50      0.00
   19    5   17      1.00      0.00
   20    4   17     -0.48      0.00
   17    9   17      0.48      0.00
   18    8   17     -0.61      0.00
   19    7   17      0.38      0.00
   20    6   17     -1.63      0.00
   16   12   17      0.73      0.00
   17   11   17      0.50      0.00
   18   10   17     -2.98      0.00
   19    9   17     -0.41      0.00
   20    8   17     -0.59      0.00
   13   17   17      0.36      0.00
   14   16   17     -1.89      0.00
   15   15   17     -1.18      0.00
   16   14   17      0.16      0.00
   17   13   17      0.14      0.00
   18   12   17      0.31      0.00
   19   11   17      1.29      0.00
   20   10   17      0.47      0.00
    3   29   17     -0.41      0.00
    4   28   17      2.75      0.00
    5   27   17     -1.90      0.00
    6   26   17     -0.37      0.00
    7   25   17     -1.36      0.00
    8   24   17      3.89      0.00
    9   23   17     -5.51      0.00
   10   22   17      2.46      0.00
   11   21   17     -0.32      0.00
   12   20   17      1.31      0.00
   13   19   17     -2.54      0.00
   14   18   17     -2.77      0.00
   15   17   17      1.09      0.00
   16   16   17      2.96      0.00
   17   15   17     -1.48      0.00
   18   14   17     -1.29      0.00
   19   13   17     -1.58      0.00
   20   12   17     -0.06      0.00
    7   27   17      2.75      0.00
    8   26   17      0.34      0.00
    9   25   17     -1.28      0.00
   10   24   17      0.10      0.00
   11   23   17     -0.35      0.00
   12   22   17      0.27      0.00
   13   21   17     -0.64      0.00
   14   20   17      1.85      0.00
   15   19   17      1.89      0.00
   16   18   17     -1.26      0.00
   17   17   17      0.18      0.00
   18   16   17     -1.58      0.00
   19   15   17      2.23      0.00
   14   22   17     -1.04      0.00
   15   21   17     -1.88      0.00
   16   20   17      2.75      0.00
  -18   14   18     -1.52      0.00
  -17   15   18     -0.89      0.00
  -14   18   18     -3.03      0.00
  -13   19   18      1.87      0.00
  -12   20   18      0.09      0.00
  -10   22   18     -3.79      0.00
   -9   23   18      2.22      0.00
  -20   10   18     -2.26      0.00
  -18   12   18      0.58      0.00
  -17   13   18     -2.62      0.00
  -16   14   18      3.05      0.00
  -15   15   18     -0.14      0.00
  -14   16   18     -1.28      0.00
  -13   17   18      3.00      0.00
  -11   19   18      0.12      0.00
  -10   20   18     -0.01      0.00
   -9   21   18     -0.28      0.00
   -8   22   18     -0.87      0.00
   -7   23   18      0.65      0.00
   -5   25   18      0.99      0.00
  -19    9   18      2.84      0.00
  -18   10   18     -1.18      0.00
  -17   11   18      1.35      0.00
  -16   12   18      0.19      0.00
  -15   13   18     -2.55      0.00
  -14   14   18      1.06      0.00
  -13   15   18      0.26      0.00
  -12   16   18     -1.13      0.00
  -11   17   18      0.95      0.00
  -10   18   18     -0.33      0.00
   -9   19   18     -2.21      0.00
   -8   20   18      3.17      0.00
   -7   21   18     -1.26      0.00
   -6   22   18      0.22      0.00
   -5   23   18     -1.75      0.00
   -4   24   18      0.85      0.00
   -3   25   18     -1.56      0.00
   -2   26   18     -3.27      0.00
  -19    7   18      0.47      0.00
  -18    8   18      3.30      0.00
  -17    9   18     -2.48      0.00
  -16   10   18     -0.06      0.00
  -15   11   18      1.36      0.00
  -14   12   18      0.56      0.00
  -13   13   18      0.16      0.00
  -12   14   18      0.03      0.00
  -11   15   18      0.79      0.00
  -10   16   18     -0.91      0.00
   -9   17   18     -2.24      0.00
   -8   18   18      4.00      0.00
   -7   19   18     -1.08      0.00
   -6   20   18     -0.44      0.00
   -5   21   18      0.55      0.00
   -4   22   18      2.35      0.00
   -3   23   18     -1.74      0.00
   -2   24   18      0.65      0.00
   -1   25   18     -0.39      0.00
    0   26   18      1.41      0.00
  -21    3   18     -1.27      0.00
  -19    5   18      0.60      0.00
  -18    6   18      1.20      0.00
  -17    7   18     -4.88      0.00
  -16    8   18      1.96      0.00
  -15    9   18     -1.91      0.00
  -14   10   18      1.62      0.00
  -13   11   18     -0.11      0.00
  -12   12   18     -1.35      0.00
  -11   13   18     -0.62      0.00
  -10   14   18     -0.49      0.00
   -9   15   18     -1.04      0.00
   -8   16   18      3.61      0.00
   -7   17   18     -2.52      0.00
   -6   18   18     -0.41      0.00
   -5   19   18      1.69      0.00
   -4   20   18     -1.95      0.00
   -3   21   18      0.32      0.00
   -2   22   18      1.94      0.00
   -1   23   18      0.32      0.00
    0   24   18      2.91      0.00
    1   25   18     -0.22      0.00
    2   26   18     -2.10      0.00
  -21    1   18     -1.88      0.00
  -19    3   18     -0.71      0.00
  -18    4   18     -2.00      0.00
  -17    5   18     -0.38      0.00
  -16    6   18      2.28      0.00
  -15    7   18     -2.46      0.00
  -14    8   18      2.94      0.00
  -13    9   18     -1.13      0.00
  -12   10   18     -2.24      0.00
  -11   11   18      0.30      0.00
  -10   12   18      3.59      0.00
   -9   13   18      0.13      0.00
   -8   14   18      0.86      0.00
   -7   15   18     -0.51      0.00
   -6   16   18     -0.70      0.00
   -5   17   18      0.69      0.00
   -4   18   18     -0.56      0.00
   -3   19   18     -0.18      0.00
   -2   20   18     -1.82      0.00
   -1   21   18     -1.34      0.00
    0   22   18      0.19      0.00
    1   23   18     -3.76      0.00
    2   24   18      0.09      0.00
    3   25   18     -1.61      0.00
  -20    0   18     -0.58      0.00
  -19    1   18     -1.17      0.00
  -18    2   18      1.92      0.00
  -17    3   18      0.85      0.00
  -16    4   18      0.38      0.00
  -15    5   18     -0.32      0.00
  -14    6   18      2.40      0.00
  -13    7   18     -0.34      0.00
  -12    8   18     -0.42      0.00
  -11    9   18     -0.60      0.00
  -10   10   18      2.11      0.00
   -9   11   18     -2.17      0.00
   -8   12   18     -2.05      0.00
   -7   13   18     -0.09      0.00
   -6   14   18     -0.48      0.00
   -5   15   18     -1.09      0.00
   -4   16   18      0.22      0.00
   -3   17   18      0.06      0.00
   -2   18   18      1.18      0.00
   -1   19   18      1.56      0.00
    0   20   18      0.62      0.00
    1   21   18      0.21      0.00
    2   22   18      0.78      0.00
    3   23   18      2.62      0.00
    4   24   18      0.71      0.00
  -20    2   18      2.32      0.00
  -18    0   18      1.85      0.00
  -17    1   18     -0.49      0.00
  -16    2   18     -1.44      0.00
  -15    3   18     -0.54      0.00
  -14    4   18     -0.68      0.00
  -13    5   18     -1.51      0.00
  -12    6   18     -0.79      0.00
  -11    7   18      0.73      0.00
  -10    8   18      1.25      0.00
   -9    9   18     -0.35      0.00
   -8   10   18      1.57      0.00
   -7   11   18     -0.90      0.00
   -6   12   18      0.86      0.00
   -5   13   18      1.50      0.00
   -4   14   18      1.86      0.00
   -3   15   18      1.28      0.00
   -2   16   18     -1.31      0.00
   -1   17   18     -0.69      0.00
    0   18   18     -0.38      0.00
    1   19   18      0.06      0.00
    2   20   18     -1.48      0.00
    3   21   18      1.59      0.00
    4   22   18     -2.21      0.00
    5   23   18     -1.52      0.00
  -16    0   18     -0.39      0.00
  -15    1   18     -0.46      0.00
  -14    2   18      1.15      0.00
  -13    3   18      1.34      0.00
  -12    4   18      1.98      0.00
  -11    5   18     -1.61      0.00
  -10    6   18      0.06      0.00
   -9    7   18      0.34      0.00
   -8    8   18     -0.74      0.00
   -7    9   18     -1.33      0.00
   -6   10   18      0.47      0.00
   -5   11   18     -0.16      0.00
   -4   12   18     -0.06      0.00
   -3   13   18     -3.70      0.00
   -2   14   18      1.03      0.00
   -1   15   18     -1.47      0.00
    0   16   18      0.71      0.00
    1   17   18      1.25      0.00
    2   18   18      0.44      0.00
    3   19   18     -1.57      0.00
    4   20   18      0.50      0.00
    5   21   18      0.77      0.00
    6   22   18      1.27      0.00
  -20    6   18      0.80      0.00
  -14    0   18      0.77      0.00
  -13    1   18      0.55      0.00
  -12    2   18     -2.15      0.00
  -11    3   18     -0.04      0.00
  -10    4   18     -0.22      0.00
   -9    5   18      0.66      0.00
   -8    6   18     -0.41      0.00
   -7    7   18     -0.95      0.00
   -6    8   18      0.51      0.00
   -5    9   18      1.86      0.00
   -4   10   18     -1.20      0.00
   -3   11   18      1.39      0.00
   -2   12   18      1.05      0.00
   -1   13   18     -2.20      0.00
    0   14   18      2.36      0.00
    1   15   18      0.21      0.00
    2   16   18     -1.64      0.00
    3   17   18      0.60      0.00
    4   18   18      0.47      0.00
    5   19   18     -0.02      0.00
    6   20   18     -0.57      0.00
    7   21   18     -0.58      0.00
  -12    0   18     -0.78      0.00
  -11    1   18      0.44      0.00
  -10    2   18     -0.38      0.00
   -9    3   18      0.39      0.00
   -8    4   18      0.33      0.00
   -7    5   18      0.35      0.00
   -6    6   18      0.98      0.00
   -5    7   18     -1.15      0.00
   -4    8   18     -0.16      0.00
   -3    9   18     -0.50      0.00
   -2   10   18      0.06      0.00
   -1   11   18     -0.44      0.00
    0   12   18      1.21      0.00
    1   13   18      0.61      0.00
    2   14   18     -1.32      0.00
    3   15   18      0.60      0.00
    4   16   18     -0.97      0.00
    5   17   18     -1.65      0.00
    6   18   18      1.88      0.00
    7   19   18      0.39      0.00
    8   20   18     -2.03      0.00
  -10    0   18      0.89      0.00
   -9    1   18      0.04      0.00
   -8    2   18     -0.89      0.00
   -7    3   18      0.47      0.00
   -6    4   18      0.41      0.00
   -5    5   18     -1.44      0.00
   -4    6   18      2.36      0.00
   -3    7   18     -0.22      0.00
   -2    8   18     -1.26      0.00
   -1    9   18     -2.16      0.00
    0   10   18      2.60      0.00
    1   11   18     -1.40      0.00
    2   12   18     -0.33      0.00
    3   13   18     -0.45      0.00
    4   14   18      2.21      0.00
    5   15   18     -0.79      0.00
    6   16   18      1.25      0.00
    7   17   18      0.79      0.00
    8   18   18     -1.54      0.00
    9   19   18      1.54      0.00
   -8    0   18      0.30      0.00
   -7    1   18      0.16      0.00
   -6    2   18      0.01      0.00
   -5    3   18     -1.56      0.00
   -4    4   18     -0.02      0.00
   -3    5   18     -0.66      0.00
   -2    6   18      1.05      0.00
   -1    7   18      2.88      0.00
    0    8   18     -0.05      0.00
    1    9   18      1.11      0.00
    2   10   18     -1.26      0.00
    3   11   18     -0.07      0.00
    4   12   18     -2.20      0.00
    5   13   18      0.63      0.00
    6   14   18      0.56      0.00
    7   15   18     -0.59      0.00
    8   16   18      0.59      0.00
    9   17   18     -1.98      0.00
   -6    0   18      0.29      0.00
   -5    1   18     -0.85      0.00
   -4    2   18      0.98      0.00
   -3    3   18      0.76      0.00
   -2    4   18     -1.63      0.00
   -1    5   18     -1.07      0.00
    0    6   18     -1.84      0.00
    1    7   18      0.78      0.00
    2    8   18     -0.78      0.00
    3    9   18     -0.49      0.00
    4   10   18      2.82      0.00
    5   11   18      2.46      0.00
    6   12   18     -1.92      0.00
    7   13   18      0.00      0.00
    8   14   18     -1.66      0.00
    9   15   18      1.96      0.00
   10   16   18     -1.11      0.00
   -4    0   18      0.91      0.00
   -3    1   18      1.20      0.00
   -2    2   18      1.91      0.00
   -1    3   18     -1.01      0.00
    0    4   18      2.32      0.00
    1    5   18     -0.23      0.00
    2    6   18     -1.84      0.00
    3    7   18     -0.53      0.00
    4    8   18     -0.22      0.00
    5    9   18     -0.86      0.00
    6   10   18     -0.90      0.00
    7   11   18      0.05      0.00
    8   12   18      1.72      0.00
    9   13   18     -1.00      0.00
   10   14   18     -1.12      0.00
   11   15   18      0.47      0.00
   -2    0   18     -4.40      0.00
   -1    1   18     -1.35      0.00
    0    2   18     -1.70      0.00
    1    3   18      1.41      0.00
    2    4   18      1.58      0.00
    3    5   18     -1.21      0.00
    4    6   18      3.86      0.00
    5    7   18     -0.08      0.00
    6    8   18      0.74      0.00
    7    9   18      0.94      0.00
    8   10   18     -4.43      0.00
    9   11   18      2.43      0.00
   10   12   18      0.63      0.00
   11   13   18      1.24      0.00
   12   14   18      0.43      0.00
    0    0   18      4.71      0.00
    1    1   18      0.73      0.00
    2    2   18     -1.09      0.00
    3    3   18     -1.10      0.00
    4    4   18      0.18      0.00
    5    5   18     -1.22      0.00
    6    6   18     -0.85      0.00
    7    7   18     -1.17      0.00
    8    8   18     -0.91      0.00
    9    9   18      1.97      0.00
   10   10   18      1.40      0.00
   11   11   18     -0.99      0.00
   12   12   18     -1.51      0.00
    2    0   18     -2.66      0.00
    3    1   18      0.89      0.00
    4    2   18     -0.45      0.00
    5    3   18      2.28      0.00
    6    4   18     -2.56      0.00
    7    5   18      1.26      0.00
    8    6   18      0.50      0.00
    9    7   18      0.46      0.00
   10    8   18      1.02      0.00
   11    9   18     -2.70      0.00
   12   10   18     -0.29      0.00
   13   11   18     -0.97      0.00
    4    0   18      1.55      0.00
    5    1   18     -1.75      0.00
    6    2   18     -0.02      0.00
    7    3   18      1.55      0.00
    8    4   18      1.02      0.00
    9    5   18     -1.66      0.00
   10    6   18      0.13      0.00
   11    7   18      0.53      0.00
   12    8   18      1.63      0.00
   13    9   18     -0.09      0.00
   14   10   18      0.19      0.00
    6    0   18      0.03      0.00
    7    1   18      0.67      0.00
    8    2   18     -0.27      0.00
    9    3   18     -1.76      0.00
   10    4   18     -0.07      0.00
   11    5   18      2.82      0.00
   12    6   18     -1.48      0.00
   13    7   18     -2.87      0.00
   14    8   18      0.38      0.00
    8    0   18      1.41      0.00
    9    1   18     -1.61      0.00
   10    2   18      1.83      0.00
   11    3   18     -0.02      0.00
   12    4   18     -0.24      0.00
   13    5   18     -0.29      0.00
   14    6   18     -0.51      0.00
   15    7   18      3.09      0.00
   10    0   18     -0.20      0.00
   11    1   18      0.45      0.00
   12    2   18     -3.64      0.00
   13    3   18     -0.05      0.00
   14    4   18      0.72      0.00
   15    5   18     -0.65      0.00
   12    0   18      1.70      0.00
   13    1   18      0.28      0.00
   14    2   18      2.45      0.00
   15    3   18     -0.08      0.00
   16    4   18      0.88      0.00
   14    0   18      4.35      0.00
   15    1   18     -3.85      0.00
   16    2   18      0.27      0.00
   16    0   18     -1.46      0.00
   17    1   18      0.59      0.00
   17    3   18     -1.90      0.00
   16    6   18      1.64      0.00
   17    5   18     -1.17      0.00
   15    9   18     -0.25      0.00
   16    8   18      1.55      0.00
   17    7   18     -3.12      0.00
   18    6   18     -2.12      0.00
   13   13   18      1.04      0.00
   14   12   18      2.54      0.00
   15   11   18     -0.69      0.00
   16   10   18      0.98      0.00
   17    9   18     -0.25      0.00
   18    8   18     -0.56      0.00
   10   18   18      3.17      0.00
   11   17   18     -1.24      0.00
   12   16   18      0.72      0.00
   13   15   18     -1.04      0.00
   14   14   18     -3.11      0.00
   15   13   18      0.75      0.00
   16   12   18     -0.73      0.00
   17   11   18     -1.30      0.00
   18   10   18     -1.23      0.00
    4   26   18      2.47      0.00
    5   25   18     -1.84      0.00
    6   24   18      1.15      0.00
    7   23   18     -0.08      0.00
    8   22   18      0.52      0.00
    9   21   18      1.31      0.00
   10   20   18     -1.36      0.00
   11   19   18     -1.76      0.00
   12   18   18     -0.20      0.00
   13   17   18      2.09      0.00
   14   16   18     -0.80      0.00
   15   15   18      2.46      0.00
   16   14   18      1.19      0.00
   17   13   18     -1.00      0.00
    7   25   18     -0.74      0.00
    8   24   18     -1.05      0.00
    9   23   18      1.61      0.00
   10   22   18     -0.33      0.00
   11   21   18     -1.62      0.00
   12   20   18      1.95      0.00
   13   19   18      0.28      0.00
   14   18   18      1.02      0.00
   15   17   18     -0.73      0.00
   16   16   18     -1.25      0.00
   17   15   18     -1.80      0.00
   12   22   18      2.22      0.00
   13   21   18     -1.34      0.00
   14   20   18      0.51      0.00
   15   19   18     -3.56      0.00
   16   18   18      0.06      0.00
  -12   20   19      2.05      0.00
  -16   14   19      0.45      0.00
  -13   17   19      1.99      0.00
  -11   19   19     -1.06      0.00
  -10   20   19      0.12      0.00
   -9   21   19      0.41      0.00
   -8   22   19     -3.33      0.00
   -7   23   19      0.19      0.00
   -6   24   19     -2.53      0.00
  -18   10   19      2.48      0.00
  -17   11   19     -2.89      0.00
  -16   12   19      4.89      0.00
  -15   13   19     -2.48      0.00
  -14   14   19     -1.87      0.00
  -13   15   19      1.63      0.00
  -12   16   19     -0.39      0.00
  -11   17   19      0.56      0.00
  -10   18   19      0.74      0.00
   -9   19   19     -1.88      0.00
   -8   20   19     -0.41      0.00
   -7   21   19      6.12      0.00
   -6   22   19     -4.27      0.00
   -5   23   19      4.55      0.00
   -4   24   19     -4.24      0.00
   -3   25   19      0.46      0.00
  -20    6   19     -0.93      0.00
  -19    7   19      3.52      0.00
  -18    8   19      0.30      0.00
  -17    9   19     -0.33      0.00
  -16   10   19      1.54      0.00
  -15   11   19     -0.73      0.00
  -14   12   19     -1.09      0.00
  -13   13   19      1.57      0.00
  -12   14   19      1.11      0.00
  -11   15   19     -0.95      0.00
  -10   16   19     -1.40      0.00
   -9   17   19      0.66      0.00
   -8   18   19      1.21      0.00
   -7   19   19     -1.19      0.00
   -6   20   19     -1.94      0.00
   -5   21   19      2.86      0.00
   -4   22   19     -0.76      0.00
   -3   23   19      0.71      0.00
   -2   24   19     -1.82      0.00
   -1   25   19      3.54      0.00
  -19    5   19     -1.32      0.00
  -18    6   19      1.74      0.00
  -17    7   19     -2.87      0.00
  -16    8   19     -2.20      0.00
  -15    9   19      1.90      0.00
  -14   10   19     -5.19      0.00
  -13   11   19      2.88      0.00
  -12   12   19      3.16      0.00
  -11   13   19     -2.56      0.00
  -10   14   19     -0.80      0.00
   -9   15   19      0.22      0.00
   -8   16   19     -0.95      0.00
   -7   17   19      1.83      0.00
   -6   18   19     -1.42      0.00
   -5   19   19      0.58      0.00
   -4   20   19      0.96      0.00
   -3   21   19     -3.20      0.00
   -2   22   19      2.64      0.00
   -1   23   19      0.54      0.00
    0   24   19      1.45      0.00
  -20    2   19      0.29      0.00
  -19    3   19      0.24      0.00
  -18    4   19      3.46      0.00
  -17    5   19     -2.72      0.00
  -16    6   19     -0.80      0.00
  -15    7   19      2.72      0.00
  -14    8   19      0.18      0.00
  -13    9   19      2.08      0.00
  -12   10   19     -0.60      0.00
  -11   11   19     -4.46      0.00
  -10   12   19      2.23      0.00
   -9   13   19     -0.11      0.00
   -8   14   19      1.44      0.00
   -7   15   19     -0.06      0.00
   -6   16   19      1.03      0.00
   -5   17   19     -0.72      0.00
   -4   18   19      0.11      0.00
   -3   19   19     -2.15      0.00
   -2   20   19      1.53      0.00
   -1   21   19     -1.66      0.00
    0   22   19     -0.10      0.00
    1   23   19     -4.10      0.00
  -19    1   19     -4.71      0.00
  -18    2   19      4.45      0.00
  -17    3   19     -1.16      0.00
  -16    4   19     -2.46      0.00
  -15    5   19      2.36      0.00
  -14    6   19      2.75      0.00
  -13    7   19     -1.20      0.00
  -12    8   19     -0.73      0.00
  -11    9   19     -0.03      0.00
  -10   10   19      2.01      0.00
   -9   11   19     -1.12      0.00
   -8   12   19     -1.22      0.00
   -7   13   19      2.54      0.00
   -6   14   19     -2.38      0.00
   -5   15   19     -0.49      0.00
   -4   16   19     -0.41      0.00
   -3   17   19      0.64      0.00
   -2   18   19      0.06      0.00
   -1   19   19      2.15      0.00
    0   20   19      0.20      0.00
    1   21   19     -0.10      0.00
    2   22   19      2.25      0.00
  -17    1   19     -1.97      0.00
  -16    2   19     -0.67      0.00
  -15    3   19      1.29      0.00
  -14    4   19     -0.21      0.00
  -13    5   19     -3.67      0.00
  -12    6   19     -1.28      0.00
  -11    7   19     -1.50      0.00
  -10    8   19      2.24      0.00
   -9    9   19      0.78      0.00
   -8   10   19     -2.46      0.00
   -7   11   19      4.24      0.00
   -6   12   19     -2.19      0.00
   -5   13   19     -0.14      0.00
   -4   14   19      1.72      0.00
   -3   15   19      0.32      0.00
   -2   16   19      1.00      0.00
   -1   17   19     -1.16      0.00
    0   18   19     -0.54      0.00
    1   19   19     -1.51      0.00
    2   20   19      0.30      0.00
    3   21   19      0.04      0.00
  -15    1   19      1.12      0.00
  -14    2   19     -2.34      0.00
  -13    3   19      3.16      0.00
  -12    4   19      1.35      0.00
  -11    5   19      0.59      0.00
  -10    6   19      1.39      0.00
   -9    7   19      0.38      0.00
   -8    8   19     -1.20      0.00
   -7    9   19      1.20      0.00
   -6   10   19     -1.69      0.00
   -5   11   19     -0.93      0.00
   -4   12   19     -0.05      0.00
   -3   13   19     -0.24      0.00
   -2   14   19     -2.63      0.00
   -1   15   19      1.50      0.00
    0   16   19     -0.28      0.00
    1   17   19      0.65      0.00
    2   18   19      1.19      0.00
    3   19   19      0.65      0.00
    4   20   19     -2.18      0.00
  -13    1   19      1.42      0.00
  -12    2   19     -1.39      0.00
  -11    3   19     -2.19      0.00
  -10    4   19      1.59      0.00
   -9    5   19     -0.05      0.00
   -8    6   19     -2.34      0.00
   -7    7   19     -0.05      0.00
   -6    8   19     -0.91      0.00
   -5    9   19     -0.52      0.00
   -4   10   19      2.02      0.00
   -3   11   19      0.68      0.00
   -2   12   19      1.05      0.00
   -1   13   19      1.49      0.00
    0   14   19     -1.66      0.00
    1   15   19      0.87      0.00
    2   16   19     -0.76      0.00
    3   17   19     -1.76      0.00
    4   18   19      0.98      0.00
    5   19   19      1.69      0.00
  -11    1   19      0.37      0.00
  -10    2   19     -1.10      0.00
   -9    3   19      0.99      0.00
   -8    4   19     -1.43      0.00
   -7    5   19      1.30      0.00
   -6    6   19      0.57      0.00
   -5    7   19      1.25      0.00
   -4    8   19      0.41      0.00
   -3    9   19      1.12      0.00
   -2   10   19     -3.41      0.00
   -1   11   19      1.06      0.00
    0   12   19     -1.77      0.00
    1   13   19      0.42      0.00
    2   14   19      0.97      0.00
    3   15   19     -0.39      0.00
    4   16   19     -0.36      0.00
    5   17   19      0.65      0.00
    6   18   19     -2.08      0.00
   -9    1   19      1.94      0.00
   -8    2   19     -0.80      0.00
   -7    3   19     -1.10      0.00
   -6    4   19      1.87      0.00
   -5    5   19      1.08      0.00
   -4    6   19     -0.61      0.00
   -3    7   19     -0.86      0.00
   -2    8   19     -1.33      0.00
   -1    9   19      1.33      0.00
    0   10   19     -2.02      0.00
    1   11   19      1.55      0.00
    2   12   19      0.28      0.00
    3   13   19     -0.19      0.00
    4   14   19     -0.30      0.00
    5   15   19      1.24      0.00
    6   16   19      0.92      0.00
    7   17   19     -1.91      0.00
   -7    1   19      0.71      0.00
   -6    2   19      0.61      0.00
   -5    3   19     -1.97      0.00
   -4    4   19     -1.11      0.00
   -3    5   19     -1.82      0.00
   -2    6   19     -0.19      0.00
   -1    7   19      3.84      0.00
    0    8   19      0.36      0.00
    1    9   19      0.74      0.00
    2   10   19      0.23      0.00
    3   11   19     -0.48      0.00
    4   12   19     -0.08      0.00
    5   13   19     -2.65      0.00
    6   14   19      1.05      0.00
    7   15   19     -0.66      0.00
    8   16   19      2.58      0.00
   -5    1   19     -0.77      0.00
   -4    2   19      3.19      0.00
   -3    3   19     -0.92      0.00
   -2    4   19      0.61      0.00
   -1    5   19     -1.36      0.00
    0    6   19     -0.41      0.00
    1    7   19     -1.32      0.00
    2    8   19     -0.46      0.00
    3    9   19     -0.35      0.00
    4   10   19     -0.31      0.00
    5   11   19      2.52      0.00
    6   12   19      0.61      0.00
    7   13   19      0.03      0.00
    8   14   19     -1.29      0.00
    9   15   19     -1.66      0.00
   -3    1   19     -2.88      0.00
   -2    2   19      0.81      0.00
   -1    3   19      3.59      0.00
    0    4   19      1.15      0.00
    1    5   19     -1.04      0.00
    2    6   19     -1.40      0.00
    3    7   19      0.56      0.00
    4    8   19      0.25      0.00
    5    9   19     -1.42      0.00
    6   10   19     -0.50      0.00
    7   11   19     -0.71      0.00
    8   12   19      0.88      0.00
    9   13   19      3.04      0.00
   -1    1   19     -1.94      0.00
    0    2   19     -0.56      0.00
    1    3   19     -1.29      0.00
    2    4   19      0.11      0.00
    3    5   19      3.18      0.00
    4    6   19     -1.97      0.00
    5    7   19      2.04      0.00
    6    8   19      2.01      0.00
    7    9   19     -1.96      0.00
    8   10   19      1.47      0.00
    9   11   19     -1.45      0.00
   10   12   19     -0.54      0.00
    1    1   19      3.24      0.00
    2    2   19     -3.98      0.00
    3    3   19      1.49      0.00
    4    4   19     -1.75      0.00
    5    5   19      0.57      0.00
    6    6   19      0.35      0.00
    7    7   19     -1.16      0.00
    8    8   19     -2.62      0.00
    9    9   19      3.28      0.00
   10   10   19     -1.49      0.00
   11   11   19     -0.27      0.00
    3    1   19     -0.60      0.00
    4    2   19      1.55      0.00
    5    3   19      0.27      0.00
    6    4   19      0.57      0.00
    7    5   19      0.42      0.00
    8    6   19     -2.67      0.00
    9    7   19      2.68      0.00
   10    8   19      0.64      0.00
   11    9   19     -2.75      0.00
    5    1   19      1.05      0.00
    6    2   19     -2.71      0.00
    7    3   19      3.96      0.00
    8    4   19     -3.95      0.00
    9    5   19      0.20      0.00
   10    6   19      1.36      0.00
   11    7   19      0.11      0.00
   12    8   19      0.28      0.00
    7    1   19      0.10      0.00
    8    2   19     -2.97      0.00
    9    3   19      0.07      0.00
   10    4   19      3.06      0.00
   11    5   19      2.13      0.00
   12    6   19     -3.45      0.00
   13    7   19     -0.42      0.00
    9    1   19      0.52      0.00
   10    2   19      2.26      0.00
   11    3   19      0.45      0.00
   12    4   19     -4.69      0.00
   13    5   19      1.95      0.00
   11    1   19     -1.93      0.00
   12    2   19      1.40      0.00
   13    3   19     -3.47      0.00
   14    4   19     -0.26      0.00
   13    1   19      0.41      0.00
   14    2   19      2.34      0.00
   15    1   19      1.07      0.00
   15    3   19      1.24      0.00
   14    6   19      1.18      0.00
   15    5   19      2.17      0.00
   12   10   19      1.55      0.00
   13    9   19      1.84      0.00
   14    8   19     -1.62      0.00
   15    7   19      0.53      0.00
   10   14   19     -3.20      0.00
   11   13   19     -0.49      0.00
   12   12   19      1.41      0.00
   13   11   19     -0.18      0.00
   14   10   19     -0.51      0.00
   15    9   19      0.61      0.00
    4   22   19     -2.75      0.00
    5   21   19      4.09      0.00
    6   20   19     -3.37      0.00
    7   19   19      1.04      0.00
    8   18   19      2.59      0.00
    9   17   19     -0.49      0.00
   10   16   19      0.94      0.00
   11   15   19     -0.65      0.00
   12   14   19      4.58      0.00
   13   13   19     -2.06      0.00
   14   12   19      0.33      0.00
   15   11   19     -2.59      0.00
    6   22   19     -0.69      0.00
    7   21   19     -0.57      0.00
    8   20   19      2.28      0.00
    9   19   19     -1.99      0.00
   10   18   19     -1.72      0.00
   11   17   19     -1.82      0.00
   12   16   19      2.51      0.00
   13   15   19     -0.47      0.00
   14   14   19     -1.13      0.00
   10   20   19      0.97      0.00
   11   19   19      1.75      0.00
   12   18   19     -0.66      0.00
   13   17   19      2.78      0.00
  -11   19   20     -0.30      0.00
   -9   21   20     -3.23      0.00
  -18   10   20     -0.48      0.00
  -17   11   20      0.71      0.00
  -12   16   20     -2.91      0.00
  -11   17   20      1.45      0.00
  -10   18   20      1.36      0.00
   -9   19   20      1.48      0.00
   -8   20   20      0.21      0.00
   -7   21   20      1.30      0.00
   -6   22   20      4.37      0.00
   -5   23   20     -2.51      0.00
  -19    7   20      2.41      0.00
  -18    8   20     -4.14      0.00
  -16   10   20      3.36      0.00
  -15   11   20     -0.23      0.00
  -14   12   20     -1.43      0.00
  -13   13   20     -0.29      0.00
  -12   14   20     -1.51      0.00
  -11   15   20      0.56      0.00
  -10   16   20      0.80      0.00
   -9   17   20     -3.03      0.00
   -8   18   20      0.57      0.00
   -7   19   20      0.21      0.00
   -6   20   20     -4.33      0.00
   -5   21   20     -0.51      0.00
   -4   22   20      0.83      0.00
   -3   23   20      1.18      0.00
  -19    5   20     -1.03      0.00
  -18    6   20     -4.56      0.00
  -17    7   20      2.77      0.00
  -16    8   20     -0.57      0.00
  -15    9   20     -2.65      0.00
  -14   10   20     -1.58      0.00
  -13   11   20     -1.40      0.00
  -12   12   20      2.57      0.00
  -11   13   20      0.85      0.00
  -10   14   20      3.68      0.00
   -9   15   20     -3.22      0.00
   -8   16   20      1.85      0.00
   -7   17   20     -1.89      0.00
   -6   18   20      2.41      0.00
   -5   19   20      0.38      0.00
   -4   20   20     -0.03      0.00
   -3   21   20     -0.11      0.00
   -2   22   20      0.45      0.00
  -17    5   20     -1.32      0.00
  -16    6   20      2.18      0.00
  -15    7   20      1.48      0.00
  -14    8   20     -0.66      0.00
  -13    9   20      2.56      0.00
  -12   10   20      1.68      0.00
  -11   11   20     -2.02      0.00
  -10   12   20     -1.47      0.00
   -9   13   20     -2.01      0.00
   -8   14   20     -0.24      0.00
   -7   15   20      2.27      0.00
   -6   16   20     -3.34      0.00
   -5   17   20      2.79      0.00
   -4   18   20     -1.05      0.00
   -3   19   20     -0.94      0.00
   -2   20   20      0.96      0.00
   -1   21   20     -1.50      0.00
  -18    2   20     -2.45      0.00
  -17    3   20     -2.09      0.00
  -16    4   20      1.41      0.00
  -15    5   20      0.65      0.00
  -14    6   20     -0.83      0.00
  -13    7   20     -0.40      0.00
  -12    8   20     -0.95      0.00
  -11    9   20      2.02      0.00
  -10   10   20     -1.05      0.00
   -9   11   20      0.98      0.00
   -8   12   20      0.25      0.00
   -7   13   20     -0.19      0.00
   -6   14   20      1.91      0.00
   -5   15   20     -0.33      0.00
   -4   16   20     -0.12      0.00
   -3   17   20     -0.87      0.00
   -2   18   20      3.36      0.00
   -1   19   20     -1.96      0.00
    0   20   20      0.64      0.00
  -17    1   20     -1.01      0.00
  -16    2   20     -0.08      0.00
  -15    3   20      1.17      0.00
  -14    4   20     -0.31      0.00
  -13    5   20     -3.01      0.00
  -12    6   20     -0.51      0.00
  -11    7   20      1.65      0.00
  -10    8   20     -4.55      0.00
   -9    9   20      1.68      0.00
   -8   10   20     -0.10      0.00
   -7   11   20     -0.71      0.00
   -6   12   20      1.23      0.00
   -5   13   20     -0.58      0.00
   -4   14   20     -0.39      0.00
   -3   15   20      0.05      0.00
   -2   16   20     -0.99      0.00
   -1   17   20      1.30      0.00
    0   18   20     -2.17      0.00
    1   19   20     -0.33      0.00
  -16    0   20     -0.33      0.00
  -15    1   20     -0.58      0.00
  -14    2   20      0.97      0.00
  -13    3   20     -0.84      0.00
  -12    4   20      2.13      0.00
  -11    5   20      1.61      0.00
  -10    6   20      0.73      0.00
   -9    7   20      0.89      0.00
   -8    8   20      0.68      0.00
   -7    9   20      0.87      0.00
   -6   10   20      1.20      0.00
   -5   11   20     -1.75      0.00
   -4   12   20      0.57      0.00
   -3   13   20     -1.31      0.00
   -2   14   20      0.62      0.00
   -1   15   20     -0.18      0.00
    0   16   20     -0.25      0.00
    1   17   20      0.78      0.00
    2   18   20      1.82      0.00
  -14    0   20     -0.59      0.00
  -13    1   20      2.44      0.00
  -12    2   20     -0.98      0.00
  -11    3   20     -1.60      0.00
  -10    4   20     -0.82      0.00
   -9    5   20      0.23      0.00
   -8    6   20     -0.55      0.00
   -7    7   20     -1.30      0.00
   -6    8   20     -1.27      0.00
   -5    9   20     -1.68      0.00
   -4   10   20      0.60      0.00
   -3   11   20     -0.13      0.00
   -2   12   20      0.56      0.00
   -1   13   20      0.89      0.00
    0   14   20     -0.86      0.00
    1   15   20      0.14      0.00
    2   16   20     -0.27      0.00
    3   17   20     -0.35      0.00
  -12    0   20     -1.19      0.00
  -11    1   20     -1.80      0.00
  -10    2   20      1.27      0.00
   -9    3   20      0.79      0.00
   -8    4   20     -0.93      0.00
   -7    5   20      1.24      0.00
   -6    6   20      0.40      0.00
   -5    7   20      2.05      0.00
   -4    8   20     -0.07      0.00
   -3    9   20     -0.27      0.00
   -2   10   20      0.89      0.00
   -1   11   20     -1.07      0.00
    0   12   20      1.25      0.00
    1   13   20     -0.56      0.00
    2   14   20      0.29      0.00
    3   15   20      0.31      0.00
    4   16   20      0.46      0.00
  -10    0   20      2.06      0.00
   -9    1   20      0.61      0.00
   -8    2   20     -0.20      0.00
   -7    3   20      0.24      0.00
   -6    4   20     -1.37      0.00
   -5    5   20     -0.56      0.00
   -4    6   20     -0.34      0.00
   -3    7   20      1.05      0.00
   -2    8   20     -0.32      0.00
   -1    9   20      2.08      0.00
    0   10   20     -2.16      0.00
    1   11   20      0.26      0.00
    2   12   20     -0.66      0.00
    3   13   20      0.56      0.00
    4   14   20     -0.40      0.00
    5   15   20     -0.25      0.00
   -8    0   20     -1.28      0.00
   -7    1   20     -2.69      0.00
   -6    2   20      3.97      0.00
   -5    3   20     -2.79      0.00
   -4    4   20     -1.03      0.00
   -3    5   20      1.91      0.00
   -2    6   20      0.03      0.00
   -1    7   20     -1.58      0.00
    0    8   20      0.00      0.00
    1    9   20     -0.23      0.00
    2   10   20      0.73      0.00
    3   11   20      1.99      0.00
    4   12   20     -2.12      0.00
    5   13   20     -0.27      0.00
    6   14   20     -0.17      0.00
   -6    0   20      3.56      0.00
   -5    1   20     -0.42      0.00
   -4    2   20      1.06      0.00
   -3    3   20      3.75      0.00
   -2    4   20     -2.61      0.00
   -1    5   20     -1.65      0.00
    0    6   20     -0.21      0.00
    1    7   20     -0.15      0.00
    2    8   20      0.31      0.00
    3    9   20      0.97      0.00
    4   10   20     -2.28      0.00
    5   11   20      0.26      0.00
    6   12   20      3.22      0.00
    7   13   20     -1.38      0.00
   -4    0   20     -2.43      0.00
   -3    1   20     -1.72      0.00
   -2    2   20     -2.75      0.00
   -1    3   20      2.37      0.00
    0    4   20      3.16      0.00
    1    5   20     -1.22      0.00
    2    6   20      0.13      0.00
    3    7   20      0.31      0.00
    4    8   20     -0.53      0.00
    5    9   20      0.09      0.00
    6   10   20     -0.85      0.00
    7   11   20     -0.41      0.00
   -2    0   20      2.86      0.00
   -1    1   20      1.66      0.00
    0    2   20     -2.91      0.00
    1    3   20      0.97      0.00
    2    4   20      0.32      0.00
    3    5   20      0.47      0.00
    4    6   20      0.12      0.00
    5    7   20      0.18      0.00
    6    8   20      0.70      0.00
    7    9   20      0.04      0.00
    8   10   20      0.34      0.00
    0    0   20     -0.04      0.00
    1    1   20      0.43      0.00
    2    2   20      0.44      0.00
    3    3   20     -4.75      0.00
    4    4   20      2.35      0.00
    5    5   20      0.11      0.00
    6    6   20     -1.30      0.00
    7    7   20     -0.72      0.00
    8    8   20      1.41      0.00
    9    9   20     -0.46      0.00
    2    0   20     -2.70      0.00
    3    1   20      1.05      0.00
    4    2   20      1.63      0.00
    5    3   20      0.09      0.00
    6    4   20     -0.73      0.00
    7    5   20      0.16      0.00
    8    6   20      0.46      0.00
    9    7   20      0.58      0.00
    4    0   20      0.45      0.00
    5    1   20     -0.76      0.00
    6    2   20      1.58      0.00
    7    3   20     -0.64      0.00
    8    4   20     -0.27      0.00
    9    5   20      0.49      0.00
   10    6   20     -0.34      0.00
    6    0   20      1.20      0.00
    7    1   20     -0.33      0.00
    8    2   20     -3.87      0.00
    9    3   20      1.04      0.00
   10    4   20      2.62      0.00
    8    0   20      0.03      0.00
    9    1   20     -0.21      0.00
   10    2   20      2.34      0.00
   11    3   20     -1.36      0.00
   10    0   20      4.40      0.00
   11    1   20     -0.67      0.00
   12    0   20     -2.01      0.00
   12    2   20     -3.00      0.00
   11    5   20     -1.68      0.00
   12    4   20     -1.62      0.00
   10    8   20     -1.32      0.00
   11    7   20     -0.93      0.00
   12    6   20      0.63      0.00
    8   12   20      0.38      0.00
    9   11   20     -0.05      0.00
   10   10   20     -0.85      0.00
   11    9   20      1.23      0.00
   12    8   20      1.69      0.00
    4   18   20     -2.21      0.00
    5   17   20     -0.85      0.00
    6   16   20      0.95      0.00
    7   15   20      0.15      0.00
    8   14   20      0.76      0.00
    9   13   20      1.53      0.00
   10   12   20     -3.35      0.00
   11   11   20      0.13      0.00
    8   16   20     -0.09      0.00
    9   15   20     -2.43      0.00
   -8   20   21      5.29      0.00
  -16   10   21      0.07      0.00
  -12   14   21     -0.89      0.00
  -11   15   21     -1.89      0.00
  -10   16   21      0.15      0.00
   -9   17   21     -0.46      0.00
   -8   18   21     -0.60      0.00
  -16    8   21      0.72      0.00
  -15    9   21     -4.87      0.00
  -12   12   21     -1.20      0.00
  -11   13   21      1.54      0.00
  -10   14   21      0.32      0.00
   -9   15   21      4.83      0.00
   -8   16   21     -0.81      0.00
   -7   17   21      0.90      0.00
   -6   18   21     -2.81      0.00
   -5   19   21      6.97      0.00
  -16    6   21     -2.80      0.00
  -15    7   21      3.37      0.00
  -14    8   21      1.98      0.00
  -13    9   21      1.08      0.00
  -12   10   21     -0.53      0.00
  -11   11   21      1.41      0.00
  -10   12   21     -1.34      0.00
   -9   13   21      0.07      0.00
   -8   14   21     -3.47      0.00
   -7   15   21     -1.66      0.00
   -6   16   21      1.79      0.00
   -5   17   21     -0.16      0.00
   -4   18   21     -1.87      0.00
  -15    5   21      1.67      0.00
  -14    6   21     -3.07      0.00
  -13    7   21      1.64      0.00
  -12    8   21     -3.68      0.00
  -11    9   21     -0.16      0.00
  -10   10   21      2.79      0.00
   -9   11   21     -0.47      0.00
   -8   12   21     -1.18      0.00
   -7   13   21      1.89      0.00
   -6   14   21      0.86      0.00
   -5   15   21      1.00      0.00
   -4   16   21     -1.53      0.00
   -3   17   21      0.68      0.00
  -15    3   21      2.47      0.00
  -14    4   21     -1.04      0.00
  -13    5   21      1.37      0.00
  -12    6   21     -2.86      0.00
  -11    7   21      1.53      0.00
  -10    8   21      3.36      0.00
   -9    9   21     -3.54      0.00
   -8   10   21     -2.87      0.00
   -7   11   21      2.32      0.00
   -6   12   21      1.55      0.00
   -5   13   21     -4.25      0.00
   -4   14   21      1.38      0.00
   -3   15   21     -0.26      0.00
   -2   16   21      1.71      0.00
   -1   17   21     -1.81      0.00
  -14    2   21      0.86      0.00
  -13    3   21     -2.62      0.00
  -12    4   21      0.94      0.00
  -11    5   21     -0.63      0.00
  -10    6   21      3.17      0.00
   -9    7   21     -0.77      0.00
   -8    8   21     -3.89      0.00
   -7    9   21      5.24      0.00
   -6   10   21      0.35      0.00
   -5   11   21     -2.29      0.00
   -4   12   21      2.86      0.00
   -3   13   21     -0.42      0.00
   -2   14   21      0.78      0.00
   -1   15   21      0.32      0.00
    0   16   21     -2.98      0.00
  -13    1   21     -3.58      0.00
  -12    2   21      1.93      0.00
  -11    3   21      1.80      0.00
  -10    4   21     -1.23      0.00
   -9    5   21     -1.84      0.00
   -8    6   21     -0.92      0.00
   -7    7   21      2.27      0.00
   -6    8   21     -1.01      0.00
   -5    9   21     -2.01      0.00
   -4   10   21      1.79      0.00
   -3   11   21     -2.36      0.00
   -2   12   21      0.76      0.00
   -1   13   21     -1.92      0.00
    0   14   21     -1.28      0.00
    1   15   21      1.31      0.00
  -11    1   21      0.50      0.00
  -10    2   21     -2.55      0.00
   -9    3   21      0.90      0.00
   -8    4   21      2.77      0.00
   -7    5   21     -1.39      0.00
   -6    6   21      2.09      0.00
   -5    7   21     -0.08      0.00
   -4    8   21      1.74      0.00
   -3    9   21     -1.95      0.00
   -2   10   21      0.11      0.00
   -1   11   21      0.87      0.00
    0   12   21     -0.22      0.00
    1   13   21      3.59      0.00
   -9    1   21      2.49      0.00
   -8    2   21     -0.09      0.00
   -7    3   21     -1.09      0.00
   -6    4   21      0.45      0.00
   -5    5   21     -2.70      0.00
   -4    6   21     -2.79      0.00
   -3    7   21      2.23      0.00
   -2    8   21      1.04      0.00
   -1    9   21      0.21      0.00
    0   10   21      0.61      0.00
    1   11   21     -2.04      0.00
    2   12   21      1.26      0.00
   -7    1   21     -0.86      0.00
   -6    2   21     -2.45      0.00
   -5    3   21      2.13      0.00
   -4    4   21     -1.00      0.00
   -3    5   21      2.46      0.00
   -2    6   21     -0.45      0.00
   -1    7   21     -1.40      0.00
    0    8   21     -1.42      0.00
    1    9   21      0.08      0.00
    2   10   21      1.60      0.00
    3   11   21     -0.46      0.00
   -5    1   21      1.18      0.00
   -4    2   21     -0.09      0.00
   -3    3   21      4.28      0.00
   -2    4   21     -1.02      0.00
   -1    5   21     -1.87      0.00
    0    6   21      0.33      0.00
    1    7   21     -0.49      0.00
    2    8   21      3.82      0.00
    3    9   21     -1.73      0.00
    4   10   21     -1.98      0.00
   -3    1   21     -0.71      0.00
   -2    2   21     -3.17      0.00
   -1    3   21      0.31      0.00
    0    4   21      1.41      0.00
    1    5   21     -0.12      0.00
    2    6   21      1.36      0.00
    3    7   21     -1.90      0.00
    4    8   21     -2.13      0.00
    5    9   21      0.71      0.00
   -1    1   21      1.67      0.00
    0    2   21     -0.47      0.00
    1    3   21     -2.37      0.00
    2    4   21      3.35      0.00
    3    5   21     -1.11      0.00
    4    6   21      0.63      0.00
    5    7   21     -0.23      0.00
    1    1   21     -0.18      0.00
    2    2   21     -1.28      0.00
    3    3   21      0.32      0.00
    4    4   21     -0.10      0.00
    5    5   21     -0.79      0.00
    6    6   21      1.04      0.00
    3    1   21      0.83      0.00
    4    2   21      2.52      0.00
    5    3   21     -2.77      0.00
    6    4   21      0.48      0.00
    7    5   21     -1.05      0.00
    5    1   21     -2.26      0.00
    6    2   21      1.23      0.00
    7    3   21     -0.21      0.00
    7    1   21     -1.11      0.00
    8    2   21      2.04      0.00
    8    4   21      1.71      0.00
    6    8   21      3.19      0.00
    7    7   21     -2.09      0.00
    4   12   21      0.45      0.00
    5   11   21     -0.47      0.00
    6   10   21      2.37      0.00
  -10   10   22     -4.17      0.00
  -10    8   22     -2.55      0.00
   -9    9   22      3.90      0.00
   -8   10   22     -1.12      0.00
   -6   12   22     -1.66      0.00
  -10    6   22     -4.54      0.00
   -9    7   22      1.75      0.00
   -8    8   22     -2.22      0.00
   -7    9   22      0.63      0.00
   -6   10   22     -0.92      0.00
   -5   11   22     -1.94      0.00
  -10    4   22      4.92      0.00
   -9    5   22     -3.67      0.00
   -8    6   22      0.33      0.00
   -7    7   22      2.03      0.00
   -6    8   22     -1.14      0.00
   -5    9   22      0.80      0.00
   -4   10   22      1.90      0.00
   -9    3   22     -2.61      0.00
   -8    4   22      2.03      0.00
   -7    5   22     -1.73      0.00
   -6    6   22      0.46      0.00
   -5    7   22      2.07      0.00
   -4    8   22     -0.15      0.00
   -3    9   22     -1.60      0.00
   -9    1   22      2.45      0.00
   -8    2   22      0.96      0.00
   -7    3   22     -4.02      0.00
   -6    4   22      2.95      0.00
   -5    5   22      1.44      0.00
   -4    6   22     -2.77      0.00
   -3    7   22     -2.54      0.00
   -2    8   22      2.87      0.00
   -8    0   22     -5.61      0.00
   -7    1   22      1.41      0.00
   -6    2   22      0.11      0.00
   -5    3   22      0.47      0.00
   -4    4   22     -0.84      0.00
   -3    5   22      0.51      0.00
   -2    6   22     -0.82      0.00
   -1    7   22     -0.33      0.00
   -6    0   22     -0.60      0.00
   -5    1   22      1.19      0.00
   -4    2   22     -0.30      0.00
   -3    3   22     -0.76      0.00
   -2    4   22      2.13      0.00
   -1    5   22     -0.17      0.00
    0    6   22      0.76      0.00
   -4    0   22     -1.04      0.00
   -3    1   22     -0.46      0.00
   -2    2   22      0.74      0.00
   -1    3   22     -2.37      0.00
    0    4   22      1.47      0.00
    1    5   22      0.43      0.00
   -2    0   22      1.80      0.00
   -1    1   22     -0.92      0.00
    0    2   22      0.33      0.00
    1    3   22      0.42      0.00
    0    0   22     -1.16      0.00
    1    1   22      1.79      0.00
    2    2   22     -1.91      0.00
    2    0   22     -2.03      0.00
    1    1    0   -420.04      0.00
    0    0    0      0.00      0.00
# SQUEEZE RESULTS (Version = 270319)
# Note: Data are Listed for all Voids in the P1 Unit Cell
# i.e. Centre of Gravity, Solvent Accessible Volume,
# Recovered number of Electrons in the Void and
# Details about the Squeezed Material
loop_
  _platon_squeeze_void_nr
  _platon_squeeze_void_average_x
  _platon_squeeze_void_average_y
  _platon_squeeze_void_average_z
  _platon_squeeze_void_volume
  _platon_squeeze_void_count_electrons
  _platon_squeeze_void_content
   1 -0.038  0.390 -0.046      4599      1260 ' '
# Missing Reflections Below sin(th)/lambda = 0.25
loop_
  _platon_missing_refln_index_h
  _platon_missing_refln_index_k
  _platon_missing_refln_index_l
  _platon_missing_refln_theta
    1    1    0     1.207
_platon_squeeze_void_probe_radius                  1.20
_platon_squeeze_details
)
TITL asflex_CN in C2/c
CELL   21.7990   25.7270   15.6300     90.00     93.86     90.00
SPGR C2/c
# Solvent Accessible Volume =      4592
# Electrons Found in S.A.V. =      1251
# Note: Atoms in Void are Labelled as Cxxx and Qxxx for all Others
C101 0.802 0.059 0.293 !       5.77 eA-3
C102 0.736 0.077 0.147 !       3.03 eA-3
C103 0.656 0.247 0.114 !       2.90 eA-3
C104 0.447 0.178 0.201 !       2.82 eA-3
C105 0.720 0.188 0.108 !       2.55 eA-3
C106 0.204 0.486 0.058 !       2.43 eA-3
C107 0.721 0.006 0.398 !       2.37 eA-3
C108 0.327 0.208 0.386 !       2.02 eA-3
C109 0.181 0.417 0.347 !       1.70 eA-3
C110 0.391 0.276 0.409 !       1.70 eA-3
Q111 0.500 0.499 0.033 !       1.53 eA-3
C112 0.924 0.457 0.453 !       1.29 eA-3
C113 0.733 0.241 0.109 !       1.28 eA-3
Q114 0.982 0.018 0.000 !       1.24 eA-3
C115 0.508 0.104 0.084 !       1.23 eA-3
C116 0.421 0.087 0.144 !       1.20 eA-3
Q117 0.021 0.013 0.003 !       1.18 eA-3
C118 0.820 0.424 0.235 !       1.13 eA-3
C119 0.478 0.106 0.082 !       1.12 eA-3
C120 0.608 0.077 0.238 !       1.12 eA-3
C121 0.055 0.404 0.888 !       1.10 eA-3
Q122 0.768 0.231 0.504 !       1.03 eA-3
C123 0.571 0.035 0.486 !       1.01 eA-3
C124 0.404 0.059 0.327 !       1.00 eA-3
C125 0.737 0.251 0.887 !       0.96 eA-3
C126 0.210 0.476 0.346 !       0.96 eA-3
Q127 0.251 0.251 0.030 !       0.95 eA-3
C128 0.796 0.458 0.178 !       0.95 eA-3
C129 0.375 0.105 0.613 !       0.94 eA-3
C130 0.782 0.390 0.130 !       0.88 eA-3
Q131 0.227 0.267 0.006 !       0.84 eA-3
C132 0.823 0.408 0.055 !       0.83 eA-3
Q133 0.904 0.244 0.625 !       0.81 eA-3
C134 0.087 0.404 0.424 !       0.78 eA-3
C135 0.415 0.091 0.663 !       0.77 eA-3
C136 0.289 0.097 0.580 !       0.76 eA-3
Q137 0.359 0.366 0.173 !       0.72 eA-3
C138 0.576 0.034 0.441 !       0.71 eA-3
Q139 0.505 0.454 0.518 !       0.70 eA-3
C140 0.876 0.462 0.366 !       0.69 eA-3
Q141 0.338 0.394 0.153 !       0.66 eA-3
Q142 0.573 0.485 0.937 !       0.65 eA-3
C143 0.680 0.027 0.449 !       0.64 eA-3
Q144 0.596 0.490 0.699 !       0.64 eA-3
Q145 0.553 0.414 0.246 !       0.63 eA-3
C146 0.513 0.078 0.017 !       0.63 eA-3
C147 0.984 0.440 0.024 !       0.63 eA-3
Q148 0.822 0.290 0.354 !       0.63 eA-3
C149 0.061 0.434 0.418 !       0.63 eA-3
C150 0.960 0.482 0.832 !       0.62 eA-3
C151 0.971 0.421 0.070 !       0.62 eA-3
C152 0.931 0.422 0.218 !       0.62 eA-3
C153 0.780 0.458 0.075 !       0.60 eA-3
C154 0.543 0.048 0.470 !       0.59 eA-3
C155 0.976 0.427 0.105 !       0.59 eA-3
C156 0.034 0.470 0.969 !       0.58 eA-3
Q157 0.928 0.167 0.168 !       0.58 eA-3
C158 0.231 0.433 0.407 !       0.57 eA-3
Q159 0.975 0.070 0.485 !       0.56 eA-3
C160 0.607 0.030 0.432 !       0.56 eA-3
C161 0.227 0.419 0.451 !       0.55 eA-3
Q162 0.938 0.265 0.100 !       0.55 eA-3
C163 0.546 0.065 0.734 !       0.54 eA-3
Q164 0.048 0.105 0.442 !       0.54 eA-3
C165 0.070 0.289 0.604 !       0.53 eA-3
Q166 0.422 0.493 0.317 !       0.53 eA-3
C167 0.766 0.334 0.121 !       0.53 eA-3
C168 0.537 0.076 0.064 !       0.53 eA-3
C169 0.440 0.116 0.493 !       0.53 eA-3
C170 0.908 0.449 0.062 !       0.52 eA-3
C171 0.546 0.084 0.004 !       0.52 eA-3
Q172 0.710 0.291 0.404 !       0.52 eA-3
Q173 0.078 0.030 0.485 !       0.51 eA-3
Q174 0.924 0.160 0.704 !       0.51 eA-3
Q175 0.962 0.332 0.419 !       0.51 eA-3
Q176 0.327 0.311 0.080 !       0.50 eA-3
)
;
_shelx_fab_checksum              24411
loop_
_space_group_symop_operation_xyz
'x, y, z'
'-x, y, -z+1/2'
'x+1/2, y+1/2, z'
'-x+1/2, y+1/2, -z+1/2'
'-x, -y, -z'
'x, -y, z-1/2'
'-x+1/2, -y+1/2, -z'
'x+1/2, -y+1/2, z-1/2'
loop_
_atom_site_label
_atom_site_type_symbol
_atom_site_fract_x
_atom_site_fract_y
_atom_site_fract_z
_atom_site_U_iso_or_equiv
_atom_site_adp_type
_atom_site_occupancy
_atom_site_site_symmetry_order
_atom_site_calc_flag
_atom_site_refinement_flags_posn
_atom_site_refinement_flags_adp
_atom_site_refinement_flags_occupancy
N8 N 0.4330(2) 0.2277(3) 0.6175(4) 0.219(3) Uani 1 1 d . . .
Ni1 Ni 0.500000 0.500000 0.000000 0.03756(12) Uani 1 2 d S . P
Ni2 Ni 0.750000 0.250000 0.500000 0.04603(13) Uani 1 2 d S . P
O1 O 0.51857(7) 0.46793(6) 0.12358(8) 0.0444(3) Uani 1 1 d . . .
O2 O 0.57801(7) 0.52118(6) 0.20663(9) 0.0510(4) Uani 1 1 d . . .
O3 O 0.69322(7) 0.30212(6) 0.42609(10) 0.0533(4) Uani 1 1 d . . .
O4 O 0.60756(9) 0.25871(7) 0.38797(13) 0.0738(6) Uani 1 1 d . . .
N1 N 0.53673(8) 0.57059(7) 0.03665(10) 0.0447(4) Uani 1 1 d . . .
H1 H 0.545731 0.570102 0.099577 0.054 Uiso 1 1 calc R U .
N2 N 0.43627(10) 0.61057(8) 0.05339(12) 0.0574(5) Uani 1 1 d . . .
N3 N 0.41363(8) 0.51734(7) 0.03869(11) 0.0472(4) Uani 1 1 d . . .
H3 H 0.414942 0.512728 0.101668 0.057 Uiso 1 1 calc R U .
N4 N 0.40612(15) 0.67020(13) 0.33686(18) 0.1044(10) Uani 1 1 d . . .
N5 N 0.69469(9) 0.18747(7) 0.46701(13) 0.0552(5) Uani 1 1 d . . .
H5 H 0.656416 0.201704 0.438390 0.066 Uiso 1 1 calc R U .
N6 N 0.64748(11) 0.18573(9) 0.60453(16) 0.0704(6) Uani 1 1 d . . .
N7 N 0.70526(10) 0.26834(8) 0.60771(13) 0.0580(5) Uani 1 1 d . . .
H7 H 0.667769 0.288219 0.589383 0.070 Uiso 1 1 calc R U .
C1 C 0.59519(11) 0.57436(10) -0.00425(14) 0.0548(6) Uani 1 1 d . . .
H1A H 0.621217 0.600857 0.024965 0.066 Uiso 1 1 calc R U .
H1AB H 0.587395 0.584893 -0.064255 0.066 Uiso 1 1 calc R U .
C2 C 0.49444(12) 0.61433(9) 0.01520(14) 0.0536(6) Uani 1 1 d . . .
H2A H 0.514565 0.646815 0.034053 0.064 Uiso 1 1 calc R U .
H2AB H 0.486851 0.616053 -0.047252 0.064 Uiso 1 1 calc R U .
C3 C 0.39397(12) 0.57183(10) 0.01969(15) 0.0571(6) Uani 1 1 d . . .
H3A H 0.388350 0.576170 -0.042639 0.069 Uiso 1 1 calc R U .
H3AB H 0.354034 0.577685 0.043332 0.069 Uiso 1 1 calc R U .
C4 C 0.37184(10) 0.47759(10) 0.00014(14) 0.0557(6) Uani 1 1 d . . .
H4A H 0.360018 0.486584 -0.059628 0.067 Uiso 1 1 calc R U .
H4AB H 0.334484 0.475683 0.031551 0.067 Uiso 1 1 calc R U .
C5 C 0.44035(14) 0.61678(10) 0.14605(15) 0.0657(7) Uani 1 1 d . . .
H5A H 0.479667 0.633212 0.164139 0.079 Uiso 1 1 calc R U .
H5AB H 0.439443 0.582441 0.173074 0.079 Uiso 1 1 calc R U .
C6 C 0.39004(19) 0.64842(17) 0.1754(2) 0.1061(12) Uani 1 1 d . U .
H6A H 0.387480 0.680888 0.142595 0.127 Uiso 1 1 calc R U .
H6B H 0.351180 0.629708 0.164136 0.127 Uiso 1 1 calc R U .
C7 C 0.39796(17) 0.66054(15) 0.2658(2) 0.0967(12) Uani 1 1 d . . .
C8 C 0.72558(14) 0.15846(10) 0.40167(18) 0.0704(8) Uani 1 1 d . . .
H8A H 0.696007 0.135949 0.369490 0.084 Uiso 1 1 calc R U .
H8AB H 0.758062 0.136564 0.428987 0.084 Uiso 1 1 calc R U .
C9 C 0.67621(13) 0.15599(10) 0.53998(19) 0.0683(8) Uani 1 1 d . . .
H9A H 0.647573 0.128948 0.518266 0.082 Uiso 1 1 calc R U .
H9AB H 0.712689 0.138641 0.566634 0.082 Uiso 1 1 calc R U .
C10 C 0.68617(14) 0.22158(11) 0.65593(17) 0.0697(7) Uani 1 1 d . . .
H10A H 0.723104 0.203090 0.678467 0.084 Uiso 1 1 calc R U .
H10B H 0.663862 0.233027 0.704952 0.084 Uiso 1 1 calc R U .
C11 C 0.74710(14) 0.30327(11) 0.65811(17) 0.0693(7) Uani 1 1 d . . .
H11A H 0.779895 0.283057 0.688419 0.083 Uiso 1 1 calc R U .
H11B H 0.724490 0.321871 0.700755 0.083 Uiso 1 1 calc R U .
C12 C 0.58522(14) 0.20376(14) 0.5804(2) 0.0862(9) Uani 1 1 d . . .
H12A H 0.585919 0.241505 0.572077 0.103 Uiso 1 1 calc R U .
H12B H 0.570988 0.187804 0.525687 0.103 Uiso 1 1 calc R U .
C13 C 0.5424(2) 0.1914(2) 0.6439(4) 0.166(2) Uani 1 1 d . . .
H13A H 0.539147 0.153484 0.647866 0.199 Uiso 1 1 calc R U .
H13B H 0.559358 0.204092 0.699697 0.199 Uiso 1 1 calc R U .
C14 C 0.4816(3) 0.2125(3) 0.6280(4) 0.172(3) Uani 1 1 d . . .
C15 C 0.55531(9) 0.47788(8) 0.18773(12) 0.0388(4) Uani 1 1 d . . .
C16 C 0.57408(9) 0.43116(8) 0.24239(11) 0.0358(4) Uani 1 1 d . . .
C17 C 0.63652(9) 0.42665(8) 0.26898(12) 0.0424(5) Uani 1 1 d . . .
H17 H 0.663675 0.453501 0.256170 0.051 Uiso 1 1 calc R U .
C18 C 0.65907(10) 0.38357(9) 0.31365(12) 0.0443(5) Uani 1 1 d . . .
H18 H 0.701101 0.381430 0.331136 0.053 Uiso 1 1 calc R U .
C19 C 0.61982(10) 0.34367(8) 0.33259(12) 0.0401(5) Uani 1 1 d . . .
C20 C 0.55757(10) 0.34769(7) 0.30602(11) 0.0380(4) Uani 1 1 d . . .
H20 H 0.530843 0.320417 0.318275 0.046 Uiso 1 1 calc R U .
C21 C 0.53412(8) 0.39102(7) 0.26188(10) 0.0335(4) Uani 1 1 d . . .
C22 C 0.64168(11) 0.29749(9) 0.38628(13) 0.0484(5) Uani 1 1 d . . .
loop_
_atom_site_aniso_label
_atom_site_aniso_U_11
_atom_site_aniso_U_22
_atom_site_aniso_U_33
_atom_site_aniso_U_23
_atom_site_aniso_U_13
_atom_site_aniso_U_12
N8 0.124(4) 0.289(8) 0.247(7) 0.065(5) 0.029(4) 0.072(5)
Ni1 0.0414(2) 0.0457(2) 0.02407(18) 0.00698(13) -0.00948(14) 0.00507(16)
Ni2 0.0529(3) 0.0440(2) 0.0383(2) 0.00051(15) -0.01890(17) 0.01169(18)
O1 0.0509(8) 0.0560(8) 0.0241(6) 0.0100(6) -0.0147(6) -0.0010(7)
O2 0.0621(10) 0.0465(8) 0.0419(8) 0.0054(6) -0.0162(7) -0.0070(8)
O3 0.0566(9) 0.0500(8) 0.0493(9) 0.0071(7) -0.0263(7) 0.0107(8)
O4 0.0657(11) 0.0581(10) 0.0921(15) 0.0246(9) -0.0349(10) 0.0002(9)
N1 0.0558(11) 0.0514(9) 0.0252(8) 0.0047(7) -0.0096(7) -0.0006(9)
N2 0.0745(14) 0.0606(11) 0.0354(10) 0.0002(8) -0.0077(9) 0.0212(11)
N3 0.0455(10) 0.0640(11) 0.0309(9) 0.0059(8) -0.0064(7) 0.0089(9)
N4 0.122(2) 0.130(2) 0.0590(16) -0.0186(16) -0.0092(16) 0.060(2)
N5 0.0604(12) 0.0474(10) 0.0542(12) 0.0023(8) -0.0236(9) 0.0063(10)
N6 0.0651(14) 0.0756(14) 0.0689(15) 0.0189(12) -0.0077(12) 0.0036(12)
N7 0.0628(12) 0.0622(11) 0.0467(11) -0.0020(9) -0.0131(9) 0.0154(11)
C1 0.0626(14) 0.0664(14) 0.0340(11) 0.0082(10) -0.0072(10) -0.0136(13)
C2 0.0773(17) 0.0475(12) 0.0338(11) 0.0060(9) -0.0125(11) 0.0048(12)
C3 0.0588(14) 0.0729(15) 0.0381(12) 0.0063(11) -0.0086(10) 0.0243(13)
C4 0.0424(11) 0.0868(17) 0.0367(11) 0.0103(11) -0.0055(9) -0.0012(13)
C5 0.0891(19) 0.0684(15) 0.0382(12) -0.0014(11) -0.0063(12) 0.0220(15)
C6 0.113(2) 0.141(3) 0.0622(18) -0.0222(19) -0.0083(17) 0.051(2)
C7 0.109(3) 0.121(3) 0.0574(19) -0.0192(18) -0.0100(17) 0.057(2)
C8 0.0788(18) 0.0570(14) 0.0709(18) -0.0191(13) -0.0279(15) 0.0147(14)
C9 0.0692(17) 0.0552(13) 0.0767(19) 0.0123(13) -0.0242(14) 0.0026(13)
C10 0.0798(18) 0.0803(18) 0.0475(14) 0.0090(13) -0.0076(13) 0.0147(16)
C11 0.0804(18) 0.0763(17) 0.0486(14) -0.0149(13) -0.0149(13) 0.0183(15)
C12 0.077(2) 0.098(2) 0.082(2) 0.0184(18) -0.0112(17) -0.0018(19)
C13 0.104(3) 0.218(6) 0.180(6) 0.077(5) 0.045(3) 0.041(4)
C14 0.106(4) 0.224(7) 0.188(6) 0.056(5) 0.023(4) 0.035(4)
C15 0.0410(10) 0.0500(11) 0.0243(9) 0.0044(8) -0.0054(7) 0.0019(9)
C16 0.0401(10) 0.0462(10) 0.0196(8) 0.0009(7) -0.0101(7) 0.0041(9)
C17 0.0415(11) 0.0527(11) 0.0314(10) 0.0069(8) -0.0096(8) -0.0022(10)
C18 0.0386(10) 0.0604(12) 0.0321(10) 0.0033(9) -0.0110(8) 0.0083(10)
C19 0.0465(11) 0.0457(10) 0.0260(9) -0.0016(8) -0.0127(8) 0.0117(9)
C20 0.0475(11) 0.0404(9) 0.0242(9) 0.0000(7) -0.0123(8) 0.0022(9)
C21 0.0380(10) 0.0411(9) 0.0195(8) -0.0029(7) -0.0127(7) 0.0032(8)
C22 0.0539(13) 0.0514(12) 0.0374(11) 0.0020(9) -0.0146(10) 0.0127(11)
loop_
_atom_type_symbol
_atom_type_description
_atom_type_scat_dispersion_real
_atom_type_scat_dispersion_imag
_atom_type_scat_source
C C 0.0030 0.0016 'International Tables Vol C Tables 4.2.6.8 and 6.1.1.4'
H H 0.0000 0.0000 'International Tables Vol C Tables 4.2.6.8 and 6.1.1.4'
N N 0.0059 0.0032 'International Tables Vol C Tables 4.2.6.8 and 6.1.1.4'
O O 0.0105 0.0059 'International Tables Vol C Tables 4.2.6.8 and 6.1.1.4'
Ni Ni 0.3420 1.0875 'International Tables Vol C Tables 4.2.6.8 and 6.1.1.4'
loop_
_geom_angle_atom_site_label_1
_geom_angle_atom_site_label_2
_geom_angle_atom_site_label_3
_geom_angle
_geom_angle_site_symmetry_1
_geom_angle_site_symmetry_3
N1 Ni1 N1 180.0 5_665 .
N1 Ni1 N3 94.21(8) 5_665 5_665
N1 Ni1 N3 85.79(8) . 5_665
N1 Ni1 N3 85.79(8) 5_665 .
N1 Ni1 N3 94.21(8) . .
N3 Ni1 N3 180.0 5_665 .
N1 Ni1 O1 92.47(6) 5_665 5_665
N1 Ni1 O1 87.52(6) . 5_665
N3 Ni1 O1 86.50(7) 5_665 5_665
N3 Ni1 O1 93.50(7) . 5_665
N1 Ni1 O1 87.53(6) 5_665 .
N1 Ni1 O1 92.47(6) . .
N3 Ni1 O1 93.50(7) 5_665 .
N3 Ni1 O1 86.51(7) . .
O1 Ni1 O1 180.0 5_665 .
N5 Ni2 N5 180.0 7_656 .
N5 Ni2 N7 85.27(9) 7_656 .
N5 Ni2 N7 94.73(9) . .
N5 Ni2 N7 94.73(9) 7_656 7_656
N5 Ni2 N7 85.27(9) . 7_656
N7 Ni2 N7 180.0 . 7_656
N5 Ni2 O3 87.29(7) 7_656 .
N5 Ni2 O3 92.71(7) . .
N7 Ni2 O3 90.53(7) . .
N7 Ni2 O3 89.47(7) 7_656 .
N5 Ni2 O3 92.71(7) 7_656 7_656
N5 Ni2 O3 87.29(7) . 7_656
N7 Ni2 O3 89.47(7) . 7_656
N7 Ni2 O3 90.53(7) 7_656 7_656
O3 Ni2 O3 180.0 . 7_656
C15 O1 Ni1 135.76(13) . .
C22 O3 Ni2 133.11(15) . .
C1 N1 C2 113.42(17) . .
C1 N1 Ni1 105.72(14) . .
C2 N1 Ni1 112.64(13) . .
C1 N1 H1 108.3 . .
C2 N1 H1 108.3 . .
Ni1 N1 H1 108.3 . .
C3 N2 C2 117.18(19) . .
C3 N2 C5 115.9(2) . .
C2 N2 C5 114.1(2) . .
C4 N3 C3 114.23(17) . .
C4 N3 Ni1 106.36(14) . .
C3 N3 Ni1 113.62(15) . .
C4 N3 H3 107.4 . .
C3 N3 H3 107.4 . .
Ni1 N3 H3 107.4 . .
C8 N5 C9 114.9(2) . .
C8 N5 Ni2 106.52(17) . .
C9 N5 Ni2 114.92(16) . .
C8 N5 H5 106.6 . .
C9 N5 H5 106.6 . .
Ni2 N5 H5 106.6 . .
C9 N6 C10 117.4(2) . .
C9 N6 C12 115.3(2) . .
C10 N6 C12 115.8(3) . .
C11 N7 C10 113.9(2) . .
C11 N7 Ni2 105.52(17) . .
C10 N7 Ni2 113.08(16) . .
C11 N7 H7 108.0 . .
C10 N7 H7 108.0 . .
Ni2 N7 H7 108.0 . .
N1 C1 C4 110.27(18) . 5_665
N1 C1 H1A 109.6 . .
C4 C1 H1A 109.6 5_665 .
N1 C1 H1AB 109.6 . .
C4 C1 H1AB 109.6 5_665 .
H1A C1 H1AB 108.1 . .
N2 C2 N1 114.06(18) . .
N2 C2 H2A 108.7 . .
N1 C2 H2A 108.7 . .
N2 C2 H2AB 108.7 . .
N1 C2 H2AB 108.7 . .
H2A C2 H2AB 107.6 . .
N2 C3 N3 114.30(18) . .
N2 C3 H3A 108.7 . .
N3 C3 H3A 108.7 . .
N2 C3 H3AB 108.7 . .
N3 C3 H3AB 108.7 . .
H3A C3 H3AB 107.6 . .
N3 C4 C1 108.45(18) . 5_665
N3 C4 H4A 110.0 . .
C1 C4 H4A 110.0 5_665 .
N3 C4 H4AB 110.0 . .
C1 C4 H4AB 110.0 5_665 .
H4A C4 H4AB 108.4 . .
N2 C5 C6 112.1(2) . .
N2 C5 H5A 109.2 . .
C6 C5 H5A 109.2 . .
N2 C5 H5AB 109.2 . .
C6 C5 H5AB 109.2 . .
H5A C5 H5AB 107.9 . .
C7 C6 C5 112.6(3) . .
C7 C6 H6A 109.1 . .
C5 C6 H6A 109.1 . .
C7 C6 H6B 109.1 . .
C5 C6 H6B 109.1 . .
H6A C6 H6B 107.8 . .
N4 C7 C6 177.9(5) . .
N5 C8 C11 108.6(2) . 7_656
N5 C8 H8A 110.0 . .
C11 C8 H8A 110.0 7_656 .
N5 C8 H8AB 110.0 . .
C11 C8 H8AB 110.0 7_656 .
H8A C8 H8AB 108.4 . .
N6 C9 N5 113.8(2) . .
N6 C9 H9A 108.8 . .
N5 C9 H9A 108.8 . .
N6 C9 H9AB 108.8 . .
N5 C9 H9AB 108.8 . .
H9A C9 H9AB 107.7 . .
N6 C10 N7 113.8(2) . .
N6 C10 H10A 108.8 . .
N7 C10 H10A 108.8 . .
N6 C10 H10B 108.8 . .
N7 C10 H10B 108.8 . .
H10A C10 H10B 107.7 . .
N7 C11 C8 108.9(2) . 7_656
N7 C11 H11A 109.9 . .
C8 C11 H11A 109.9 7_656 .
N7 C11 H11B 109.9 . .
C8 C11 H11B 109.9 7_656 .
H11A C11 H11B 108.3 . .
C13 C12 N6 112.7(3) . .
C13 C12 H12A 109.1 . .
N6 C12 H12A 109.1 . .
C13 C12 H12B 109.1 . .
N6 C12 H12B 109.1 . .
H12A C12 H12B 107.8 . .
C14 C13 C12 115.4(5) . .
C14 C13 H13A 108.4 . .
C12 C13 H13A 108.4 . .
C14 C13 H13B 108.4 . .
C12 C13 H13B 108.4 . .
H13A C13 H13B 107.5 . .
N8 C14 C13 177.4(7) . .
O2 C15 O1 126.02(18) . .
O2 C15 C16 119.19(16) . .
O1 C15 C16 114.74(17) . .
C21 C16 C17 118.78(17) . .
C21 C16 C15 124.09(16) . .
C17 C16 C15 116.94(18) . .
C18 C17 C16 121.4(2) . .
C18 C17 H17 119.3 . .
C16 C17 H17 119.3 . .
C19 C18 C17 119.98(19) . .
C19 C18 H18 120.0 . .
C17 C18 H18 120.0 . .
C18 C19 C20 119.01(18) . .
C18 C19 C22 121.73(18) . .
C20 C19 C22 119.1(2) . .
C21 C20 C19 121.65(19) . .
C21 C20 H20 119.2 . .
C19 C20 H20 119.2 . .
C20 C21 C16 119.13(17) . .
C20 C21 C21 116.47(14) . 2_655
C16 C21 C21 124.40(12) . 2_655
O4 C22 O3 125.6(2) . .
O4 C22 C19 118.33(19) . .
O3 C22 C19 116.1(2) . .
loop_
_geom_bond_atom_site_label_1
_geom_bond_atom_site_label_2
_geom_bond_distance
_geom_bond_site_symmetry_2
N8 C14 1.132(6) .
Ni1 N1 2.0507(18) 5_665
Ni1 N1 2.0507(18) .
Ni1 N3 2.0644(19) 5_665
Ni1 N3 2.0645(19) .
Ni1 O1 2.1143(13) 5_665
Ni1 O1 2.1143(13) .
Ni2 N5 2.0550(19) 7_656
Ni2 N5 2.0550(19) .
Ni2 N7 2.056(2) .
Ni2 N7 2.056(2) 7_656
Ni2 O3 2.1148(14) .
Ni2 O3 2.1148(14) 7_656
O1 C15 1.267(2) .
O2 C15 1.246(2) .
O3 C22 1.253(2) .
O4 C22 1.246(3) .
N1 C1 1.467(3) .
N1 C2 1.479(3) .
N1 H1 0.9900 .
N2 C3 1.434(3) .
N2 C2 1.441(3) .
N2 C5 1.454(3) .
N3 C4 1.471(3) .
N3 C3 1.490(3) .
N3 H3 0.9900 .
N4 C7 1.140(4) .
N5 C8 1.465(3) .
N5 C9 1.477(3) .
N5 H5 0.9900 .
N6 C9 1.442(4) .
N6 C10 1.455(4) .
N6 C12 1.460(4) .
N7 C11 1.471(3) .
N7 C10 1.493(3) .
N7 H7 0.9900 .
C1 C4 1.517(3) 5_665
C1 H1A 0.9800 .
C1 H1AB 0.9800 .
C2 H2A 0.9800 .
C2 H2AB 0.9800 .
C3 H3A 0.9800 .
C3 H3AB 0.9800 .
C4 H4A 0.9800 .
C4 H4AB 0.9800 .
C5 C6 1.464(4) .
C5 H5A 0.9800 .
C5 H5AB 0.9800 .
C6 C7 1.446(4) .
C6 H6A 0.9800 .
C6 H6B 0.9800 .
C8 C11 1.507(4) 7_656
C8 H8A 0.9800 .
C8 H8AB 0.9800 .
C9 H9A 0.9800 .
C9 H9AB 0.9800 .
C10 H10A 0.9800 .
C10 H10B 0.9800 .
C11 H11A 0.9800 .
C11 H11B 0.9800 .
C12 C13 1.443(5) .
C12 H12A 0.9800 .
C12 H12B 0.9800 .
C13 C14 1.438(7) .
C13 H13A 0.9800 .
C13 H13B 0.9800 .
C15 C16 1.515(3) .
C16 C21 1.398(3) .
C16 C17 1.401(3) .
C17 C18 1.383(3) .
C17 H17 0.9400 .
C18 C19 1.381(3) .
C18 H18 0.9400 .
C19 C20 1.396(3) .
C19 C22 1.513(3) .
C20 C21 1.390(2) .
C20 H20 0.9400 .
C21 C21 1.509(3) 2_655
loop_
_geom_hbond_atom_site_label_D
_geom_hbond_atom_site_label_H
_geom_hbond_atom_site_label_A
_geom_hbond_distance_DH
_geom_hbond_distance_HA
_geom_hbond_distance_DA
_geom_hbond_angle_DHA
_geom_hbond_site_symmetry_A
_geom_hbond_publ_flag
N1 H1 O2 0.99 2.17 3.027(2) 143.6 . yes
N5 H5 O4 0.99 1.95 2.859(3) 152.0 . yes
N7 H7 N4 0.99 2.31 3.071(3) 133.3 5_666 yes
loop_
_geom_torsion_atom_site_label_1
_geom_torsion_atom_site_label_2
_geom_torsion_atom_site_label_3
_geom_torsion_atom_site_label_4
_geom_torsion
_geom_torsion_site_symmetry_4
C2 N1 C1 C4 -164.32(17) 5_665
Ni1 N1 C1 C4 -40.42(19) 5_665
C3 N2 C2 N1 -71.6(2) .
C5 N2 C2 N1 68.6(3) .
C1 N1 C2 N2 178.69(18) .
Ni1 N1 C2 N2 58.6(2) .
C2 N2 C3 N3 68.9(3) .
C5 N2 C3 N3 -70.6(3) .
C4 N3 C3 N2 -176.87(19) .
Ni1 N3 C3 N2 -54.6(2) .
C3 N3 C4 C1 165.30(19) 5_665
Ni1 N3 C4 C1 39.15(19) 5_665
C3 N2 C5 C6 -80.3(3) .
C2 N2 C5 C6 138.9(3) .
N2 C5 C6 C7 -172.4(3) .
C9 N5 C8 C11 -168.5(2) 7_656
Ni2 N5 C8 C11 -40.0(2) 7_656
C10 N6 C9 N5 -69.5(3) .
C12 N6 C9 N5 72.5(3) .
C8 N5 C9 N6 178.3(2) .
Ni2 N5 C9 N6 54.2(3) .
C9 N6 C10 N7 71.4(3) .
C12 N6 C10 N7 -70.4(3) .
C11 N7 C10 N6 -176.9(2) .
Ni2 N7 C10 N6 -56.4(3) .
C10 N7 C11 C8 167.0(2) 7_656
Ni2 N7 C11 C8 42.4(2) 7_656
C9 N6 C12 C13 129.5(4) .
C10 N6 C12 C13 -87.9(4) .
N6 C12 C13 C14 174.2(5) .
Ni1 O1 C15 O2 26.5(3) .
Ni1 O1 C15 C16 -150.74(15) .
O2 C15 C16 C21 143.2(2) .
O1 C15 C16 C21 -39.4(3) .
O2 C15 C16 C17 -41.9(3) .
O1 C15 C16 C17 135.6(2) .
C21 C16 C17 C18 0.1(3) .
C15 C16 C17 C18 -175.18(18) .
C16 C17 C18 C19 0.3(3) .
C17 C18 C19 C20 0.0(3) .
C17 C18 C19 C22 -175.93(19) .
C18 C19 C20 C21 -0.7(3) .
C22 C19 C20 C21 175.33(17) .
C19 C20 C21 C16 1.1(3) .
C19 C20 C21 C21 -178.96(18) 2_655
C17 C16 C21 C20 -0.8(3) .
C15 C16 C21 C20 174.12(17) .
C17 C16 C21 C21 179.29(19) 2_655
C15 C16 C21 C21 -5.8(3) 2_655
Ni2 O3 C22 O4 7.0(4) .
Ni2 O3 C22 C19 -173.50(14) .
C18 C19 C22 O4 -167.0(2) .
C20 C19 C22 O4 17.1(3) .
C18 C19 C22 O3 13.5(3) .
C20 C19 C22 O3 -162.44(19) .
