#------------------------------------------------------------------------------
#$Date: 2019-05-25 03:10:27 +0300 (Sat, 25 May 2019) $
#$Revision: 215502 $
#$URL: file:///home/coder/svn-repositories/cod/cif/7/12/35/7123538.cif $
#------------------------------------------------------------------------------
#
# This file is available in the Crystallography Open Database (COD),
# http://www.crystallography.net/
#
# All data on this site have been placed in the public domain by the
# contributors.
#
data_7123538
loop_
_publ_author_name
'Jeoung, Sungeun'
'Lee, Songho'
'Lee, Jae Hwa'
'Lee, Soochan'
'Choe, Wonyoung'
'Moon, Dohyun'
'Moon, Hoi Ri'
_publ_section_title
;
 Tuning of the flexibility in metal-organic frameworks based on pendant
 arm macrocycles
;
_journal_name_full               'Chemical Communications'
_journal_paper_doi               10.1039/C9CC02819F
_journal_year                    2019
_chemical_formula_moiety         'C80 H132 N24 Ni4 O24'
_chemical_formula_sum            'C80 H132 N24 Ni4 O24'
_chemical_formula_weight         2048.93
_chemical_name_systematic        cp-flexMOF(OH)
_space_group_crystal_system      triclinic
_space_group_IT_number           2
_space_group_name_Hall           '-P 1'
_space_group_name_H-M_alt        'P -1'
_symmetry_space_group_name_Hall  '-P 1'
_symmetry_space_group_name_H-M   'P -1'
_atom_sites_solution_hydrogens   geom
_audit_creation_method           SHELXL-2018/3
_audit_update_record
;
2019-05-17 deposited with the CCDC.    2019-05-24 downloaded from the CCDC.
;
_cell_angle_alpha                90.994(10)
_cell_angle_beta                 103.450(7)
_cell_angle_gamma                90.421(10)
_cell_formula_units_Z            1
_cell_length_a                   9.819(3)
_cell_length_b                   15.316(3)
_cell_length_c                   16.301(3)
_cell_measurement_reflns_used    39647
_cell_measurement_temperature    100(2)
_cell_measurement_theta_max      32.838
_cell_measurement_theta_min      1.803
_cell_volume                     2383.7(10)
_computing_cell_refinement       'HKL3000sm(Otwinowski & Minor, 1997)'
_computing_data_collection       'PAL BL2D-SMDC Program(Shin et.al, 2016)'
_computing_data_reduction        'HKL3000sm(Otwinowski & Minor, 1997)'
_computing_molecular_graphics    ORTEP3
_computing_publication_material  CIFTAB
_computing_structure_refinement  'SHELXL-2018(Sheldrick, 2018)'
_computing_structure_solution    'SHELXT-2018(Sheldrick, 2018)'
_diffrn_ambient_temperature      100(2)
_diffrn_measured_fraction_theta_full 0.920
_diffrn_measured_fraction_theta_max 0.920
_diffrn_measurement_device_type  'ADSC Q210 CCD area detector'
_diffrn_measurement_method       'omega scan'
_diffrn_radiation_type           synchrotron
_diffrn_radiation_wavelength     0.700
_diffrn_reflns_av_R_equivalents  0.0325
_diffrn_reflns_av_unetI/netI     0.0516
_diffrn_reflns_Laue_measured_fraction_full 0.920
_diffrn_reflns_Laue_measured_fraction_max 0.920
_diffrn_reflns_limit_h_max       11
_diffrn_reflns_limit_h_min       -11
_diffrn_reflns_limit_k_max       18
_diffrn_reflns_limit_k_min       -18
_diffrn_reflns_limit_l_max       19
_diffrn_reflns_limit_l_min       -19
_diffrn_reflns_number            15154
_diffrn_reflns_point_group_measured_fraction_full 0.920
_diffrn_reflns_point_group_measured_fraction_max 0.920
_diffrn_reflns_theta_full        24.835
_diffrn_reflns_theta_max         24.999
_diffrn_reflns_theta_min         1.803
_diffrn_source                   'PLSII 2D bending magnet'
_exptl_absorpt_coefficient_mu    0.824
_exptl_absorpt_correction_T_max  1.000
_exptl_absorpt_correction_T_min  0.960
_exptl_absorpt_correction_type   empirical
_exptl_absorpt_process_details   'HKL3000sm Scalepack(Otwinowski et.al,2003)'
_exptl_crystal_colour            purple
_exptl_crystal_density_diffrn    1.427
_exptl_crystal_description       needle
_exptl_crystal_F_000             1084
_exptl_crystal_size_max          0.050
_exptl_crystal_size_mid          0.030
_exptl_crystal_size_min          0.010
_refine_diff_density_max         0.918
_refine_diff_density_min         -0.722
_refine_diff_density_rms         0.094
_refine_ls_extinction_method     none
_refine_ls_goodness_of_fit_ref   1.002
_refine_ls_hydrogen_treatment    constr
_refine_ls_matrix_type           full
_refine_ls_number_parameters     605
_refine_ls_number_reflns         8088
_refine_ls_number_restraints     0
_refine_ls_restrained_S_all      1.002
_refine_ls_R_factor_all          0.1226
_refine_ls_R_factor_gt           0.0837
_refine_ls_shift/su_max          0.000
_refine_ls_shift/su_mean         0.000
_refine_ls_structure_factor_coef Fsqd
_refine_ls_weighting_details
'w=1/[\s^2^(Fo^2^)+(0.1810P)^2^] where P=(Fo^2^+2Fc^2^)/3'
_refine_ls_weighting_scheme      calc
_refine_ls_wR_factor_gt          0.2282
_refine_ls_wR_factor_ref         0.2616
_reflns_Friedel_coverage         0.000
_reflns_number_gt                4866
_reflns_number_total             8088
_reflns_threshold_expression     'I > 2\s(I)'
_cod_data_source_file            c9cc02819f2.cif
_cod_data_source_block           cp_OH_sq
_cod_database_code               7123538
_shelx_shelxl_version_number     2018/3
_shelx_space_group_comment
;
The symmetry employed for this shelxl refinement is uniquely defined
by the following loop, which should always be used as a source of
symmetry information in preference to the above space-group names.
They are only intended as comments.
;
_shelx_estimated_absorpt_t_min   0.960
_shelx_estimated_absorpt_t_max   0.992
_shelx_res_file
;
TITL cp_OH in P-1
    cp_OH_sq.res
    created by SHELXL-2018/3 at 21:03:06 on 02-May-2019
CELL  0.70000   9.8190  15.3160  16.3010   90.994  103.450   90.421
ZERR    1.000   0.0030   0.0030   0.0030    0.010    0.007    0.010
LATT 1
SFAC C  H  N  O   Ni
DISP C          0.0030         0.0016          10.98
DISP H          0.0000         0.0000           0.67
DISP N          0.0059         0.0032          18.71
DISP O          0.0105         0.0059          30.82
DISP Ni         0.3420         1.0875        4371.60
UNIT 80 132 24 24 4
OMIT -3 50
OMIT 0 4 2
OMIT 0 -3 1
OMIT -1 -2 1
OMIT -1 -1 1
OMIT -1 3 1
ACTA
L.S. 20 0   11
BOND $H
FMAP -2
PLAN -10
SIZE 0.050 0.030 0.010
TEMP -173
CONF
EQIV $1 -x+1, -y+1, -z
HTAB O9 O5
HTAB O10 O3
HTAB O11 O1
HTAB O12 O9_$1
HTAB N2 O1
HTAB N5 O3
HTAB N5 O10
HTAB N7 O5
HTAB N8 O1
HTAB N10 O12
HTAB N11 O7
ABIN
WGHT    0.181000
FVAR       0.52053
NI1   5    0.500000    1.000000    0.000000    10.50000    0.07297    0.07212 =
         0.05181    0.01362    0.01538   -0.00352
NI2   5    1.000000    1.000000    0.500000    10.50000    0.07636    0.07166 =
         0.05160    0.00366    0.01288   -0.01041
NI3   5    0.500000    0.500000    0.000000    10.50000    0.08708    0.06913 =
         0.04895    0.00503    0.01694   -0.00648
NI4   5    0.500000    0.500000    0.500000    10.50000    0.08402    0.07896 =
         0.05192    0.01480    0.01829   -0.00849
O1    4    0.348380    0.784191   -0.011376    11.00000    0.11160    0.08115 =
         0.05114    0.00860    0.01260   -0.01076
O2    4    0.466288    0.890303    0.071206    11.00000    0.08352    0.06899 =
         0.05795    0.01340    0.01427   -0.00521
O3    4    1.025131    0.977613    0.289343    11.00000    0.08532    0.08916 =
         0.05441    0.00142    0.01425   -0.02050
O4    4    0.897467    0.937480    0.381172    11.00000    0.08663    0.08944 =
         0.05139   -0.00152    0.01926   -0.01008
O5    4    0.672371    0.693715   -0.015949    11.00000    0.12321    0.09392 =
         0.05473   -0.00250    0.02416   -0.03404
O6    4    0.582422    0.615767    0.073078    11.00000    0.08882    0.06850 =
         0.05872    0.00183    0.02160   -0.01284
O7    4    0.235947    0.625449    0.374886    11.00000    0.08906    0.09612 =
         0.06533    0.02002    0.03220    0.00260
O8    4    0.459761    0.585964    0.394937    11.00000    0.08510    0.08363 =
         0.06240    0.02106    0.02151   -0.00417
O9    4    0.856586    0.730832   -0.102218    11.00000    0.12050    0.10686 =
         0.10879    0.00348    0.04257   -0.00683
AFIX 147
H9    2    0.798046    0.734821   -0.072115    11.00000   -1.50000
AFIX   0
O10   4    1.309006    0.998302    0.310472    11.00000    0.12231    0.14767 =
         0.10320    0.00024    0.03116   -0.01705
AFIX 147
H10A  2    1.223695    0.991334    0.309469    11.00000   -1.50000
AFIX   0
O11   4    0.198855    0.750526   -0.176424    11.00000    0.10580    0.10203 =
         0.06671   -0.00014    0.01558    0.00453
AFIX 147
H11   2    0.243595    0.760798   -0.126615    11.00000   -1.50000
AFIX   0
O12   4    0.247217    0.353178    0.249772    11.00000    0.11449    0.16437 =
         0.07430   -0.00123    0.02020   -0.01252
AFIX 147
H12   2    0.227086    0.341054    0.197868    11.00000   -1.50000
AFIX   0
N1    3    0.707418    0.968581    0.032358    11.00000    0.08005    0.06776 =
         0.06285    0.01145    0.02058    0.00020
AFIX  13
H1    2    0.714257    0.908283    0.055425    11.00000   -1.20000
AFIX   0
N2    3    0.465704    0.927790   -0.109742    11.00000    0.08177    0.07103 =
         0.06083    0.00733    0.01884   -0.00763
AFIX  13
H2    2    0.454142    0.865193   -0.095989    11.00000   -1.20000
AFIX   0
N3    3    0.711428    0.905024   -0.102727    11.00000    0.07606    0.10442 =
         0.06735    0.00071    0.02269   -0.00021
N4    3    1.107904    0.886980    0.529221    11.00000    0.09083    0.08050 =
         0.06078    0.01117    0.01478   -0.00574
AFIX  13
H4    2    1.092288    0.850462    0.476337    11.00000   -1.20000
AFIX   0
N5    3    1.147225    1.055612    0.448461    11.00000    0.08219    0.07994 =
         0.06092    0.01027    0.01489   -0.01165
AFIX  13
H5    2    1.131741    1.031521    0.389564    11.00000   -1.20000
AFIX   0
N6    3    1.324017    0.946032    0.500229    11.00000    0.08712    0.10241 =
         0.06351    0.00115    0.01363   -0.00073
N7    3    0.592769    0.528775   -0.096646    11.00000    0.08598    0.07348 =
         0.05797    0.00576    0.01785   -0.01060
AFIX  13
H7    2    0.630257    0.589886   -0.086577    11.00000   -1.20000
AFIX   0
N8    3    0.320757    0.567631   -0.049243    11.00000    0.08756    0.08445 =
         0.05604   -0.00050    0.01652   -0.00864
AFIX  13
H8    2    0.340132    0.631077   -0.035608    11.00000   -1.20000
AFIX   0
N9    3    0.376551    0.581501   -0.189113    11.00000    0.09366    0.08194 =
         0.05187    0.00702    0.01500    0.00466
N10   3    0.462523    0.398550    0.415862    11.00000    0.08663    0.08316 =
         0.06277    0.01784    0.01229   -0.00629
AFIX  13
H10   2    0.421910    0.423226    0.359125    11.00000   -1.20000
AFIX   0
N11   3    0.295578    0.505556    0.511397    11.00000    0.08688    0.09478 =
         0.05602    0.01219    0.01957   -0.00932
AFIX  13
H11A  2    0.242145    0.538144    0.461736    11.00000   -1.20000
AFIX   0
N12   3    0.226793    0.367213    0.437153    11.00000    0.08984    0.07989 =
         0.06781    0.01392    0.01560   -0.00839
C1    1    0.404431    0.818101    0.057760    11.00000    0.08090    0.06269 =
         0.05904    0.00685    0.01614    0.00682
C2    1    0.394932    0.768012    0.137254    11.00000    0.07176    0.06240 =
         0.05157    0.00860    0.01472    0.00034
C3    1    0.263530    0.748836    0.150484    11.00000    0.07671    0.07143 =
         0.05907    0.01009    0.01580   -0.00058
AFIX  43
H3    2    0.182081    0.765441    0.110037    11.00000   -1.20000
AFIX   0
C4    1    0.250192    0.705894    0.221827    11.00000    0.07987    0.07187 =
         0.05508    0.00568    0.02004   -0.00440
AFIX  43
H4A   2    0.159603    0.695266    0.231158    11.00000   -1.20000
AFIX   0
C5    1    0.367062    0.678061    0.280043    11.00000    0.08590    0.06699 =
         0.05228    0.01050    0.01988   -0.00087
C6    1    0.497931    0.697071    0.267528    11.00000    0.08500    0.06782 =
         0.05038    0.01309    0.01760    0.00175
AFIX  43
H6    2    0.578322    0.678433    0.307686    11.00000   -1.20000
AFIX   0
C7    1    0.515798    0.743215    0.197091    11.00000    0.07323    0.06453 =
         0.04950    0.00902    0.01339   -0.00756
C8    1    0.350058    0.625682    0.356055    11.00000    0.08526    0.07723 =
         0.05017    0.00690    0.01290   -0.00346
C9    1    0.934399    0.929928    0.312046    11.00000    0.07959    0.06921 =
         0.06137    0.00852    0.00710    0.00639
C10   1    0.862980    0.859764    0.249762    11.00000    0.07041    0.07568 =
         0.05552    0.00505    0.01257   -0.00246
C11   1    0.733238    0.826641    0.252658    11.00000    0.07714    0.06305 =
         0.04996    0.00972    0.01405    0.00642
AFIX  43
H11B  2    0.692883    0.844045    0.297895    11.00000   -1.20000
AFIX   0
C12   1    0.659551    0.768501    0.191371    11.00000    0.07959    0.06188 =
         0.05202    0.01254    0.01478    0.00015
C13   1    0.718882    0.741625    0.126075    11.00000    0.07506    0.05844 =
         0.06118    0.00871    0.01705   -0.00513
C14   1    0.854765    0.773748    0.126267    11.00000    0.08033    0.07129 =
         0.05822    0.00498    0.01816    0.01120
AFIX  43
H14   2    0.898837    0.753392    0.083607    11.00000   -1.20000
AFIX   0
C15   1    0.924457    0.832251    0.184711    11.00000    0.06937    0.07241 =
         0.05722    0.00611    0.00931    0.00045
AFIX  43
H15   2    1.013759    0.854222    0.181497    11.00000   -1.20000
AFIX   0
C16   1    0.651866    0.679786    0.055928    11.00000    0.08715    0.07965 =
         0.05394   -0.00002    0.02045   -0.00782
C17   1    0.329543    0.958731   -0.160199    11.00000    0.08274    0.07427 =
         0.06085    0.00824    0.00975   -0.00396
AFIX  23
H17A  2    0.290572    0.915798   -0.205882    11.00000   -1.20000
H17B  2    0.342951    1.015108   -0.186237    11.00000   -1.20000
AFIX   0
C18   1    0.770546    1.030080    0.103062    11.00000    0.07811    0.07274 =
         0.06578    0.01152    0.00902   -0.00266
AFIX  23
H18A  2    0.789360    1.087308    0.080354    11.00000   -1.20000
H18B  2    0.860484    1.006775    0.135433    11.00000   -1.20000
AFIX   0
C19   1    0.579710    0.933744   -0.155133    11.00000    0.08722    0.08367 =
         0.06914   -0.00031    0.02810   -0.00600
AFIX  23
H19A  2    0.555375    0.897054   -0.207189    11.00000   -1.20000
H19B  2    0.589792    0.994910   -0.171687    11.00000   -1.20000
AFIX   0
C20   1    0.778544    0.969074   -0.036985    11.00000    0.08510    0.08290 =
         0.07916    0.00601    0.03089   -0.00060
AFIX  23
H20A  2    0.878359    0.954309   -0.015642    11.00000   -1.20000
H20B  2    0.773959    1.028102   -0.061214    11.00000   -1.20000
AFIX   0
C21   1    0.813298    0.878521   -0.152138    11.00000    0.10854    0.09981 =
         0.08249   -0.00292    0.03302    0.00949
AFIX  23
H21A  2    0.864290    0.931042   -0.164041    11.00000   -1.20000
H21B  2    0.761854    0.852898   -0.206856    11.00000   -1.20000
AFIX   0
C22   1    0.916661    0.813971   -0.108284    11.00000    0.10849    0.10961 =
         0.09330   -0.00493    0.03829   -0.01149
AFIX  23
H22A  2    0.991901    0.807747   -0.139139    11.00000   -1.20000
H22B  2    0.959922    0.836588   -0.050792    11.00000   -1.20000
AFIX   0
C23   1    1.040882    0.841087    0.588121    11.00000    0.11723    0.08365 =
         0.07045    0.01698    0.02199   -0.00642
AFIX  23
H23A  2    1.073495    0.866398    0.645721    11.00000   -1.20000
H23B  2    1.065616    0.778495    0.589573    11.00000   -1.20000
AFIX   0
C24   1    1.114392    1.149145    0.441403    11.00000    0.10556    0.08324 =
         0.07392    0.00354    0.02297   -0.02192
AFIX  23
H24A  2    1.161986    1.176230    0.400761    11.00000   -1.20000
H24B  2    1.147899    1.178930    0.496912    11.00000   -1.20000
AFIX   0
C25   1    1.293550    1.035809    0.490966    11.00000    0.07176    0.11476 =
         0.06797    0.00124    0.01028   -0.01681
AFIX  23
H25A  2    1.356421    1.062179    0.458497    11.00000   -1.20000
H25B  2    1.315058    1.064147    0.547628    11.00000   -1.20000
AFIX   0
C26   1    1.262002    0.900989    0.559527    11.00000    0.09336    0.09312 =
         0.06614    0.00660    0.01392    0.00395
AFIX  23
H26A  2    1.280617    0.935108    0.613193    11.00000   -1.20000
H26B  2    1.307433    0.843598    0.571248    11.00000   -1.20000
AFIX   0
C27   1    1.322567    0.892393    0.421750    11.00000    0.10413    0.16715 =
         0.07223    0.00796    0.03141    0.00040
AFIX  23
H27A  2    1.367228    0.835874    0.439423    11.00000   -1.20000
H27B  2    1.223605    0.879624    0.393544    11.00000   -1.20000
AFIX   0
C28   1    1.390020    0.928605    0.359549    11.00000    0.12487    0.14507 =
         0.10647    0.01122    0.01405    0.02066
AFIX  23
H28A  2    1.404480    0.881248    0.320446    11.00000   -1.20000
H28B  2    1.483259    0.952175    0.388581    11.00000   -1.20000
AFIX   0
C29   1    0.710906    0.472099   -0.089689    11.00000    0.09936    0.08502 =
         0.06444    0.00360    0.02498   -0.00301
AFIX  23
H29A  2    0.777616    0.496911   -0.120424    11.00000   -1.20000
H29B  2    0.679187    0.414111   -0.115060    11.00000   -1.20000
AFIX   0
C30   1    0.217266    0.537397   -0.003131    11.00000    0.09502    0.09442 =
         0.06662    0.00670    0.01350    0.00549
AFIX  23
H30A  2    0.176644    0.480509   -0.026947    11.00000   -1.20000
H30B  2    0.140411    0.579993   -0.008991    11.00000   -1.20000
AFIX   0
C31   1    0.493435    0.525879   -0.181412    11.00000    0.09621    0.09312 =
         0.05330    0.00352    0.01754   -0.01686
AFIX  23
H31A  2    0.545272    0.542040   -0.224349    11.00000   -1.20000
H31B  2    0.458906    0.465104   -0.194059    11.00000   -1.20000
AFIX   0
C32   1    0.272896    0.556769   -0.143818    11.00000    0.09636    0.08642 =
         0.05991    0.00748    0.00923   -0.00421
AFIX  23
H32A  2    0.245936    0.494887   -0.157596    11.00000   -1.20000
H32B  2    0.188360    0.592448   -0.163655    11.00000   -1.20000
AFIX   0
C33   1    0.412026    0.674420   -0.186120    11.00000    0.11110    0.08025 =
         0.05915    0.00774    0.01524    0.00034
AFIX  23
H33A  2    0.490406    0.683021   -0.214028    11.00000   -1.20000
H33B  2    0.445040    0.693450   -0.126386    11.00000   -1.20000
AFIX   0
C34   1    0.293636    0.730955   -0.227237    11.00000    0.11306    0.09045 =
         0.06027   -0.00076    0.02439    0.00533
AFIX  23
H34A  2    0.332415    0.786367   -0.243042    11.00000   -1.20000
H34B  2    0.241589    0.701458   -0.279850    11.00000   -1.20000
AFIX   0
C35   1    0.598849    0.364439    0.413877    11.00000    0.09897    0.09831 =
         0.06179   -0.00360    0.02424   -0.00999
AFIX  23
H35A  2    0.591155    0.326766    0.362999    11.00000   -1.20000
H35B  2    0.633834    0.328483    0.464140    11.00000   -1.20000
AFIX   0
C36   1    0.300589    0.561960    0.587266    11.00000    0.09437    0.10776 =
         0.05566    0.00453    0.02382   -0.00474
AFIX  23
H36A  2    0.332011    0.527774    0.639115    11.00000   -1.20000
H36B  2    0.206360    0.585064    0.586355    11.00000   -1.20000
AFIX   0
C37   1    0.359533    0.331533    0.432595    11.00000    0.10918    0.08206 =
         0.06867    0.01541    0.01714   -0.01238
AFIX  23
H37A  2    0.344221    0.286250    0.387200    11.00000   -1.20000
H37B  2    0.400756    0.302725    0.486455    11.00000   -1.20000
AFIX   0
C38   1    0.225552    0.420437    0.510065    11.00000    0.09020    0.08955 =
         0.06704    0.01512    0.01932   -0.01329
AFIX  23
H38A  2    0.271731    0.388376    0.561072    11.00000   -1.20000
H38B  2    0.127116    0.430072    0.512826    11.00000   -1.20000
AFIX   0
C39   1    0.137632    0.402110    0.357690    11.00000    0.09878    0.15978 =
         0.07338    0.00262    0.00678    0.01301
AFIX  23
H39A  2    0.042800    0.412056    0.366982    11.00000   -1.20000
H39B  2    0.176457    0.459725    0.347626    11.00000   -1.20000
AFIX   0
C40   1    0.123186    0.348883    0.281416    11.00000    0.10682    0.17350 =
         0.08343    0.00026    0.02102   -0.01719
AFIX  23
H40A  2    0.104280    0.287481    0.293685    11.00000   -1.20000
H40B  2    0.042549    0.369470    0.237875    11.00000   -1.20000
LIST 4

REM  cp_OH in P-1
REM wR2 = 0.3886, GooF = S = 1.190, Restrained GooF = 1.190 for all data
REM R1 = 0.1233 for 5431 Fo > 4sig(Fo) and 0.2123 for all 13226 data
REM 605 parameters refined using 0 restraints

AFIX   0
HKLF 4




REM  cp_OH in P-1
REM wR2 = 0.2616, GooF = S = 1.002, Restrained GooF = 1.002 for all data
REM R1 = 0.0837 for 4866 Fo > 4sig(Fo) and 0.1226 for all 8088 data
REM 605 parameters refined using 0 restraints

END

WGHT      0.1810      0.0000

REM Highest difference peak  0.918,  deepest hole -0.722,  1-sigma level  0.094
Q1    1   0.5380  0.5626  0.0334  11.00000  0.05    0.92
Q2    1   0.4012  1.0188 -0.0047  11.00000  0.05    0.92
Q3    1   0.5338  1.0653  0.0323  11.00000  0.05    0.91
Q4    1   0.9643  0.9383  0.4686  11.00000  0.05    0.88
Q5    1   0.3990  0.5193 -0.0013  11.00000  0.05    0.86
Q6    1   1.0989  0.9805  0.5018  11.00000  0.05    0.82
Q7    1   0.3970  0.5189  0.5006  11.00000  0.05    0.75
Q8    1   0.4654  0.4367  0.4661  11.00000  0.05    0.73
Q9    1   1.0685  1.0428  0.4799  11.00000  0.05   -0.72
Q10   1   0.4305  0.9549  0.0190  11.00000  0.05   -0.65
;
_shelx_res_checksum              45147
_shelx_fab_file
;
    0    0    3      3.65      0.00
    0    0    4     -4.47      0.00
    0    0    5      4.18      0.00
    0    0    6     -5.36      0.00
    0    0    7      3.25      0.00
    0    0    8     -0.59      0.00
    0    0    9     -1.46      0.00
    0    0   10      2.67      0.00
    0    0   11     -1.97      0.00
    0    0   12      1.19      0.00
    0    0   13     -0.58      0.00
    0    0   14      0.10      0.00
    0    0   15      0.56      0.00
    0    0   16     -0.83      0.00
    0    0   17      0.49      0.00
    0    0   18      0.17      0.00
    0    0   19     -0.62      0.00
    0    0   20     -0.15      0.00
    0    0   21      0.34      0.00
    0    0   22     -0.03      0.00
    0   -1   22     -0.36      0.00
    0   -1   21     -0.03      0.00
    0   -1   20      0.45      0.00
    0   -1   19      0.33      0.00
    0   -1   18     -0.74      0.00
    0   -1   17      0.38      0.00
    0   -1   16      0.21      0.00
    0   -1   15     -0.69      0.00
    0   -1   14      0.73      0.00
    0   -1   13     -0.98      0.00
    0   -1   12      0.92      0.00
    0   -1   11     -0.01      0.00
    0   -1   10     -1.79      0.00
    0   -1    9      3.05      0.00
    0   -1    8     -3.20      0.00
    0   -1    7      2.41      0.00
    0   -1    6      0.10      0.00
    0   -1    5     -1.14      0.00
    0   -1    4      4.38      0.00
    0   -1    3    -10.00      0.00
    0   -1    2     15.22      0.00
    0   -1    1     -8.86      0.00
    0    1    1     13.32      0.00
    0    1    2     -7.53      0.00
    0    1    4     -4.83      0.00
    0    1    5      2.76      0.00
    0    1    6      1.72      0.00
    0    1    7     -3.93      0.00
    0    1    8      3.64      0.00
    0    1    9     -2.74      0.00
    0    1   10      0.50      0.00
    0    1   11      0.41      0.00
    0    1   12     -0.92      0.00
    0    1   13      1.19      0.00
    0    1   14     -1.03      0.00
    0    1   15      0.53      0.00
    0    1   16      0.21      0.00
    0    1   17     -0.65      0.00
    0    1   18      0.54      0.00
    0    1   19      0.25      0.00
    0    1   20     -0.12      0.00
    0    1   21     -0.19      0.00
    0    1   22      0.06      0.00
    0   -2   23     -0.19      0.00
    0   -2   22      0.33      0.00
    0   -2   21     -0.28      0.00
    0   -2   20     -0.43      0.00
    0   -2   19      0.37      0.00
    0   -2   18      0.39      0.00
    0   -2   17     -0.59      0.00
    0   -2   16      0.59      0.00
    0   -2   15     -0.35      0.00
    0   -2   14      0.11      0.00
    0   -2   13      0.61      0.00
    0   -2   12     -1.66      0.00
    0   -2   11      2.07      0.00
    0   -2   10     -1.52      0.00
    0   -2    9      0.25      0.00
    0   -2    8      1.01      0.00
    0   -2    7     -2.87      0.00
    0   -2    6      3.70      0.00
    0   -2    5     -5.02      0.00
    0   -2    4      4.96      0.00
    0   -2    3      0.29      0.00
    0   -2    1     16.71      0.00
    0    2    0     -7.67      0.00
    0    2    1      2.18      0.00
    0    2    2     -2.55      0.00
    0    2    3     -3.20      0.00
    0    2    4      5.66      0.00
    0    2    5     -7.07      0.00
    0    2    7     -1.77      0.00
    0    2    8     -0.14      0.00
    0    2    9      2.36      0.00
    0    2   10     -2.15      0.00
    0    2   11      1.71      0.00
    0    2   12     -1.11      0.00
    0    2   13      0.18      0.00
    0    2   14      0.27      0.00
    0    2   15     -0.59      0.00
    0    2   16      0.46      0.00
    0    2   17      0.04      0.00
    0    2   18     -0.51      0.00
    0    2   19      0.20      0.00
    0    2   20     -0.10      0.00
    0    2   21      0.13      0.00
    0    2   22      0.29      0.00
    0   -3   23     -0.05      0.00
    0   -3   22     -0.04      0.00
    0   -3   21      0.19      0.00
    0   -3   20      0.17      0.00
    0   -3   19     -0.75      0.00
    0   -3   18      0.30      0.00
    0   -3   17     -0.10      0.00
    0   -3   16     -0.13      0.00
    0   -3   15      0.61      0.00
    0   -3   14     -0.96      0.00
    0   -3   13      0.93      0.00
    0   -3   12     -0.10      0.00
    0   -3   11     -0.82      0.00
    0   -3   10      1.61      0.00
    0   -3    9     -2.13      0.00
    0   -3    8      2.61      0.00
    0   -3    7     -1.81      0.00
    0   -3    6      0.04      0.00
    0   -3    5      2.72      0.00
    0   -3    4     -6.84      0.00
    0   -3    3      8.08      0.00
    0   -3    2     -4.76      0.00
    0   -3    1     -2.98      0.00
    0    3    0      4.72      0.00
    0    3    1     -6.01      0.00
    0    3    2     10.69      0.00
    0    3    3     -7.17      0.00
    0    3    4      3.55      0.00
    0    3    5      0.28      0.00
    0    3    6     -3.22      0.00
    0    3    7      3.47      0.00
    0    3    8     -3.72      0.00
    0    3    9      1.52      0.00
    0    3   10     -0.21      0.00
    0    3   11     -0.57      0.00
    0    3   12      1.21      0.00
    0    3   13     -0.89      0.00
    0    3   14      0.74      0.00
    0    3   15     -0.32      0.00
    0    3   16     -0.17      0.00
    0    3   17      0.26      0.00
    0    3   18     -0.02      0.00
    0    3   19     -0.02      0.00
    0    3   20      0.31      0.00
    0    3   21     -0.55      0.00
    0    3   22     -0.18      0.00
    0   -4   23     -0.11      0.00
    0   -4   22      0.21      0.00
    0   -4   21     -0.12      0.00
    0   -4   20      0.17      0.00
    0   -4   19      0.51      0.00
    0   -4   18     -0.34      0.00
    0   -4   17      0.36      0.00
    0   -4   16     -0.71      0.00
    0   -4   15      0.27      0.00
    0   -4   14      0.25      0.00
    0   -4   13     -0.87      0.00
    0   -4   12      1.13      0.00
    0   -4   11     -1.14      0.00
    0   -4   10      0.97      0.00
    0   -4    9     -0.28      0.00
    0   -4    8     -1.27      0.00
    0   -4    7      2.94      0.00
    0   -4    6     -3.39      0.00
    0   -4    5      3.06      0.00
    0   -4    4     -0.34      0.00
    0   -4    3     -2.75      0.00
    0   -4    2      5.97      0.00
    0   -4    1     -6.84      0.00
    0    4    0      6.67      0.00
    0    4    1     -4.65      0.00
    0    4    2     -2.73      0.00
    0    4    3      5.05      0.00
    0    4    4     -5.84      0.00
    0    4    5      5.83      0.00
    0    4    6     -3.28      0.00
    0    4    7      1.47      0.00
    0    4    8      1.42      0.00
    0    4    9     -1.95      0.00
    0    4   10      1.79      0.00
    0    4   11     -1.59      0.00
    0    4   12      0.60      0.00
    0    4   13     -0.23      0.00
    0    4   14     -0.22      0.00
    0    4   15      0.44      0.00
    0    4   16     -0.21      0.00
    0    4   17      0.03      0.00
    0    4   18      0.16      0.00
    0    4   19     -0.55      0.00
    0    4   20      0.21      0.00
    0    4   21      0.65      0.00
    0   -5   23      0.04      0.00
    0   -5   22     -0.54      0.00
    0   -5   21      0.26      0.00
    0   -5   20     -0.40      0.00
    0   -5   19     -0.07      0.00
    0   -5   18     -0.04      0.00
    0   -5   17      0.28      0.00
    0   -5   16      0.50      0.00
    0   -5   15     -0.60      0.00
    0   -5   14      0.59      0.00
    0   -5   13     -0.49      0.00
    0   -5   12     -0.01      0.00
    0   -5   11      0.53      0.00
    0   -5   10     -1.42      0.00
    0   -5    9      2.12      0.00
    0   -5    8     -2.05      0.00
    0   -5    7      0.65      0.00
    0   -5    6      0.86      0.00
    0   -5    5     -2.66      0.00
    0   -5    4      3.48      0.00
    0   -5    3     -4.00      0.00
    0   -5    2      2.96      0.00
    0   -5    1      0.98      0.00
    0    5    0     -4.89      0.00
    0    5    2     -5.63      0.00
    0    5    3      3.80      0.00
    0    5    4     -1.78      0.00
    0    5    5     -1.86      0.00
    0    5    6      3.05      0.00
    0    5    7     -3.84      0.00
    0    5    8      2.36      0.00
    0    5    9     -1.12      0.00
    0    5   10      0.23      0.00
    0    5   11      1.06      0.00
    0    5   12     -1.11      0.00
    0    5   13      1.00      0.00
    0    5   14     -0.66      0.00
    0    5   15      0.26      0.00
    0    5   16     -0.12      0.00
    0    5   17     -0.17      0.00
    0    5   18      0.30      0.00
    0    5   19      0.47      0.00
    0    5   20     -0.84      0.00
    0    5   21     -0.07      0.00
    0   -6   22      0.34      0.00
    0   -6   21     -0.23      0.00
    0   -6   20      0.26      0.00
    0   -6   19     -0.03      0.00
    0   -6   18      0.03      0.00
    0   -6   17     -0.72      0.00
    0   -6   16      0.26      0.00
    0   -6   15     -0.03      0.00
    0   -6   14     -0.12      0.00
    0   -6   13      0.80      0.00
    0   -6   12     -0.91      0.00
    0   -6   11      1.00      0.00
    0   -6   10     -0.57      0.00
    0   -6    9     -0.36      0.00
    0   -6    8      1.66      0.00
    0   -6    7     -2.40      0.00
    0   -6    6      2.33      0.00
    0   -6    5     -1.32      0.00
    0   -6    4      0.08      0.00
    0   -6    3      1.77      0.00
    0   -6    2     -4.58      0.00
    0    6    0     -3.26      0.00
    0    6    1      0.31      0.00
    0    6    2      1.88      0.00
    0    6    3     -3.84      0.00
    0    6    4      5.39      0.00
    0    6    5     -3.54      0.00
    0    6    6      1.95      0.00
    0    6    7      0.18      0.00
    0    6    8     -1.33      0.00
    0    6    9      1.89      0.00
    0    6   10     -2.19      0.00
    0    6   11      0.97      0.00
    0    6   12     -0.16      0.00
    0    6   13     -0.20      0.00
    0    6   14      0.28      0.00
    0    6   15     -0.33      0.00
    0    6   16      0.50      0.00
    0    6   17     -0.21      0.00
    0    6   18     -0.58      0.00
    0    6   19      0.32      0.00
    0    6   20      0.59      0.00
    0    6   21     -0.27      0.00
    0   -7   21      0.04      0.00
    0   -7   20      0.13      0.00
    0   -7   19     -0.16      0.00
    0   -7   18      0.36      0.00
    0   -7   17      0.35      0.00
    0   -7   16     -0.38      0.00
    0   -7   15      0.35      0.00
    0   -7   14     -0.69      0.00
    0   -7   13      0.09      0.00
    0   -7   12      0.25      0.00
    0   -7   11     -0.70      0.00
    0   -7   10      1.29      0.00
    0   -7    9     -1.56      0.00
    0   -7    8      1.18      0.00
    0   -7    7      0.19      0.00
    0   -7    6     -1.49      0.00
    0   -7    5      2.00      0.00
    0   -7    4     -2.01      0.00
    0   -7    3      2.21      0.00
    0   -7    2     -0.75      0.00
    0   -7    1     -0.71      0.00
    0    7    0      2.90      0.00
    0    7    1     -4.44      0.00
    0    7    2      3.90      0.00
    0    7    3     -2.20      0.00
    0    7    4     -0.94      0.00
    0    7    5      1.93      0.00
    0    7    6     -2.59      0.00
    0    7    7      2.62      0.00
    0    7    8     -1.80      0.00
    0    7    9      0.61      0.00
    0    7   10      1.08      0.00
    0    7   11     -1.25      0.00
    0    7   12      0.81      0.00
    0    7   13     -0.58      0.00
    0    7   14      0.59      0.00
    0    7   15     -0.39      0.00
    0    7   16     -0.20      0.00
    0    7   17      0.55      0.00
    0    7   18      0.14      0.00
    0    7   19     -0.69      0.00
    0    7   20      0.03      0.00
    0   -8   21     -0.19      0.00
    0   -8   20     -0.30      0.00
    0   -8   19      0.27      0.00
    0   -8   18     -0.49      0.00
    0   -8   17      0.16      0.00
    0   -8   16      0.00      0.00
    0   -8   15      0.08      0.00
    0   -8   14      0.59      0.00
    0   -8   13     -0.56      0.00
    0   -8   12      0.51      0.00
    0   -8   11     -0.60      0.00
    0   -8   10      0.11      0.00
    0   -8    9      0.64      0.00
    0   -8    8     -1.72      0.00
    0   -8    7      1.75      0.00
    0   -8    6     -0.85      0.00
    0   -8    5      0.08      0.00
    0   -8    4     -0.01      0.00
    0   -8    3     -0.89      0.00
    0   -8    2      2.18      0.00
    0    8    0      2.38      0.00
    0    8    1      0.55      0.00
    0    8    2     -2.24      0.00
    0    8    3      3.30      0.00
    0    8    4     -2.32      0.00
    0    8    5      1.69      0.00
    0    8    6     -0.97      0.00
    0    8    7     -0.73      0.00
    0    8    8      1.79      0.00
    0    8    9     -2.08      0.00
    0    8   10      0.95      0.00
    0    8   11     -0.14      0.00
    0    8   12      0.02      0.00
    0    8   13      0.10      0.00
    0    8   14     -0.54      0.00
    0    8   15      0.76      0.00
    0    8   16     -0.36      0.00
    0    8   17     -0.36      0.00
    0    8   18      0.39      0.00
    0    8   19      0.29      0.00
    0    8   20     -0.11      0.00
    0   -9   22     -0.20      0.00
    0   -9   21      0.63      0.00
    0   -9   20      0.02      0.00
    0   -9   19     -0.15      0.00
    0   -9   18      0.20      0.00
    0   -9   17     -0.21      0.00
    0   -9   16      0.15      0.00
    0   -9   15     -0.48      0.00
    0   -9   14      0.06      0.00
    0   -9   13      0.20      0.00
    0   -9   12     -0.23      0.00
    0   -9   11      0.75      0.00
    0   -9   10     -0.92      0.00
    0   -9    9      1.04      0.00
    0   -9    8     -0.27      0.00
    0   -9    7     -0.73      0.00
    0   -9    6      1.03      0.00
    0   -9    5     -0.85      0.00
    0   -9    4      1.32      0.00
    0   -9    3     -1.85      0.00
    0   -9    2      0.87      0.00
    0   -9    1      1.49      0.00
    0    9    0     -2.96      0.00
    0    9    1      2.20      0.00
    0    9    2     -1.60      0.00
    0    9    4      0.53      0.00
    0    9    5     -1.11      0.00
    0    9    6      2.33      0.00
    0    9    7     -1.75      0.00
    0    9    8      0.60      0.00
    0    9    9      0.65      0.00
    0    9   10     -0.99      0.00
    0    9   11      0.75      0.00
    0    9   12     -0.79      0.00
    0    9   13      0.77      0.00
    0    9   14     -0.25      0.00
    0    9   15     -0.34      0.00
    0    9   16      0.45      0.00
    0    9   17     -0.05      0.00
    0    9   18     -0.36      0.00
    0    9   19      0.02      0.00
    0    9   20     -0.03      0.00
    0  -10   21     -0.70      0.00
    0  -10   20      0.26      0.00
    0  -10   19      0.04      0.00
    0  -10   18      0.15      0.00
    0  -10   17     -0.05      0.00
    0  -10   16      0.04      0.00
    0  -10   15      0.42      0.00
    0  -10   14     -0.46      0.00
    0  -10   13      0.20      0.00
    0  -10   12     -0.29      0.00
    0  -10   11     -0.01      0.00
    0  -10   10      0.12      0.00
    0  -10    9     -0.63      0.00
    0  -10    8      1.18      0.00
    0  -10    6      0.39      0.00
    0  -10    5     -0.15      0.00
    0  -10    4     -0.16      0.00
    0  -10    3      1.47      0.00
    0  -10    1      1.26      0.00
    0   10    0     -0.08      0.00
    0   10    1     -0.31      0.00
    0   10    3     -1.52      0.00
    0   10    4      1.33      0.00
    0   10    5     -1.41      0.00
    0   10    6     -0.30      0.00
    0   10    7      1.24      0.00
    0   10    8     -1.43      0.00
    0   10    9      1.06      0.00
    0   10   10     -0.39      0.00
    0   10   11      0.15      0.00
    0   10   12      0.27      0.00
    0   10   13     -0.71      0.00
    0   10   14      0.62      0.00
    0   10   15     -0.16      0.00
    0   10   16     -0.13      0.00
    0   10   17      0.15      0.00
    0   10   18      0.11      0.00
    0   10   19      0.00      0.00
    0  -11   19     -0.17      0.00
    0  -11   18     -0.20      0.00
    0  -11   17      0.27      0.00
    0  -11   16     -0.30      0.00
    0  -11   15     -0.10      0.00
    0  -11   14      0.47      0.00
    0  -11   13     -0.26      0.00
    0  -11   12      0.26      0.00
    0  -11   11     -0.13      0.00
    0  -11   10      0.44      0.00
    0  -11    9     -0.75      0.00
    0  -11    8      0.09      0.00
    0  -11    7      0.69      0.00
    0  -11    6     -0.80      0.00
    0  -11    5      0.64      0.00
    0  -11    4     -0.97      0.00
    0  -11    3      0.38      0.00
    0  -11    2      0.37      0.00
    0  -11    1     -0.68      0.00
    0   11    0      1.10      0.00
    0   11    1     -1.60      0.00
    0   11    2      0.78      0.00
    0   11    3      0.02      0.00
    0   11    4     -0.36      0.00
    0   11    5      1.63      0.00
    0   11    6     -1.29      0.00
    0   11    7      0.58      0.00
    0   11    8     -0.01      0.00
    0   11    9     -0.71      0.00
    0   11   10      0.72      0.00
    0   11   11     -0.81      0.00
    0   11   12      0.69      0.00
    0   11   13     -0.15      0.00
    0   11   14     -0.22      0.00
    0   11   15      0.18      0.00
    0   11   16     -0.05      0.00
    0   11   17     -0.05      0.00
    0   11   18     -0.03      0.00
    0   11   19      0.04      0.00
    0  -12   18     -0.02      0.00
    0  -12   17     -0.25      0.00
    0  -12   16      0.45      0.00
    0  -12   15     -0.22      0.00
    0  -12   14     -0.32      0.00
    0  -12   13      0.23      0.00
    0  -12   12     -0.04      0.00
    0  -12   11     -0.32      0.00
    0  -12   10      0.26      0.00
    0  -12    9      0.63      0.00
    0  -12    8     -0.98      0.00
    0  -12    7      0.47      0.00
    0  -12    6     -0.07      0.00
    0  -12    4      0.37      0.00
    0  -12    3     -0.60      0.00
    0  -12    2      0.81      0.00
    0  -12    1     -1.12      0.00
    0   12    0      0.39      0.00
    0   12    1      0.75      0.00
    0   12    2     -1.16      0.00
    0   12    3      0.98      0.00
    0   12    4     -1.11      0.00
    0   12    5      0.12      0.00
    0   12    6      0.51      0.00
    0   12    7     -0.72      0.00
    0   12    8      1.04      0.00
    0   12    9     -0.53      0.00
    0   12   10      0.33      0.00
    0   12   11     -0.03      0.00
    0   12   12     -0.51      0.00
    0   12   13      0.57      0.00
    0   12   14     -0.31      0.00
    0   12   15      0.08      0.00
    0   12   16     -0.01      0.00
    0   12   17      0.03      0.00
    0   12   18     -0.05      0.00
    0  -13   18      0.23      0.00
    0  -13   17      0.05      0.00
    0  -13   16     -0.41      0.00
    0  -13   15      0.42      0.00
    0  -13   14      0.20      0.00
    0  -13   13     -0.32      0.00
    0  -13   12      0.13      0.00
    0  -13   11      0.37      0.00
    0  -13   10     -0.85      0.00
    0  -13    8      0.19      0.00
    0  -13    3     -0.56      0.00
    0  -13    2      0.14      0.00
    0  -13    1      1.09      0.00
    0   13    0     -1.21      0.00
    0   13    1      0.86      0.00
    0   13    2     -0.15      0.00
    0   13    3     -0.29      0.00
    0   13    4      0.72      0.00
    0   13    5     -0.88      0.00
    0   13    6      0.74      0.00
    0   13    7     -0.59      0.00
    0   13    8     -0.13      0.00
    0   13    9      0.32      0.00
    0   13   10     -0.59      0.00
    0   13   11      0.96      0.00
    0   13   12     -0.59      0.00
    0   13   13      0.04      0.00
    0   13   14      0.27      0.00
    0   13   15     -0.17      0.00
    0   13   16      0.02      0.00
    0   13   17     -0.01      0.00
    0  -14   16      0.20      0.00
    0  -14   15     -0.49      0.00
    0  -14   14     -0.10      0.00
    0  -14   13      0.44      0.00
    0  -14   12     -0.41      0.00
    0  -14   11      0.07      0.00
    0  -14    5      0.10      0.00
    0  -14    3      0.81      0.00
    0  -14    2     -1.30      0.00
    0  -14    1      0.29      0.00
    0   14    0      0.20      0.00
    0   14    1     -0.85      0.00
    0   14    2      0.87      0.00
    0   14    3     -0.34      0.00
    0   14    4      0.55      0.00
    0   14    5     -0.15      0.00
    0   14    6     -0.37      0.00
    0   14    7      0.78      0.00
    0   14    8     -0.78      0.00
    0   14    9      0.79      0.00
    0   14   10     -0.65      0.00
    0   14   11     -0.24      0.00
    0   14   12      0.78      0.00
    0   14   13     -0.71      0.00
    0   14   14      0.23      0.00
    0   14   15      0.05      0.00
    0   14   16      0.05      0.00
    0   14   17     -0.10      0.00
    0  -15   13     -0.38      0.00
    0  -15    3      0.29      0.00
    0  -15    2      0.88      0.00
    0  -15    1     -0.73      0.00
    0   15    0      0.78      0.00
    0   15    1     -0.17      0.00
    0   15    2     -0.50      0.00
    0   15    3     -0.24      0.00
    0   15    4     -0.55      0.00
    0   15    5      0.88      0.00
    0   15    6     -0.52      0.00
    0   15    7      0.45      0.00
    0   15    8     -0.07      0.00
    0   15    9     -0.45      0.00
    0   15   10      1.17      0.00
    0   15   11     -1.06      0.00
    0   15   12      0.33      0.00
    0   15   13      0.35      0.00
    0   15   14     -0.49      0.00
    0   15   16     -0.09      0.00
    0  -16    3     -1.00      0.00
    0  -16    2      0.13      0.00
    0  -16    1      0.06      0.00
    0   16    0     -0.42      0.00
    0   16    1      0.48      0.00
    0   16    2      0.40      0.00
    0   16    3      0.68      0.00
    0   16    4     -0.32      0.00
    0   16    5     -0.34      0.00
    0   16    6     -0.01      0.00
    0   16    7     -0.70      0.00
    0   16    8      1.03      0.00
    0   16    9     -0.93      0.00
    0   16   10      0.17      0.00
    0   16   11      0.74      0.00
    0   16   12     -1.01      0.00
    0   16   13      0.57      0.00
    0  -17    2     -0.30      0.00
    0  -17    1      0.20      0.00
    0   17    0     -0.19      0.00
    0   17    1     -0.30      0.00
    0   17    2     -0.66      0.00
    0   17    3     -0.08      0.00
    0   17    4      0.25      0.00
    0   17    5      0.21      0.00
    0   17    6      0.96      0.00
    0   17    7     -0.52      0.00
    0   17    8     -0.32      0.00
    0   17    9      0.89      0.00
    0   17   10     -1.23      0.00
    0   17   11      0.65      0.00
    0   17   12      0.26      0.00
    0   17   13     -0.83      0.00
    0   17   14      0.31      0.00
    0  -18    1      0.14      0.00
    0   18    0      0.20      0.00
    0   18    1      0.45      0.00
    0   18    2      0.13      0.00
    0   18    3     -0.14      0.00
    0   18    4      0.26      0.00
    0   18    5     -1.14      0.00
    0   18    6     -0.45      0.00
    0   18    7      1.07      0.00
    0   18    8     -0.65      0.00
    0   18    9      0.41      0.00
    0   18   10      0.46      0.00
    0   18   11     -0.95      0.00
    0   18   12      0.70      0.00
    0   18   13      0.26      0.00
    0  -19    1     -0.26      0.00
    0   19    0     -0.25      0.00
    0   19    2      0.65      0.00
    0   19    3     -0.69      0.00
    0   19    4      0.33      0.00
    0   19    5      1.36      0.00
    0   19    6     -0.62      0.00
    0   19    7     -0.41      0.00
    0   19    8      0.34      0.00
    0   19    9     -0.80      0.00
    0   19   10      0.62      0.00
    0   19   11      0.03      0.00
    0   19   12     -0.63      0.00
    0   20    1     -0.52      0.00
    0   20    4     -1.19      0.00
    0   20    5     -0.41      0.00
    0   20    6      0.70      0.00
    0   20    7     -0.01      0.00
    0   20    8      0.30      0.00
    0   20    9      0.07      0.00
    0   20   11      0.56      0.00
   -1   21    7     -0.01      0.00
   -1   20   11      0.65      0.00
   -1   20   10     -0.56      0.00
   -1   20    7      0.00      0.00
   -1   20    6      0.29      0.00
   -1   20    5      0.11      0.00
   -1   19   13      0.53      0.00
   -1   19   12     -0.69      0.00
   -1   19   11      0.03      0.00
   -1   19   10      0.58      0.00
   -1   19    9     -0.74      0.00
   -1   19    8      0.26      0.00
   -1   19    6     -0.38      0.00
   -1   19    5      0.49      0.00
   -1   19    4      0.86      0.00
   -1   19    3     -0.42      0.00
   -1   19    2      0.12      0.00
   -1   18   14     -0.42      0.00
   -1   18   13      0.05      0.00
   -1   18   12      0.79      0.00
   -1   18   11     -1.00      0.00
   -1   18   10      0.45      0.00
   -1   18    9      0.38      0.00
   -1   18    8     -0.46      0.00
   -1   18    7      0.48      0.00
   -1   18    6      0.01      0.00
   -1   18    5     -0.72      0.00
   -1   18    4     -0.46      0.00
   -1   18    3      0.18      0.00
   -1   18    2      0.24      0.00
   -1   18    1      0.49      0.00
   -1   17   15     -0.21      0.00
   -1   17   14      0.44      0.00
   -1   17   13     -0.81      0.00
   -1   17   12      0.31      0.00
   -1   17   11      0.70      0.00
   -1   17   10     -1.18      0.00
   -1   17    9      0.67      0.00
   -1   17    8     -0.14      0.00
   -1   17    7     -0.19      0.00
   -1   17    6      0.17      0.00
   -1   17    5      0.54      0.00
   -1   17    4      0.41      0.00
   -1   17    3     -0.32      0.00
   -1   17    2     -0.57      0.00
   -1   17    1     -0.49      0.00
   -1   17    0      0.05      0.00
   -1   16   16      0.22      0.00
   -1   16   15     -0.12      0.00
   -1   16   14      0.19      0.00
   -1   16   13      0.56      0.00
   -1   16   12     -1.23      0.00
   -1   16   11      0.72      0.00
   -1   16   10      0.36      0.00
   -1   16    9     -0.81      0.00
   -1   16    8      0.58      0.00
   -1   16    7     -0.36      0.00
   -1   16    6      0.29      0.00
   -1   16    5     -0.76      0.00
   -1   16    4     -0.08      0.00
   -1   16    3      0.51      0.00
   -1   16    2      0.54      0.00
   -1   16    1      0.53      0.00
   -1   16    0     -0.66      0.00
   -1   15   17      0.17      0.00
   -1   15   16     -0.12      0.00
   -1   15   15      0.11      0.00
   -1   15   14     -0.67      0.00
   -1   15   13      0.56      0.00
   -1   15   12      0.63      0.00
   -1   15   11     -1.28      0.00
   -1   15   10      0.88      0.00
   -1   15    9     -0.16      0.00
   -1   15    8      0.03      0.00
   -1   15    7     -0.04      0.00
   -1   15    6     -0.29      0.00
   -1   15    5      0.88      0.00
   -1   15    4     -0.56      0.00
   -1   15    3     -0.05      0.00
   -1   15    2     -0.79      0.00
   -1   15    1      0.02      0.00
   -1   15    0      0.92      0.00
   -1   14   17     -0.09      0.00
   -1   14   16     -0.02      0.00
   -1   14   15      0.19      0.00
   -1   14   14      0.41      0.00
   -1   14   13     -1.15      0.00
   -1   14   12      0.65      0.00
   -1   14   11      0.24      0.00
   -1   14   10     -0.65      0.00
   -1   14    9      0.45      0.00
   -1   14    8     -0.47      0.00
   -1   14    7      0.88      0.00
   -1   14    6     -0.57      0.00
   -1   14    5      0.00      0.00
   -1   14    4      0.24      0.00
   -1   14    3     -0.16      0.00
   -1   14    2      0.92      0.00
   -1   14    1     -0.99      0.00
   -1   14    0      0.00      0.00
    1  -14    1      0.34      0.00
    1  -14   13      0.07      0.00
    1  -14   14      0.33      0.00
    1  -14   15     -0.49      0.00
   -1   13   18      0.16      0.00
   -1   13   17     -0.03      0.00
   -1   13   16      0.12      0.00
   -1   13   15     -0.45      0.00
   -1   13   14      0.32      0.00
   -1   13   13      0.50      0.00
   -1   13   12     -0.78      0.00
   -1   13   11      0.56      0.00
   -1   13   10     -0.34      0.00
   -1   13    9      0.38      0.00
   -1   13    8     -0.38      0.00
   -1   13    7     -0.45      0.00
   -1   13    6      0.72      0.00
   -1   13    5     -0.76      0.00
   -1   13    4      0.89      0.00
   -1   13    3     -0.58      0.00
   -1   13    2      0.03      0.00
   -1   13    1      0.79      0.00
   -1   13    0     -0.85      0.00
    1  -13    1      0.53      0.00
    1  -13   11      0.09      0.00
    1  -13   12      0.38      0.00
    1  -13   13     -0.14      0.00
    1  -13   14     -0.31      0.00
    1  -13   15      0.68      0.00
    1  -13   16     -0.15      0.00
    1  -13   17     -0.26      0.00
   -1   12   18     -0.02      0.00
   -1   12   17      0.01      0.00
   -1   12   16      0.00      0.00
   -1   12   15      0.32      0.00
   -1   12   14     -0.63      0.00
   -1   12   13      0.39      0.00
   -1   12   12     -0.19      0.00
   -1   12   11      0.14      0.00
   -1   12   10      0.10      0.00
   -1   12    9     -0.49      0.00
   -1   12    8      1.10      0.00
   -1   12    7     -0.78      0.00
   -1   12    6      0.50      0.00
   -1   12    5     -0.13      0.00
   -1   12    4     -0.93      0.00
   -1   12    3      0.95      0.00
   -1   12    2     -1.06      0.00
   -1   12    1      0.65      0.00
   -1   12    0      0.21      0.00
    1  -12    1     -0.39      0.00
    1  -12    9      0.46      0.00
    1  -12   11      0.01      0.00
    1  -12   12     -0.52      0.00
    1  -12   13      0.38      0.00
    1  -12   14     -0.02      0.00
    1  -12   15     -0.52      0.00
    1  -12   17      0.03      0.00
   -1   11   19      0.16      0.00
   -1   11   18     -0.08      0.00
   -1   11   17      0.01      0.00
   -1   11   16     -0.26      0.00
   -1   11   15      0.26      0.00
   -1   11   14      0.05      0.00
   -1   11   13     -0.23      0.00
   -1   11   12      0.46      0.00
   -1   11   11     -0.85      0.00
   -1   11   10      0.91      0.00
   -1   11    9     -0.72      0.00
   -1   11    8     -0.06      0.00
   -1   11    7      0.60      0.00
   -1   11    6     -1.09      0.00
   -1   11    5      1.58      0.00
   -1   11    4     -0.45      0.00
   -1   11    3      0.16      0.00
   -1   11    2      0.30      0.00
   -1   11    1     -1.01      0.00
   -1   11    0      0.63      0.00
    1  -11    1     -0.80      0.00
    1  -11    7      0.75      0.00
    1  -11    8      0.20      0.00
    1  -11    9     -0.48      0.00
    1  -11   10      0.10      0.00
    1  -11   11     -0.17      0.00
    1  -11   12      0.61      0.00
    1  -11   13     -0.49      0.00
    1  -11   14      0.37      0.00
    1  -11   15      0.04      0.00
    1  -11   16     -0.29      0.00
    1  -11   17      0.04      0.00
    1  -11   19      0.18      0.00
   -1   10   19     -0.08      0.00
   -1   10   18      0.06      0.00
   -1   10   17      0.32      0.00
   -1   10   16      0.03      0.00
   -1   10   15     -0.54      0.00
   -1   10   14      0.63      0.00
   -1   10   13     -0.58      0.00
   -1   10   12      0.46      0.00
   -1   10   11      0.02      0.00
   -1   10   10     -0.57      0.00
   -1   10    9      1.11      0.00
   -1   10    8     -1.32      0.00
   -1   10    7      1.08      0.00
   -1   10    6     -0.44      0.00
   -1   10    5     -1.05      0.00
   -1   10    4      0.95      0.00
   -1   10    3     -1.08      0.00
   -1   10    2      1.51      0.00
   -1   10    1     -0.81      0.00
   -1   10    0      0.58      0.00
    1  -10    1      0.78      0.00
    1  -10    7     -0.91      0.00
    1  -10    8      0.96      0.00
    1  -10    9     -0.69      0.00
    1  -10   10      0.49      0.00
    1  -10   11     -0.19      0.00
    1  -10   12     -0.36      0.00
    1  -10   13      0.22      0.00
    1  -10   14     -0.35      0.00
    1  -10   15      0.42      0.00
    1  -10   16     -0.02      0.00
    1  -10   17      0.13      0.00
    1  -10   18      0.24      0.00
    1  -10   19     -0.30      0.00
    1  -10   21     -0.62      0.00
   -1    9   20      0.06      0.00
   -1    9   19      0.20      0.00
   -1    9   18     -0.36      0.00
   -1    9   17     -0.50      0.00
   -1    9   16      0.70      0.00
   -1    9   15     -0.04      0.00
   -1    9   14     -0.39      0.00
   -1    9   13      0.55      0.00
   -1    9   12     -0.84      0.00
   -1    9   11      1.07      0.00
   -1    9   10     -0.97      0.00
   -1    9    9      0.56      0.00
   -1    9    8      0.45      0.00
   -1    9    7     -1.35      0.00
   -1    9    6      2.02      0.00
   -1    9    5     -1.20      0.00
   -1    9    4      0.86      0.00
   -1    9    2     -0.92      0.00
   -1    9    1      1.92      0.00
    1   -9    5     -0.79      0.00
    1   -9    6      1.11      0.00
    1   -9    7     -0.92      0.00
    1   -9    8      0.05      0.00
    1   -9    9      0.85      0.00
    1   -9   10     -1.01      0.00
    1   -9   11      0.76      0.00
    1   -9   12     -0.16      0.00
    1   -9   13      0.35      0.00
    1   -9   14     -0.20      0.00
    1   -9   15     -0.52      0.00
    1   -9   16      0.30      0.00
    1   -9   17     -0.37      0.00
    1   -9   18      0.15      0.00
    1   -9   19      0.16      0.00
    1   -9   20      0.22      0.00
    1   -9   21      0.39      0.00
    1   -9   22     -0.41      0.00
   -1    8   20     -0.27      0.00
   -1    8   19     -0.01      0.00
   -1    8   18      0.79      0.00
   -1    8   17     -0.12      0.00
   -1    8   16     -0.86      0.00
   -1    8   15      0.70      0.00
   -1    8   14     -0.37      0.00
   -1    8   13      0.44      0.00
   -1    8   12     -0.34      0.00
   -1    8   11     -0.30      0.00
   -1    8   10      1.00      0.00
   -1    8    9     -1.87      0.00
   -1    8    8      1.80      0.00
   -1    8    7     -1.11      0.00
   -1    8    6     -0.35      0.00
   -1    8    5      1.22      0.00
   -1    8    4     -1.82      0.00
   -1    8    3      3.30      0.00
   -1    8    2     -2.65      0.00
   -1    8    1      0.85      0.00
   -1    8    0      1.79      0.00
    1   -8    1     -2.37      0.00
    1   -8    4      0.74      0.00
    1   -8    6     -0.32      0.00
    1   -8    7      1.62      0.00
    1   -8    8     -1.86      0.00
    1   -8    9      0.75      0.00
    1   -8   10      0.09      0.00
    1   -8   11     -0.36      0.00
    1   -8   12      0.12      0.00
    1   -8   13     -0.60      0.00
    1   -8   14      0.93      0.00
    1   -8   15      0.07      0.00
    1   -8   16     -0.23      0.00
    1   -8   17      0.33      0.00
    1   -8   18     -0.46      0.00
    1   -8   19     -0.05      0.00
    1   -8   20     -0.50      0.00
   -1    7   21     -0.09      0.00
   -1    7   20      0.45      0.00
   -1    7   19     -0.67      0.00
   -1    7   18     -0.47      0.00
   -1    7   17      0.86      0.00
   -1    7   16      0.07      0.00
   -1    7   15     -0.36      0.00
   -1    7   13     -0.64      0.00
   -1    7   12      1.30      0.00
   -1    7   11     -1.36      0.00
   -1    7   10      1.13      0.00
   -1    7    9      0.16      0.00
   -1    7    8     -1.45      0.00
   -1    7    7      2.56      0.00
   -1    7    6     -2.81      0.00
   -1    7    5      2.13      0.00
   -1    7    4     -1.65      0.00
   -1    7    3     -1.26      0.00
   -1    7    2      3.35      0.00
   -1    7    1     -3.68      0.00
   -1    7    0      2.35      0.00
    1   -7    1     -0.87      0.00
    1   -7    4     -1.37      0.00
    1   -7    5      1.86      0.00
    1   -7    6     -2.00      0.00
    1   -7    7      0.63      0.00
    1   -7    8      1.03      0.00
    1   -7    9     -1.34      0.00
    1   -7   10      0.97      0.00
    1   -7   11     -0.73      0.00
    1   -7   12      0.76      0.00
    1   -7   13     -0.09      0.00
    1   -7   14     -0.97      0.00
    1   -7   15      0.42      0.00
    1   -7   16     -0.16      0.00
    1   -7   17      0.20      0.00
    1   -7   18      0.32      0.00
    1   -7   19      0.21      0.00
    1   -7   20      0.16      0.00
    1   -7   21     -0.51      0.00
   -1    6   21     -0.37      0.00
   -1    6   20      0.14      0.00
   -1    6   19      0.82      0.00
   -1    6   18     -0.43      0.00
   -1    6   17     -0.64      0.00
   -1    6   16      0.51      0.00
   -1    6   15     -0.36      0.00
   -1    6   14      0.71      0.00
   -1    6   13     -0.60      0.00
   -1    6   12     -0.22      0.00
   -1    6   11      0.94      0.00
   -1    6   10     -2.02      0.00
   -1    6    9      2.27      0.00
   -1    6    8     -1.82      0.00
   -1    6    7      0.54      0.00
   -1    6    6      1.59      0.00
   -1    6    5     -2.78      0.00
   -1    6    4      4.98      0.00
   -1    6    3     -4.25      0.00
   -1    6    2      2.11      0.00
   -1    6    1     -0.47      0.00
   -1    6    0     -1.79      0.00
    1   -6    4     -0.61      0.00
    1   -6    5     -0.21      0.00
    1   -6    6      1.87      0.00
    1   -6    7     -2.44      0.00
    1   -6    8      1.59      0.00
    1   -6    9     -0.52      0.00
    1   -6   10     -0.05      0.00
    1   -6   11      0.55      0.00
    1   -6   12     -1.10      0.00
    1   -6   13      1.00      0.00
    1   -6   14      0.09      0.00
    1   -6   15     -0.14      0.00
    1   -6   16      0.11      0.00
    1   -6   17     -0.61      0.00
    1   -6   18      0.10      0.00
    1   -6   19     -0.41      0.00
    1   -6   20      0.48      0.00
    1   -6   21      0.06      0.00
    1   -6   22      0.17      0.00
   -1    5   21      0.36      0.00
   -1    5   20     -0.84      0.00
   -1    5   19     -0.03      0.00
   -1    5   18      0.70      0.00
   -1    5   17     -0.10      0.00
   -1    5   16     -0.10      0.00
   -1    5   15      0.09      0.00
   -1    5   14     -0.72      0.00
   -1    5   13      1.27      0.00
   -1    5   12     -1.26      0.00
   -1    5   11      1.29      0.00
   -1    5   10     -0.33      0.00
   -1    5    9     -1.00      0.00
   -1    5    8      2.43      0.00
   -1    5    7     -3.78      0.00
   -1    5    6      3.15      0.00
   -1    5    5     -2.73      0.00
   -1    5    4     -0.57      0.00
   -1    5    3      3.25      0.00
   -1    5    2     -4.46      0.00
   -1    5    1      6.72      0.00
   -1    5    0     -5.14      0.00
    1   -5    3     -2.72      0.00
    1   -5    4      2.42      0.00
    1   -5    5     -2.85      0.00
    1   -5    6      1.53      0.00
    1   -5    7      0.30      0.00
    1   -5    8     -1.52      0.00
    1   -5    9      1.68      0.00
    1   -5   10     -1.45      0.00
    1   -5   11      0.96      0.00
    1   -5   12     -0.13      0.00
    1   -5   13     -0.56      0.00
    1   -5   14      0.40      0.00
    1   -5   15     -0.49      0.00
    1   -5   16      0.60      0.00
    1   -5   17      0.17      0.00
    1   -5   18     -0.12      0.00
    1   -5   19      0.26      0.00
    1   -5   20     -0.66      0.00
    1   -5   21      0.20      0.00
    1   -5   22     -0.63      0.00
    1   -5   23      0.19      0.00
   -1    4   22     -0.21      0.00
   -1    4   21      0.28      0.00
   -1    4   20      0.56      0.00
   -1    4   19     -0.59      0.00
   -1    4   18     -0.16      0.00
   -1    4   17      0.16      0.00
   -1    4   16     -0.26      0.00
   -1    4   15      0.66      0.00
   -1    4   13     -0.03      0.00
   -1    4   12      0.40      0.00
   -1    4   11     -1.45      0.00
   -1    4   10      2.15      0.00
   -1    4    9     -2.22      0.00
   -1    4    8      1.67      0.00
   -1    4    7      0.81      0.00
   -1    4    6     -2.58      0.00
   -1    4    5      5.67      0.00
   -1    4    4     -6.16      0.00
   -1    4    3      4.79      0.00
   -1    4    2     -3.77      0.00
   -1    4    0      5.36      0.00
    1   -4    4      0.80      0.00
    1   -4    5      1.92      0.00
    1   -4    6     -3.03      0.00
    1   -4    7      2.69      0.00
    1   -4    8     -1.47      0.00
    1   -4    9      0.29      0.00
    1   -4   10      0.44      0.00
    1   -4   11     -1.03      0.00
    1   -4   12      1.11      0.00
    1   -4   13     -0.75      0.00
    1   -4   14      0.36      0.00
    1   -4   15      0.20      0.00
    1   -4   16     -0.80      0.00
    1   -4   17      0.55      0.00
    1   -4   18     -0.35      0.00
    1   -4   19      0.22      0.00
    1   -4   20      0.34      0.00
    1   -4   21      0.05      0.00
    1   -4   22      0.26      0.00
   -1    3   22     -0.03      0.00
   -1    3   21     -0.51      0.00
   -1    3   20      0.19      0.00
   -1    3   19      0.22      0.00
   -1    3   18     -0.05      0.00
   -1    3   17      0.29      0.00
   -1    3   16     -0.30      0.00
   -1    3   15     -0.31      0.00
   -1    3   14      0.78      0.00
   -1    3   13     -1.04      0.00
   -1    3   12      1.48      0.00
   -1    3   10      0.05      0.00
   -1    3    9      1.32      0.00
   -1    3    8     -3.58      0.00
   -1    3    7      3.94      0.00
   -1    3    6     -3.92      0.00
   -1    3    5      0.85      0.00
   -1    3    4      2.83      0.00
   -1    3    3     -4.92      0.00
   -1    3    2      9.39      0.00
   -1    3    1     -7.91      0.00
   -1    3    0      6.01      0.00
    1   -3    3      5.92      0.00
    1   -3    4     -5.45      0.00
    1   -3    5      2.92      0.00
    1   -3    6     -0.51      0.00
    1   -3    7     -1.03      0.00
    1   -3    8      1.99      0.00
    1   -3    9     -1.96      0.00
    1   -3   10      1.83      0.00
    1   -3   11     -1.04      0.00
    1   -3   12      0.04      0.00
    1   -3   13      0.69      0.00
    1   -3   14     -0.88      0.00
    1   -3   15      0.58      0.00
    1   -3   16     -0.09      0.00
    1   -3   17     -0.32      0.00
    1   -3   18      0.52      0.00
    1   -3   19     -0.53      0.00
    1   -3   20     -0.06      0.00
    1   -3   21     -0.08      0.00
    1   -3   22      0.26      0.00
   -1    2   22      0.21      0.00
   -1    2   21      0.07      0.00
   -1    2   20     -0.27      0.00
   -1    2   19      0.29      0.00
   -1    2   18     -0.52      0.00
   -1    2   17     -0.05      0.00
   -1    2   16      0.71      0.00
   -1    2   15     -0.71      0.00
   -1    2   14      0.47      0.00
   -1    2   13     -0.11      0.00
   -1    2   12     -0.84      0.00
   -1    2   11      1.81      0.00
   -1    2   10     -2.43      0.00
   -1    2    9      2.78      0.00
   -1    2    7     -1.65      0.00
   -1    2    6      4.95      0.00
   -1    2    5     -6.47      0.00
   -1    2    4      5.46      0.00
   -1    2    3     -5.87      0.00
   -1    2    2      1.02      0.00
   -1    2    1      2.77      0.00
   -1    2    0     -9.11      0.00
    1   -2    1     14.82      0.00
    1   -2    2     -7.38      0.00
    1   -2    3      0.43      0.00
    1   -2    4      2.62      0.00
    1   -2    5     -3.42      0.00
    1   -2    6      3.09      0.00
    1   -2    7     -2.95      0.00
    1   -2    8      1.47      0.00
    1   -2    9     -0.25      0.00
    1   -2   10     -1.14      0.00
    1   -2   11      1.84      0.00
    1   -2   12     -1.42      0.00
    1   -2   13      0.63      0.00
    1   -2   14      0.01      0.00
    1   -2   15     -0.24      0.00
    1   -2   16      0.65      0.00
    1   -2   17     -0.52      0.00
    1   -2   18     -0.03      0.00
    1   -2   19      0.37      0.00
    1   -2   20     -0.07      0.00
    1   -2   21     -0.28      0.00
    1   -2   22     -0.04      0.00
   -1    1   22      0.14      0.00
   -1    1   21      0.14      0.00
   -1    1   20     -0.18      0.00
   -1    1   19      0.01      0.00
   -1    1   18      0.80      0.00
   -1    1   17     -0.74      0.00
   -1    1   16      0.04      0.00
   -1    1   15      0.48      0.00
   -1    1   14     -0.98      0.00
   -1    1   13      1.42      0.00
   -1    1   12     -1.44      0.00
   -1    1   11      0.87      0.00
   -1    1   10      0.28      0.00
   -1    1    9     -2.69      0.00
   -1    1    8      3.96      0.00
   -1    1    7     -3.94      0.00
   -1    1    6      2.03      0.00
   -1    1    5      1.02      0.00
   -1    1    4     -2.42      0.00
   -1    1    3      7.90      0.00
   -1    1    2    -11.46      0.00
   -1    1    1     13.65      0.00
    1   -1    1     -8.90      0.00
    1   -1    2     11.02      0.00
    1   -1    3     -6.22      0.00
    1   -1    4      4.17      0.00
    1   -1    5     -2.35      0.00
    1   -1    6      0.97      0.00
    1   -1    7      1.83      0.00
    1   -1    8     -2.84      0.00
    1   -1    9      2.85      0.00
    1   -1   10     -1.86      0.00
    1   -1   11      0.21      0.00
    1   -1   12      0.44      0.00
    1   -1   13     -0.61      0.00
    1   -1   14      0.62      0.00
    1   -1   15     -0.78      0.00
    1   -1   16      0.08      0.00
    1   -1   17      0.64      0.00
    1   -1   18     -0.40      0.00
    1   -1   19      0.03      0.00
    1   -1   20      0.25      0.00
    1   -1   21      0.24      0.00
    1   -1   22     -0.35      0.00
   -1    0   22     -0.38      0.00
   -1    0   21      0.12      0.00
   -1    0   20      0.25      0.00
   -1    0   19     -0.67      0.00
   -1    0   18     -0.07      0.00
   -1    0   17      0.73      0.00
   -1    0   16     -0.72      0.00
   -1    0   15      0.67      0.00
   -1    0   14     -0.29      0.00
   -1    0   13     -0.35      0.00
   -1    0   12      1.26      0.00
   -1    0   11     -2.22      0.00
   -1    0   10      2.88      0.00
   -1    0    9     -1.82      0.00
   -1    0    8     -0.37      0.00
   -1    0    7      2.59      0.00
   -1    0    6     -4.57      0.00
   -1    0    5      5.16      0.00
   -1    0    4     -7.67      0.00
   -1    0    3      5.59      0.00
   -1    0    2      1.53      0.00
   -1    0    1    -13.25      0.00
    1    0    2     -0.58      0.00
    1    0    3     -0.26      0.00
    1    0    4     -2.15      0.00
    1    0    5      3.85      0.00
    1    0    6     -5.13      0.00
    1    0    7      3.10      0.00
    1    0    8     -0.77      0.00
    1    0    9     -0.90      0.00
    1    0   10      2.10      0.00
    1    0   11     -1.53      0.00
    1    0   12      1.18      0.00
    1    0   13     -0.86      0.00
    1    0   14      0.30      0.00
    1    0   15      0.65      0.00
    1    0   16     -0.80      0.00
    1    0   17      0.00      0.00
    1    0   18      0.20      0.00
    1    0   19     -0.30      0.00
    1    0   20     -0.21      0.00
    1    0   21      0.21      0.00
    1    0   22      0.19      0.00
   -1   -1   23      0.48      0.00
   -1   -1   22      0.03      0.00
   -1   -1   21     -0.22      0.00
   -1   -1   20      0.18      0.00
   -1   -1   19      0.63      0.00
   -1   -1   18     -0.75      0.00
   -1   -1   17      0.20      0.00
   -1   -1   16      0.09      0.00
   -1   -1   15     -0.64      0.00
   -1   -1   14      1.03      0.00
   -1   -1   13     -1.25      0.00
   -1   -1   12      1.13      0.00
   -1   -1   11     -0.21      0.00
   -1   -1   10     -1.42      0.00
   -1   -1    9      2.92      0.00
   -1   -1    8     -3.21      0.00
   -1   -1    7      3.02      0.00
   -1   -1    6     -1.54      0.00
   -1   -1    5     -0.25      0.00
   -1   -1    4      5.92      0.00
   -1   -1    3    -12.53      0.00
   -1   -1    2     13.93      0.00
   -1   -1    1     -5.79      0.00
    1    1    1      8.24      0.00
    1    1    2     -4.17      0.00
    1    1    3      7.84      0.00
    1    1    4     -6.10      0.00
    1    1    6      1.28      0.00
    1    1    7     -3.07      0.00
    1    1    8      2.93      0.00
    1    1    9     -2.56      0.00
    1    1   10      0.73      0.00
    1    1   11     -0.13      0.00
    1    1   12     -0.42      0.00
    1    1   13      1.04      0.00
    1    1   14     -1.02      0.00
    1    1   15      0.34      0.00
    1    1   16      0.46      0.00
    1    1   17     -0.34      0.00
    1    1   18      0.29      0.00
    1    1   19      0.19      0.00
    1    1   20     -0.12      0.00
    1    1   21     -0.23      0.00
    1    1   22     -0.04      0.00
   -1   -2   23     -0.47      0.00
   -1   -2   22      0.28      0.00
   -1   -2   21      0.02      0.00
   -1   -2   20     -0.51      0.00
   -1   -2   19      0.13      0.00
   -1   -2   18      0.59      0.00
   -1   -2   17     -0.58      0.00
   -1   -2   16      0.69      0.00
   -1   -2   15     -0.49      0.00
   -1   -2   14      0.04      0.00
   -1   -2   13      0.56      0.00
   -1   -2   12     -1.55      0.00
   -1   -2   11      2.07      0.00
   -1   -2   10     -1.97      0.00
   -1   -2    9      0.80      0.00
   -1   -2    8      0.48      0.00
   -1   -2    7     -2.54      0.00
   -1   -2    6      4.58      0.00
   -1   -2    5     -6.43      0.00
   -1   -2    4      5.37      0.00
   -1   -2    3      1.54      0.00
   -1   -2    2     -9.75      0.00
   -1   -2    1     13.33      0.00
    1    2    0     -5.97      0.00
    1    2    1      4.04      0.00
    1    2    2     -5.61      0.00
    1    2    3     -1.88      0.00
    1    2    4      5.41      0.00
    1    2    5     -5.89      0.00
    1    2    6      4.30      0.00
    1    2    7     -1.90      0.00
    1    2    8      0.41      0.00
    1    2    9      1.72      0.00
    1    2   10     -1.60      0.00
    1    2   11      1.49      0.00
    1    2   12     -1.28      0.00
    1    2   13      0.33      0.00
    1    2   14      0.20      0.00
    1    2   15     -0.42      0.00
    1    2   16      0.10      0.00
    1    2   17      0.08      0.00
    1    2   18     -0.46      0.00
    1    2   19      0.27      0.00
    1    2   20      0.13      0.00
    1    2   21      0.00      0.00
   -1   -3   22     -0.21      0.00
   -1   -3   21      0.10      0.00
   -1   -3   20      0.42      0.00
   -1   -3   19     -0.71      0.00
   -1   -3   18      0.09      0.00
   -1   -3   17      0.01      0.00
   -1   -3   16     -0.22      0.00
   -1   -3   15      0.67      0.00
   -1   -3   14     -0.86      0.00
   -1   -3   13      1.04      0.00
   -1   -3   12     -0.45      0.00
   -1   -3   11     -0.37      0.00
   -1   -3   10      1.49      0.00
   -1   -3    9     -2.31      0.00
   -1   -3    8      2.92      0.00
   -1   -3    7     -2.57      0.00
   -1   -3    6      0.43      0.00
   -1   -3    5      2.87      0.00
   -1   -3    4     -7.22      0.00
   -1   -3    3      7.82      0.00
   -1   -3    2     -4.61      0.00
   -1   -3    1     -0.84      0.00
    1    3    0      2.11      0.00
    1    3    1     -4.88      0.00
    1    3    2     10.94      0.00
    1    3    3     -7.33      0.00
    1    3    4      3.21      0.00
    1    3    5     -0.59      0.00
    1    3    6     -1.97      0.00
    1    3    7      2.75      0.00
    1    3    8     -3.25      0.00
    1    3    9      1.38      0.00
    1    3   10     -0.55      0.00
    1    3   11      0.01      0.00
    1    3   12      0.89      0.00
    1    3   13     -0.68      0.00
    1    3   14      0.53      0.00
    1    3   15     -0.21      0.00
    1    3   16     -0.07      0.00
    1    3   17      0.23      0.00
    1    3   18      0.11      0.00
    1    3   19     -0.44      0.00
    1    3   20      0.29      0.00
    1    3   21     -0.25      0.00
   -1   -4   23      0.05      0.00
   -1   -4   22      0.22      0.00
   -1   -4   21     -0.11      0.00
   -1   -4   20     -0.16      0.00
   -1   -4   19      0.64      0.00
   -1   -4   18     -0.22      0.00
   -1   -4   17      0.23      0.00
   -1   -4   16     -0.61      0.00
   -1   -4   15      0.30      0.00
   -1   -4   14      0.05      0.00
   -1   -4   13     -0.78      0.00
   -1   -4   12      1.22      0.00
   -1   -4   11     -1.44      0.00
   -1   -4   10      1.35      0.00
   -1   -4    9     -0.57      0.00
   -1   -4    8     -0.87      0.00
   -1   -4    7      2.99      0.00
   -1   -4    6     -3.77      0.00
   -1   -4    5      3.74      0.00
   -1   -4    4     -1.10      0.00
   -1   -4    3     -2.16      0.00
   -1   -4    2      5.19      0.00
   -1   -4    1     -7.13      0.00
    1    4    0      7.79      0.00
    1    4    1     -5.75      0.00
    1    4    2     -1.79      0.00
    1    4    3      4.13      0.00
    1    4    4     -4.39      0.00
    1    4    5      5.22      0.00
    1    4    6     -3.44      0.00
    1    4    7      1.60      0.00
    1    4    8      0.86      0.00
    1    4    9     -1.15      0.00
    1    4   10      1.30      0.00
    1    4   11     -1.62      0.00
    1    4   12      0.66      0.00
    1    4   13     -0.34      0.00
    1    4   14      0.07      0.00
    1    4   15      0.17      0.00
    1    4   16     -0.07      0.00
    1    4   17     -0.24      0.00
    1    4   18      0.35      0.00
    1    4   19     -0.06      0.00
    1    4   20     -0.25      0.00
    1    4   21      0.58      0.00
   -1   -5   23      0.00      0.00
   -1   -5   22     -0.47      0.00
   -1   -5   21      0.26      0.00
   -1   -5   20      0.00      0.00
   -1   -5   19     -0.35      0.00
   -1   -5   18     -0.09      0.00
   -1   -5   17      0.36      0.00
   -1   -5   16      0.43      0.00
   -1   -5   15     -0.68      0.00
   -1   -5   14      0.76      0.00
   -1   -5   13     -0.56      0.00
   -1   -5   12      0.11      0.00
   -1   -5   11      0.35      0.00
   -1   -5   10     -1.40      0.00
   -1   -5    9      2.20      0.00
   -1   -5    8     -2.54      0.00
   -1   -5    7      1.20      0.00
   -1   -5    6      0.40      0.00
   -1   -5    5     -2.55      0.00
   -1   -5    4      4.11      0.00
   -1   -5    3     -4.73      0.00
   -1   -5    2      4.07      0.00
   -1   -5    1      0.05      0.00
    1    5    0     -4.39      0.00
    1    5    1      7.43      0.00
    1    5    2     -5.64      0.00
    1    5    3      3.97      0.00
    1    5    4     -2.67      0.00
    1    5    5     -0.91      0.00
    1    5    6      2.43      0.00
    1    5    7     -2.97      0.00
    1    5    8      1.95      0.00
    1    5    9     -1.40      0.00
    1    5   10      0.72      0.00
    1    5   11      0.77      0.00
    1    5   12     -0.72      0.00
    1    5   13      0.56      0.00
    1    5   14     -0.61      0.00
    1    5   15      0.36      0.00
    1    5   16     -0.08      0.00
    1    5   17      0.03      0.00
    1    5   18     -0.28      0.00
    1    5   19      0.49      0.00
    1    5   20     -0.32      0.00
    1    5   21     -0.31      0.00
   -1   -6   22      0.48      0.00
   -1   -6   21     -0.43      0.00
   -1   -6   20     -0.04      0.00
   -1   -6   19      0.33      0.00
   -1   -6   18      0.10      0.00
   -1   -6   17     -0.83      0.00
   -1   -6   16      0.31      0.00
   -1   -6   15      0.13      0.00
   -1   -6   14     -0.30      0.00
   -1   -6   13      0.68      0.00
   -1   -6   12     -0.84      0.00
   -1   -6   11      1.26      0.00
   -1   -6   10     -0.89      0.00
   -1   -6    9     -0.05      0.00
   -1   -6    8      1.62      0.00
   -1   -6    7     -2.58      0.00
   -1   -6    6      2.74      0.00
   -1   -6    5     -2.12      0.00
   -1   -6    4      0.60      0.00
   -1   -6    3      1.43      0.00
   -1   -6    2     -4.85      0.00
   -1   -6    1      5.39      0.00
    1    6    0     -3.96      0.00
    1    6    1      1.21      0.00
    1    6    2      1.18      0.00
    1    6    3     -3.05      0.00
    1    6    4      4.87      0.00
    1    6    5     -3.47      0.00
    1    6    6      2.00      0.00
    1    6    7     -0.52      0.00
    1    6    8     -0.52      0.00
    1    6    9      1.52      0.00
    1    6   10     -2.03      0.00
    1    6   11      0.74      0.00
    1    6   12     -0.25      0.00
    1    6   13      0.36      0.00
    1    6   14     -0.01      0.00
    1    6   15     -0.33      0.00
    1    6   16      0.23      0.00
    1    6   17      0.11      0.00
    1    6   18     -0.20      0.00
    1    6   19     -0.16      0.00
    1    6   20      0.46      0.00
   -1   -7   22     -0.18      0.00
   -1   -7   21      0.46      0.00
   -1   -7   20      0.19      0.00
   -1   -7   19     -0.52      0.00
   -1   -7   18      0.22      0.00
   -1   -7   17      0.59      0.00
   -1   -7   16     -0.53      0.00
   -1   -7   15      0.21      0.00
   -1   -7   14     -0.43      0.00
   -1   -7   13      0.23      0.00
   -1   -7   12     -0.03      0.00
   -1   -7   11     -0.71      0.00
   -1   -7   10      1.42      0.00
   -1   -7    9     -1.77      0.00
   -1   -7    8      1.41      0.00
   -1   -7    7     -0.10      0.00
   -1   -7    6     -1.09      0.00
   -1   -7    5      2.08      0.00
   -1   -7    4     -2.58      0.00
   -1   -7    3      3.31      0.00
   -1   -7    2     -1.65      0.00
   -1   -7    1     -0.62      0.00
    1    7    0      2.86      0.00
    1    7    1     -4.55      0.00
    1    7    2      4.02      0.00
    1    7    3     -2.62      0.00
    1    7    4     -0.07      0.00
    1    7    5      1.22      0.00
    1    7    6     -1.92      0.00
    1    7    7      2.48      0.00
    1    7    8     -2.06      0.00
    1    7    9      0.74      0.00
    1    7   10      0.88      0.00
    1    7   11     -0.66      0.00
    1    7   12      0.29      0.00
    1    7   13     -0.72      0.00
    1    7   14      0.76      0.00
    1    7   15     -0.14      0.00
    1    7   16     -0.20      0.00
    1    7   17      0.00      0.00
    1    7   18      0.31      0.00
    1    7   19     -0.30      0.00
    1    7   20     -0.09      0.00
   -1   -8   22      0.01      0.00
   -1   -8   21     -0.55      0.00
   -1   -8   20     -0.17      0.00
   -1   -8   19      0.62      0.00
   -1   -8   18     -0.42      0.00
   -1   -8   17     -0.12      0.00
   -1   -8   16      0.23      0.00
   -1   -8   15      0.07      0.00
   -1   -8   14      0.34      0.00
   -1   -8   13     -0.59      0.00
   -1   -8   12      0.72      0.00
   -1   -8   11     -0.64      0.00
   -1   -8   10      0.15      0.00
   -1   -8    9      0.50      0.00
   -1   -8    8     -1.65      0.00
   -1   -8    7      1.83      0.00
   -1   -8    6     -1.38      0.00
   -1   -8    5      0.81      0.00
   -1   -8    4     -0.50      0.00
   -1   -8    3     -1.24      0.00
   -1   -8    2      3.09      0.00
   -1   -8    1     -3.68      0.00
    1    8    0      2.72      0.00
    1    8    1      0.04      0.00
    1    8    2     -1.62      0.00
    1    8    3      2.76      0.00
    1    8    4     -2.48      0.00
    1    8    5      2.03      0.00
    1    8    6     -1.44      0.00
    1    8    7     -0.38      0.00
    1    8    8      1.68      0.00
    1    8    9     -1.75      0.00
    1    8   10      0.60      0.00
    1    8   11     -0.27      0.00
    1    8   12      0.52      0.00
    1    8   13      0.02      0.00
    1    8   14     -0.66      0.00
    1    8   15      0.35      0.00
    1    8   16      0.15      0.00
    1    8   17     -0.17      0.00
    1    8   18      0.02      0.00
    1    8   19      0.18      0.00
   -1   -9   22     -0.02      0.00
   -1   -9   21      0.72      0.00
   -1   -9   20     -0.13      0.00
   -1   -9   19     -0.48      0.00
   -1   -9   18      0.26      0.00
   -1   -9   17     -0.04      0.00
   -1   -9   16      0.04      0.00
   -1   -9   15     -0.40      0.00
   -1   -9   14      0.18      0.00
   -1   -9   13      0.23      0.00
   -1   -9   12     -0.32      0.00
   -1   -9   11      0.60      0.00
   -1   -9   10     -0.82      0.00
   -1   -9    9      1.23      0.00
   -1   -9    8     -0.51      0.00
   -1   -9    7     -0.52      0.00
   -1   -9    6      0.96      0.00
   -1   -9    5     -1.19      0.00
   -1   -9    4      2.09      0.00
   -1   -9    3     -2.43      0.00
   -1   -9    2      0.80      0.00
   -1   -9    1      1.27      0.00
    1    9    0     -2.73      0.00
    1    9    1      2.40      0.00
    1    9    2     -2.04      0.00
    1    9    3      0.86      0.00
    1    9    4      0.23      0.00
    1    9    5     -1.03      0.00
    1    9    6      2.28      0.00
    1    9    7     -1.76      0.00
    1    9    8      0.45      0.00
    1    9    9      0.51      0.00
    1    9   10     -0.51      0.00
    1    9   11      0.42      0.00
    1    9   12     -0.84      0.00
    1    9   13      0.67      0.00
    1    9   14      0.14      0.00
    1    9   15     -0.29      0.00
    1    9   16     -0.10      0.00
    1    9   17      0.14      0.00
    1    9   18     -0.15      0.00
    1    9   19      0.04      0.00
   -1  -10   20      0.36      0.00
   -1  -10   19      0.28      0.00
   -1  -10   18      0.05      0.00
   -1  -10   17     -0.15      0.00
   -1  -10   16     -0.06      0.00
   -1  -10   15      0.44      0.00
   -1  -10   14     -0.47      0.00
   -1  -10   13      0.03      0.00
   -1  -10   12     -0.14      0.00
   -1  -10   11      0.22      0.00
   -1  -10   10     -0.19      0.00
   -1  -10    9     -0.68      0.00
   -1  -10    8      1.35      0.00
   -1  -10    7     -1.02      0.00
   -1  -10    6      0.65      0.00
   -1  -10    5     -0.53      0.00
   -1  -10    4     -0.13      0.00
   -1  -10    3      1.82      0.00
   -1  -10    2     -2.26      0.00
   -1  -10    1      1.72      0.00
    1   10    0     -0.80      0.00
    1   10    1     -0.04      0.00
    1   10    2      1.31      0.00
    1   10    3     -1.72      0.00
    1   10    4      1.43      0.00
    1   10    5     -1.39      0.00
    1   10    6     -0.20      0.00
    1   10    7      1.17      0.00
    1   10    8     -1.12      0.00
    1   10    9      0.80      0.00
    1   10   10     -0.46      0.00
    1   10   11      0.33      0.00
    1   10   12      0.22      0.00
    1   10   13     -0.62      0.00
    1   10   14      0.16      0.00
    1   10   15      0.22      0.00
    1   10   16      0.01      0.00
    1   10   17     -0.03      0.00
    1   10   18      0.02      0.00
    1   10   19      0.04      0.00
   -1  -11   19     -0.31      0.00
   -1  -11   18     -0.18      0.00
   -1  -11   17      0.44      0.00
   -1  -11   16     -0.11      0.00
   -1  -11   15     -0.29      0.00
   -1  -11   14      0.46      0.00
   -1  -11   13      0.01      0.00
   -1  -11   12     -0.06      0.00
   -1  -11   11     -0.22      0.00
   -1  -11   10      0.76      0.00
   -1  -11    9     -0.82      0.00
   -1  -11    8     -0.04      0.00
   -1  -11    7      0.53      0.00
   -1  -11    6     -0.66      0.00
   -1  -11    5      0.96      0.00
   -1  -11    4     -1.50      0.00
   -1  -11    3      0.72      0.00
   -1  -11    2      0.07      0.00
   -1  -11    1     -0.69      0.00
    1   11    0      1.61      0.00
    1   11    1     -1.80      0.00
    1   11    2      0.88      0.00
    1   11    3     -0.06      0.00
    1   11    4     -0.22      0.00
    1   11    5      1.38      0.00
    1   11    6     -1.24      0.00
    1   11    7      0.47      0.00
    1   11    8     -0.09      0.00
    1   11    9     -0.44      0.00
    1   11   10      0.56      0.00
    1   11   11     -0.72      0.00
    1   11   12      0.58      0.00
    1   11   13      0.03      0.00
    1   11   14     -0.14      0.00
    1   11   15     -0.17      0.00
    1   11   16      0.09      0.00
    1   11   17      0.01      0.00
    1   11   18      0.00      0.00
   -1  -12   19      0.48      0.00
   -1  -12   18      0.00      0.00
   -1  -12   17     -0.53      0.00
   -1  -12   16      0.28      0.00
   -1  -12   15      0.14      0.00
   -1  -12   14     -0.40      0.00
   -1  -12   13     -0.04      0.00
   -1  -12   12      0.37      0.00
   -1  -12   11     -0.41      0.00
   -1  -12   10      0.09      0.00
   -1  -12    9      0.73      0.00
   -1  -12    8     -0.82      0.00
   -1  -12    7      0.57      0.00
   -1  -12    6     -0.46      0.00
   -1  -12    5      0.40      0.00
   -1  -12    4      0.56      0.00
   -1  -12    3     -1.01      0.00
   -1  -12    2      1.29      0.00
   -1  -12    1     -1.50      0.00
    1   12    0      0.26      0.00
    1   12    1      0.71      0.00
    1   12    2     -0.90      0.00
    1   12    3      0.87      0.00
    1   12    4     -1.12      0.00
    1   12    5      0.32      0.00
    1   12    6      0.45      0.00
    1   12    7     -0.57      0.00
    1   12    8      0.92      0.00
    1   12    9     -0.64      0.00
    1   12   10      0.41      0.00
    1   12   11     -0.07      0.00
    1   12   12     -0.49      0.00
    1   12   13      0.35      0.00
    1   12   14      0.01      0.00
    1   12   15      0.06      0.00
    1   12   16     -0.12      0.00
    1   12   17      0.04      0.00
   -1  -13   19     -0.44      0.00
   -1  -13   18      0.20      0.00
   -1  -13   17      0.40      0.00
   -1  -13   16     -0.35      0.00
   -1  -13   15     -0.08      0.00
   -1  -13   14      0.47      0.00
   -1  -13   13     -0.19      0.00
   -1  -13   12     -0.20      0.00
   -1  -13   11      0.49      0.00
   -1  -13   10     -0.83      0.00
   -1  -13    9      0.43      0.00
   -1  -13    8      0.05      0.00
   -1  -13    7     -0.26      0.00
   -1  -13    6      0.52      0.00
   -1  -13    5     -1.15      0.00
   -1  -13    4      0.95      0.00
   -1  -13    3     -0.58      0.00
   -1  -13    2     -0.02      0.00
   -1  -13    1      1.36      0.00
    1   13    0     -1.15      0.00
    1   13    1      0.78      0.00
    1   13    2     -0.47      0.00
    1   13    3     -0.01      0.00
    1   13    4      0.54      0.00
    1   13    5     -0.88      0.00
    1   13    6      0.71      0.00
    1   13    7     -0.65      0.00
    1   13    8      0.03      0.00
    1   13    9      0.38      0.00
    1   13   10     -0.67      0.00
    1   13   11      0.94      0.00
    1   13   12     -0.38      0.00
    1   13   13     -0.09      0.00
    1   13   14     -0.01      0.00
    1   13   15      0.07      0.00
    1   13   16      0.02      0.00
    1   13   17     -0.07      0.00
   -1  -14   17     -0.23      0.00
   -1  -14   16      0.39      0.00
   -1  -14   15     -0.07      0.00
   -1  -14   14     -0.51      0.00
   -1  -14   13      0.48      0.00
   -1  -14   12     -0.22      0.00
   -1  -14   11      0.06      0.00
   -1  -14   10      0.41      0.00
   -1  -14    9     -0.61      0.00
   -1  -14    8      0.59      0.00
   -1  -14    7     -0.59      0.00
   -1  -14    6      0.54      0.00
   -1  -14    5      0.20      0.00
   -1  -14    4     -0.71      0.00
   -1  -14    3      1.04      0.00
   -1  -14    2     -1.41      0.00
   -1  -14    1      0.27      0.00
    1   14    0      0.08      0.00
    1   14    1     -0.51      0.00
    1   14    2      0.87      0.00
    1   14    3     -0.45      0.00
    1   14    4      0.67      0.00
    1   14    5     -0.28      0.00
    1   14    6     -0.22      0.00
    1   14    7      0.77      0.00
    1   14    8     -0.99      0.00
    1   14    9      0.78      0.00
    1   14   10     -0.50      0.00
    1   14   11     -0.35      0.00
    1   14   12      0.62      0.00
    1   14   13     -0.30      0.00
    1   14   14      0.18      0.00
    1   14   15     -0.14      0.00
    1   14   16      0.10      0.00
   -1  -15   17      0.07      0.00
   -1  -15   16     -0.32      0.00
   -1  -15   15      0.35      0.00
   -1  -15   14      0.23      0.00
   -1  -15   13     -0.48      0.00
   -1  -15   12      0.40      0.00
   -1  -15   11     -0.39      0.00
   -1  -15   10      0.19      0.00
   -1  -15    9     -0.08      0.00
   -1  -15    8     -0.09      0.00
   -1  -15    6     -0.81      0.00
   -1  -15    5      0.74      0.00
   -1  -15    4     -0.45      0.00
   -1  -15    3      0.18      0.00
   -1  -15    2      0.90      0.00
   -1  -15    1     -0.73      0.00
    1   15    0      0.78      0.00
    1   15    1     -0.47      0.00
    1   15    2     -0.28      0.00
    1   15    3     -0.38      0.00
    1   15    4     -0.37      0.00
    1   15    5      0.92      0.00
    1   15    6     -0.77      0.00
    1   15    7      0.62      0.00
    1   15    8      0.11      0.00
    1   15    9     -0.56      0.00
    1   15   10      1.04      0.00
    1   15   11     -0.81      0.00
    1   15   12      0.20      0.00
    1   15   13      0.08      0.00
    1   15   14     -0.24      0.00
    1   15   15      0.12      0.00
    1   15   16     -0.10      0.00
   -1  -16   14      0.17      0.00
   -1  -16   13      0.13      0.00
   -1  -16   12     -0.21      0.00
   -1  -16    8     -0.34      0.00
   -1  -16    7      0.28      0.00
   -1  -16    6      0.06      0.00
   -1  -16    5     -0.42      0.00
   -1  -16    4      0.54      0.00
   -1  -16    3     -0.95      0.00
   -1  -16    2      0.28      0.00
   -1  -16    1     -0.07      0.00
    1   16    0     -0.23      0.00
    1   16    1      0.46      0.00
    1   16    2      0.37      0.00
    1   16    3      0.77      0.00
    1   16    4     -0.75      0.00
    1   16    5     -0.02      0.00
    1   16    6      0.10      0.00
    1   16    7     -0.99      0.00
    1   16    8      0.97      0.00
    1   16    9     -0.74      0.00
    1   16   10      0.18      0.00
    1   16   11      0.58      0.00
    1   16   12     -0.70      0.00
    1   16   13      0.48      0.00
    1   16   14      0.10      0.00
   -1  -17    5     -0.12      0.00
   -1  -17    4      0.12      0.00
   -1  -17    3      0.43      0.00
   -1  -17    2     -0.39      0.00
   -1  -17    1      0.34      0.00
    1   17    0     -0.32      0.00
    1   17    1     -0.14      0.00
    1   17    2     -0.94      0.00
    1   17    3      0.31      0.00
    1   17    4      0.44      0.00
    1   17    5     -0.34      0.00
    1   17    6      1.16      0.00
    1   17    7     -0.33      0.00
    1   17    8     -0.32      0.00
    1   17    9      0.64      0.00
    1   17   10     -1.10      0.00
    1   17   11      0.58      0.00
    1   17   12      0.15      0.00
    1   17   13     -0.61      0.00
   -1  -18    5      0.09      0.00
   -1  -18    4     -0.28      0.00
   -1  -18    3      0.13      0.00
   -1  -18    2     -0.02      0.00
   -1  -18    1      0.07      0.00
    1   18    0      0.09      0.00
    1   18    1      0.61      0.00
    1   18    2      0.25      0.00
    1   18    3     -0.85      0.00
    1   18    4      0.69      0.00
    1   18    5     -0.84      0.00
    1   18    6     -0.74      0.00
    1   18    7      0.93      0.00
    1   18    8     -0.56      0.00
    1   18    9      0.67      0.00
    1   18   10      0.26      0.00
    1   18   11     -0.76      0.00
    1   18   12      0.47      0.00
    1   18   13      0.31      0.00
   -1  -19    3     -0.21      0.00
   -1  -19    2      0.08      0.00
   -1  -19    1     -0.10      0.00
    1   19    0     -0.14      0.00
    1   19    1     -0.77      0.00
    1   19    2      1.11      0.00
    1   19    3     -0.35      0.00
    1   19    4     -0.37      0.00
    1   19    5      1.44      0.00
    1   19    6     -0.45      0.00
    1   19    7     -0.17      0.00
    1   19    8     -0.04      0.00
    1   19    9     -0.83      0.00
    1   19   10      0.72      0.00
    1   19   11     -0.01      0.00
    1   19   12     -0.39      0.00
   -1  -20    2     -0.14      0.00
   -1  -20    1     -0.04      0.00
    1   20    0      0.61      0.00
    1   20    1     -0.24      0.00
    1   20    2     -1.01      0.00
    1   20    3      1.28      0.00
    1   20    4     -0.80      0.00
    1   20    5     -0.54      0.00
    1   20    6      0.46      0.00
    1   20    7     -0.10      0.00
    1   20    8      0.78      0.00
    1   20    9     -0.18      0.00
    1   20   10     -0.46      0.00
    1   20   11      0.36      0.00
    1   21    1      1.02      0.00
    1   21    2     -0.20      0.00
    1   21    3     -0.66      0.00
    1   21    4      0.86      0.00
    1   21    5     -0.18      0.00
    1   21   10     -0.15      0.00
   -2   20   11      0.66      0.00
   -2   20    7      0.42      0.00
   -2   20    5      0.10      0.00
   -2   20    4     -0.35      0.00
   -2   19   13      0.76      0.00
   -2   19   11     -0.08      0.00
   -2   19   10      0.49      0.00
   -2   19    9     -0.27      0.00
   -2   19    8     -0.12      0.00
   -2   19    7     -0.31      0.00
   -2   19    6      0.36      0.00
   -2   19    5     -0.12      0.00
   -2   19    4      0.58      0.00
   -2   19    3     -0.08      0.00
   -2   18   15      0.67      0.00
   -2   18   14     -0.45      0.00
   -2   18   13     -0.19      0.00
   -2   18   12      0.80      0.00
   -2   18   11     -0.77      0.00
   -2   18   10      0.18      0.00
   -2   18    9      0.12      0.00
   -2   18    8      0.30      0.00
   -2   18    7     -0.09      0.00
   -2   18    6     -0.18      0.00
   -2   18    5     -0.04      0.00
   -2   18    4     -0.55      0.00
   -2   18    3      0.08      0.00
   -2   17   16     -0.18      0.00
   -2   17   15     -0.36      0.00
   -2   17   14      0.58      0.00
   -2   17   13     -0.68      0.00
   -2   17   12      0.21      0.00
   -2   17   11      0.64      0.00
   -2   17   10     -0.71      0.00
   -2   17    9      0.22      0.00
   -2   17    8     -0.42      0.00
   -2   17    7      0.51      0.00
   -2   17    6     -0.27      0.00
   -2   17    5      0.35      0.00
   -2   17    4      0.40      0.00
   -2   17    3     -0.20      0.00
   -2   16   16      0.32      0.00
   -2   16   15     -0.15      0.00
   -2   16   14      0.09      0.00
   -2   16   13      0.60      0.00
   -2   16   12     -1.19      0.00
   -2   16   11      0.45      0.00
   -2   16   10      0.35      0.00
   -2   16    9     -0.19      0.00
   -2   16    8      0.14      0.00
   -2   16    7     -0.43      0.00
   -2   16    6      0.61      0.00
   -2   16    5     -0.82      0.00
   -2   16    4      0.11      0.00
   -2   16    3      0.12      0.00
   -2   16    2      0.41      0.00
   -2   15   17      0.12      0.00
   -2   15   16     -0.16      0.00
   -2   15   15      0.25      0.00
   -2   15   14     -0.76      0.00
   -2   15   13      0.43      0.00
   -2   15   12      0.92      0.00
   -2   15   11     -1.09      0.00
   -2   15   10      0.30      0.00
   -2   15    9     -0.16      0.00
   -2   15    8      0.41      0.00
   -2   15    7     -0.37      0.00
   -2   15    6     -0.13      0.00
   -2   15    5      0.72      0.00
   -2   15    4     -0.52      0.00
   -2   15    3      0.33      0.00
   -2   15    2     -0.85      0.00
   -2   15    1     -0.19      0.00
   -2   14   17      0.03      0.00
   -2   14   16     -0.08      0.00
   -2   14   15      0.05      0.00
   -2   14   14      0.71      0.00
   -2   14   13     -1.21      0.00
   -2   14   12      0.15      0.00
   -2   14   11      0.60      0.00
   -2   14   10     -0.21      0.00
   -2   14    9      0.02      0.00
   -2   14    8     -0.37      0.00
   -2   14    7      0.91      0.00
   -2   14    6     -0.73      0.00
   -2   14    5      0.24      0.00
   -2   14    4     -0.11      0.00
   -2   14    3     -0.19      0.00
   -2   14    2      0.94      0.00
   -2   14    1     -0.71      0.00
   -2   13   18      0.15      0.00
   -2   13   17     -0.19      0.00
   -2   13   16      0.31      0.00
   -2   13   15     -0.45      0.00
   -2   13   14     -0.02      0.00
   -2   13   13      0.88      0.00
   -2   13   12     -0.54      0.00
   -2   13   11     -0.04      0.00
   -2   13   10     -0.30      0.00
   -2   13    9      0.60      0.00
   -2   13    8     -0.50      0.00
   -2   13    7     -0.22      0.00
   -2   13    6      0.57      0.00
   -2   13    5     -0.66      0.00
   -2   13    4      1.07      0.00
   -2   13    3     -0.73      0.00
   -2   13    2      0.09      0.00
    2  -13   13      0.20      0.00
    2  -13   14     -0.69      0.00
    2  -13   15      0.59      0.00
   -2   12   19     -0.28      0.00
   -2   12   18      0.07      0.00
   -2   12   17      0.10      0.00
   -2   12   16     -0.23      0.00
   -2   12   15      0.51      0.00
   -2   12   14     -0.51      0.00
   -2   12   13     -0.05      0.00
   -2   12   12     -0.05      0.00
   -2   12   11      0.48      0.00
   -2   12   10     -0.02      0.00
   -2   12    9     -0.54      0.00
   -2   12    8      0.91      0.00
   -2   12    7     -0.78      0.00
   -2   12    6      0.61      0.00
   -2   12    5     -0.42      0.00
   -2   12    4     -0.65      0.00
   -2   12    3      0.80      0.00
   -2   12    2     -0.84      0.00
    2  -12   11      0.44      0.00
    2  -12   12     -0.90      0.00
    2  -12   13      0.35      0.00
    2  -12   14      0.35      0.00
    2  -12   15     -0.60      0.00
   -2   11   19      0.21      0.00
   -2   11   18     -0.18      0.00
   -2   11   17      0.07      0.00
   -2   11   16     -0.19      0.00
   -2   11   15      0.04      0.00
   -2   11   14      0.19      0.00
   -2   11   13     -0.03      0.00
   -2   11   12      0.26      0.00
   -2   11   11     -0.98      0.00
   -2   11   10      0.90      0.00
   -2   11    9     -0.45      0.00
   -2   11    7      0.35      0.00
   -2   11    6     -0.85      0.00
   -2   11    5      1.45      0.00
   -2   11    4     -0.66      0.00
   -2   11    2     -0.27      0.00
   -2   11    0      0.44      0.00
    2  -11   10     -0.23      0.00
    2  -11   11     -0.23      0.00
    2  -11   12      0.92      0.00
    2  -11   13     -0.66      0.00
    2  -11   14      0.20      0.00
    2  -11   15      0.12      0.00
    2  -11   19      0.40      0.00
   -2   10   20     -0.13      0.00
   -2   10   19     -0.07      0.00
   -2   10   18     -0.04      0.00
   -2   10   17      0.27      0.00
   -2   10   16      0.19      0.00
   -2   10   15     -0.53      0.00
   -2   10   14      0.41      0.00
   -2   10   13     -0.57      0.00
   -2   10   12      0.58      0.00
   -2   10   11      0.14      0.00
   -2   10   10     -0.65      0.00
   -2   10    9      0.69      0.00
   -2   10    8     -1.08      0.00
   -2   10    7      1.11      0.00
   -2   10    6     -0.64      0.00
   -2   10    5     -0.48      0.00
   -2   10    4      0.53      0.00
   -2   10    3     -0.80      0.00
   -2   10    2      1.68      0.00
   -2   10    1     -1.19      0.00
    2  -10    8      0.67      0.00
    2  -10    9     -0.76      0.00
    2  -10   10      0.87      0.00
    2  -10   11     -0.46      0.00
    2  -10   12     -0.32      0.00
    2  -10   13      0.27      0.00
    2  -10   14     -0.26      0.00
    2  -10   15      0.39      0.00
    2  -10   16     -0.11      0.00
    2  -10   17      0.22      0.00
    2  -10   18      0.33      0.00
    2  -10   19     -0.52      0.00
   -2    9   20     -0.12      0.00
   -2    9   19      0.33      0.00
   -2    9   18     -0.10      0.00
   -2    9   17     -0.72      0.00
   -2    9   16      0.53      0.00
   -2    9   15      0.17      0.00
   -2    9   14     -0.21      0.00
   -2    9   13      0.38      0.00
   -2    9   12     -0.90      0.00
   -2    9   11      1.00      0.00
   -2    9   10     -0.67      0.00
   -2    9    9      0.74      0.00
   -2    9    8      0.02      0.00
   -2    9    7     -1.02      0.00
   -2    9    6      1.60      0.00
   -2    9    5     -1.28      0.00
   -2    9    4      1.24      0.00
   -2    9    3     -1.31      0.00
   -2    9    2     -0.36      0.00
   -2    9    1      1.58      0.00
   -2    9    0     -2.32      0.00
    2   -9    7     -0.97      0.00
    2   -9    8      0.35      0.00
    2   -9    9      0.57      0.00
    2   -9   10     -0.97      0.00
    2   -9   11      0.83      0.00
    2   -9   12     -0.27      0.00
    2   -9   13      0.47      0.00
    2   -9   14     -0.32      0.00
    2   -9   15     -0.50      0.00
    2   -9   16      0.39      0.00
    2   -9   17     -0.43      0.00
    2   -9   18      0.10      0.00
    2   -9   19      0.34      0.00
    2   -9   20      0.42      0.00
   -2    8   21      0.36      0.00
   -2    8   20     -0.07      0.00
   -2    8   19     -0.50      0.00
   -2    8   18      0.76      0.00
   -2    8   17      0.29      0.00
   -2    8   16     -0.88      0.00
   -2    8   15      0.34      0.00
   -2    8   14     -0.38      0.00
   -2    8   13      0.71      0.00
   -2    8   12     -0.40      0.00
   -2    8   11     -0.33      0.00
   -2    8   10      0.63      0.00
   -2    8    9     -1.59      0.00
   -2    8    8      1.92      0.00
   -2    8    7     -1.24      0.00
   -2    8    6      0.26      0.00
   -2    8    5      0.57      0.00
   -2    8    3      2.98      0.00
   -2    8    1      1.09      0.00
    2   -8    6     -0.08      0.00
    2   -8    7      1.55      0.00
    2   -8    8     -1.91      0.00
    2   -8    9      0.87      0.00
    2   -8   10     -0.13      0.00
    2   -8   11     -0.06      0.00
    2   -8   12     -0.04      0.00
    2   -8   13     -0.70      0.00
    2   -8   14      1.03      0.00
    2   -8   15      0.10      0.00
    2   -8   16     -0.34      0.00
    2   -8   17      0.36      0.00
    2   -8   18     -0.40      0.00
    2   -8   19     -0.22      0.00
    2   -8   20     -0.69      0.00
   -2    7   21     -0.51      0.00
   -2    7   20      0.59      0.00
   -2    7   19     -0.12      0.00
   -2    7   18     -0.85      0.00
   -2    7   17      0.61      0.00
   -2    7   16      0.27      0.00
   -2    7   15      0.01      0.00
   -2    7   14     -0.05      0.00
   -2    7   13     -0.74      0.00
   -2    7   12      1.39      0.00
   -2    7   11     -1.23      0.00
   -2    7   10      1.28      0.00
   -2    7    9     -0.32      0.00
   -2    7    8     -1.22      0.00
   -2    7    7      2.05      0.00
   -2    7    6     -2.50      0.00
   -2    7    5      2.21      0.00
   -2    7    4     -2.20      0.00
   -2    7    3     -0.13      0.00
   -2    7    2      2.53      0.00
    2   -7    5      2.06      0.00
    2   -7    6     -2.45      0.00
    2   -7    7      0.84      0.00
    2   -7    8      0.92      0.00
    2   -7    9     -1.02      0.00
    2   -7   10      0.78      0.00
    2   -7   11     -0.95      0.00
    2   -7   12      1.10      0.00
    2   -7   13     -0.09      0.00
    2   -7   14     -1.05      0.00
    2   -7   15      0.34      0.00
    2   -7   16     -0.03      0.00
    2   -7   17      0.16      0.00
    2   -7   18      0.25      0.00
    2   -7   19      0.40      0.00
    2   -7   20      0.21      0.00
    2   -7   21     -1.02      0.00
    2   -7   22      0.43      0.00
   -2    6   21     -0.05      0.00
   -2    6   20     -0.40      0.00
   -2    6   19      0.73      0.00
   -2    6   18      0.00      0.00
   -2    6   17     -0.65      0.00
   -2    6   16      0.21      0.00
   -2    6   15     -0.46      0.00
   -2    6   14      1.03      0.00
   -2    6   13     -0.73      0.00
   -2    6   12     -0.16      0.00
   -2    6   11      0.67      0.00
   -2    6   10     -1.75      0.00
   -2    6    9      2.40      0.00
   -2    6    8     -1.73      0.00
   -2    6    7      0.88      0.00
   -2    6    6      0.66      0.00
   -2    6    5     -1.65      0.00
   -2    6    4      3.98      0.00
   -2    6    3     -4.30      0.00
   -2    6    2      2.25      0.00
   -2    6    1     -1.04      0.00
    2   -6    4     -1.64      0.00
    2   -6    5      0.53      0.00
    2   -6    6      1.83      0.00
    2   -6    7     -2.43      0.00
    2   -6    8      1.35      0.00
    2   -6    9     -0.78      0.00
    2   -6   10      0.51      0.00
    2   -6   11      0.35      0.00
    2   -6   12     -1.31      0.00
    2   -6   13      0.97      0.00
    2   -6   14      0.26      0.00
    2   -6   15     -0.09      0.00
    2   -6   16      0.00      0.00
    2   -6   17     -0.62      0.00
    2   -6   18      0.21      0.00
    2   -6   19     -0.62      0.00
    2   -6   20      0.63      0.00
    2   -6   21      0.34      0.00
    2   -6   22     -0.15      0.00
   -2    5   21      0.45      0.00
   -2    5   20     -0.39      0.00
   -2    5   19     -0.31      0.00
   -2    5   18      0.57      0.00
   -2    5   17      0.02      0.00
   -2    5   16      0.12      0.00
   -2    5   15     -0.13      0.00
   -2    5   14     -0.65      0.00
   -2    5   13      1.24      0.00
   -2    5   12     -1.27      0.00
   -2    5   11      1.41      0.00
   -2    5   10     -0.71      0.00
   -2    5    9     -0.82      0.00
   -2    5    8      1.80      0.00
   -2    5    7     -3.01      0.00
   -2    5    6      3.07      0.00
   -2    5    5     -3.32      0.00
   -2    5    4      0.87      0.00
   -2    5    3      2.18      0.00
   -2    5    2     -3.06      0.00
   -2    5    1      5.08      0.00
   -2    5    0     -4.78      0.00
    2   -5    3     -1.16      0.00
    2   -5    5     -3.30      0.00
    2   -5    6      1.79      0.00
    2   -5    7      0.18      0.00
    2   -5    8     -0.84      0.00
    2   -5    9      1.26      0.00
    2   -5   10     -1.71      0.00
    2   -5   11      1.27      0.00
    2   -5   12     -0.02      0.00
    2   -5   13     -0.54      0.00
    2   -5   14      0.13      0.00
    2   -5   15     -0.49      0.00
    2   -5   16      0.70      0.00
    2   -5   17      0.21      0.00
    2   -5   18     -0.30      0.00
    2   -5   19      0.47      0.00
    2   -5   20     -0.86      0.00
    2   -5   21      0.24      0.00
    2   -5   22     -0.54      0.00
   -2    4   22     -0.06      0.00
   -2    4   21     -0.01      0.00
   -2    4   20      0.48      0.00
   -2    4   19     -0.40      0.00
   -2    4   18     -0.18      0.00
   -2    4   17      0.02      0.00
   -2    4   16     -0.21      0.00
   -2    4   15      0.80      0.00
   -2    4   14     -0.72      0.00
   -2    4   13      0.27      0.00
   -2    4   12      0.18      0.00
   -2    4   11     -1.16      0.00
   -2    4   10      2.06      0.00
   -2    4    9     -2.05      0.00
   -2    4    8      1.94      0.00
   -2    4    7     -0.26      0.00
   -2    4    6     -1.46      0.00
   -2    4    5      4.48      0.00
   -2    4    4     -5.71      0.00
   -2    4    3      4.52      0.00
   -2    4    2     -4.40      0.00
   -2    4    1     -0.02      0.00
   -2    4    0      3.91      0.00
    2   -4    1     -4.66      0.00
    2   -4    2      3.82      0.00
    2   -4    4      1.96      0.00
    2   -4    5      1.30      0.00
    2   -4    6     -2.73      0.00
    2   -4    7      2.20      0.00
    2   -4    8     -1.70      0.00
    2   -4    9      0.95      0.00
    2   -4   10      0.24      0.00
    2   -4   11     -1.10      0.00
    2   -4   12      0.86      0.00
    2   -4   13     -0.55      0.00
    2   -4   14      0.58      0.00
    2   -4   15      0.18      0.00
    2   -4   16     -0.99      0.00
    2   -4   17      0.65      0.00
    2   -4   18     -0.20      0.00
    2   -4   19      0.01      0.00
    2   -4   20      0.39      0.00
    2   -4   21      0.01      0.00
   -2    3   22      0.03      0.00
   -2    3   21     -0.40      0.00
   -2    3   20      0.26      0.00
   -2    3   19      0.16      0.00
   -2    3   18     -0.09      0.00
   -2    3   17      0.40      0.00
   -2    3   16     -0.55      0.00
   -2    3   15     -0.14      0.00
   -2    3   14      0.73      0.00
   -2    3   13     -1.12      0.00
   -2    3   12      1.51      0.00
   -2    3   11     -1.38      0.00
   -2    3   10      0.45      0.00
   -2    3    9      0.73      0.00
   -2    3    8     -2.92      0.00
   -2    3    7      3.87      0.00
   -2    3    6     -4.05      0.00
   -2    3    5      1.95      0.00
   -2    3    4      1.13      0.00
   -2    3    3     -2.84      0.00
   -2    3    2      7.88      0.00
   -2    3    1     -8.14      0.00
   -2    3    0      5.06      0.00
    2   -3    1     -2.16      0.00
    2   -3    2     -1.63      0.00
    2   -3    3      3.40      0.00
    2   -3    4     -4.75      0.00
    2   -3    5      3.11      0.00
    2   -3    6     -0.75      0.00
    2   -3    7     -0.25      0.00
    2   -3    8      1.37      0.00
    2   -3    9     -2.01      0.00
    2   -3   10      1.83      0.00
    2   -3   11     -0.88      0.00
    2   -3   12      0.25      0.00
    2   -3   13      0.27      0.00
    2   -3   14     -0.95      0.00
    2   -3   15      0.67      0.00
    2   -3   16      0.09      0.00
    2   -3   17     -0.64      0.00
    2   -3   18      0.60      0.00
    2   -3   19     -0.27      0.00
    2   -3   20     -0.04      0.00
    2   -3   21     -0.33      0.00
    2   -3   22      0.31      0.00
   -2    2   22      0.28      0.00
   -2    2   21     -0.03      0.00
   -2    2   20     -0.53      0.00
   -2    2   19      0.55      0.00
   -2    2   18     -0.49      0.00
   -2    2   17     -0.11      0.00
   -2    2   16      0.86      0.00
   -2    2   15     -0.85      0.00
   -2    2   14      0.66      0.00
   -2    2   13     -0.33      0.00
   -2    2   12     -0.43      0.00
   -2    2   11      1.57      0.00
   -2    2   10     -2.47      0.00
   -2    2    9      2.95      0.00
   -2    2    8     -1.33      0.00
   -2    2    7     -0.95      0.00
   -2    2    6      3.52      0.00
   -2    2    5     -5.43      0.00
   -2    2    4      5.83      0.00
   -2    2    3     -7.35      0.00
   -2    2    2      2.34      0.00
   -2    2    1      3.42      0.00
   -2    2    0     -7.03      0.00
    2   -2    1      9.64      0.00
    2   -2    2     -5.68      0.00
    2   -2    3      2.23      0.00
    2   -2    4      0.76      0.00
    2   -2    5     -2.56      0.00
    2   -2    6      2.41      0.00
    2   -2    7     -2.75      0.00
    2   -2    8      1.89      0.00
    2   -2    9     -0.49      0.00
    2   -2   10     -0.81      0.00
    2   -2   11      1.25      0.00
    2   -2   12     -1.19      0.00
    2   -2   13      0.93      0.00
    2   -2   14     -0.02      0.00
    2   -2   15     -0.46      0.00
    2   -2   16      0.71      0.00
    2   -2   17     -0.22      0.00
    2   -2   18     -0.41      0.00
    2   -2   19      0.15      0.00
    2   -2   20      0.14      0.00
    2   -2   21      0.01      0.00
    2   -2   22     -0.39      0.00
   -2    1   22     -0.07      0.00
   -2    1   21      0.61      0.00
   -2    1   20     -0.13      0.00
   -2    1   19     -0.44      0.00
   -2    1   18      0.92      0.00
   -2    1   17     -0.71      0.00
   -2    1   16     -0.01      0.00
   -2    1   15      0.36      0.00
   -2    1   14     -0.84      0.00
   -2    1   13      1.43      0.00
   -2    1   12     -1.77      0.00
   -2    1   11      1.32      0.00
   -2    1   10      0.03      0.00
   -2    1    9     -2.23      0.00
   -2    1    8      3.52      0.00
   -2    1    7     -3.63      0.00
   -2    1    6      3.07      0.00
   -2    1    5     -1.07      0.00
   -2    1    4     -1.32      0.00
   -2    1    3      8.16      0.00
   -2    1    2    -11.39      0.00
   -2    1    1      9.70      0.00
   -2    1    0     -4.99      0.00
    2   -1    1     -4.36      0.00
    2   -1    2      5.73      0.00
    2   -1    3     -4.58      0.00
    2   -1    4      4.34      0.00
    2   -1    5     -2.42      0.00
    2   -1    6      1.34      0.00
    2   -1    7      0.97      0.00
    2   -1    8     -2.36      0.00
    2   -1    9      2.47      0.00
    2   -1   10     -1.70      0.00
    2   -1   11      0.65      0.00
    2   -1   12     -0.08      0.00
    2   -1   13     -0.65      0.00
    2   -1   14      0.71      0.00
    2   -1   15     -0.55      0.00
    2   -1   16     -0.28      0.00
    2   -1   17      0.68      0.00
    2   -1   18      0.10      0.00
    2   -1   19     -0.01      0.00
    2   -1   20     -0.17      0.00
    2   -1   21      0.27      0.00
    2   -1   22     -0.09      0.00
   -2    0   23      0.50      0.00
   -2    0   22     -0.44      0.00
   -2    0   21     -0.47      0.00
   -2    0   20      0.66      0.00
   -2    0   19     -0.37      0.00
   -2    0   18     -0.32      0.00
   -2    0   17      0.68      0.00
   -2    0   16     -0.57      0.00
   -2    0   15      0.76      0.00
   -2    0   14     -0.62      0.00
   -2    0   13     -0.04      0.00
   -2    0   12      1.10      0.00
   -2    0   11     -2.25      0.00
   -2    0   10      2.71      0.00
   -2    0    9     -1.97      0.00
   -2    0    8      0.31      0.00
   -2    0    7      1.32      0.00
   -2    0    6     -3.95      0.00
   -2    0    5      6.24      0.00
   -2    0    4     -8.41      0.00
   -2    0    3      4.62      0.00
   -2    0    2      2.89      0.00
   -2    0    1     -9.23      0.00
    2    0    0     12.78      0.00
    2    0    1     -5.93      0.00
    2    0    2      2.35      0.00
    2    0    3     -2.21      0.00
    2    0    4     -1.34      0.00
    2    0    5      2.78      0.00
    2    0    6     -3.97      0.00
    2    0    7      2.99      0.00
    2    0    8     -1.04      0.00
    2    0    9     -0.37      0.00
    2    0   10      1.32      0.00
    2    0   11     -1.25      0.00
    2    0   12      1.38      0.00
    2    0   13     -0.82      0.00
    2    0   14      0.06      0.00
    2    0   15      0.66      0.00
    2    0   16     -0.45      0.00
    2    0   17     -0.39      0.00
    2    0   18     -0.11      0.00
    2    0   19      0.01      0.00
    2    0   20      0.07      0.00
    2    0   21      0.00      0.00
   -2   -1   23      0.08      0.00
   -2   -1   22      0.49      0.00
   -2   -1   21     -0.01      0.00
   -2   -1   20     -0.39      0.00
   -2   -1   19      0.64      0.00
   -2   -1   18     -0.49      0.00
   -2   -1   17      0.18      0.00
   -2   -1   16     -0.12      0.00
   -2   -1   15     -0.50      0.00
   -2   -1   14      1.13      0.00
   -2   -1   13     -1.37      0.00
   -2   -1   12      1.32      0.00
   -2   -1   11     -0.40      0.00
   -2   -1   10     -0.88      0.00
   -2   -1    9      2.35      0.00
   -2   -1    8     -3.06      0.00
   -2   -1    7      3.71      0.00
   -2   -1    6     -2.65      0.00
   -2   -1    5     -0.40      0.00
   -2   -1    4      6.14      0.00
   -2   -1    3    -10.67      0.00
   -2   -1    2      9.67      0.00
   -2   -1    1     -4.84      0.00
    2    1    0     -3.44      0.00
    2    1    1      3.70      0.00
    2    1    2     -3.38      0.00
    2    1    3      7.10      0.00
    2    1    4     -5.06      0.00
    2    1    5      2.71      0.00
    2    1    6      0.14      0.00
    2    1    7     -2.17      0.00
    2    1    8      2.33      0.00
    2    1    9     -2.13      0.00
    2    1   10      1.03      0.00
    2    1   11     -0.60      0.00
    2    1   12     -0.30      0.00
    2    1   13      0.92      0.00
    2    1   14     -0.69      0.00
    2    1   15      0.05      0.00
    2    1   16      0.43      0.00
    2    1   17      0.09      0.00
    2    1   18      0.27      0.00
    2    1   19     -0.09      0.00
    2    1   20     -0.24      0.00
    2    1   21     -0.14      0.00
   -2   -2   23     -0.37      0.00
   -2   -2   22     -0.18      0.00
   -2   -2   21      0.19      0.00
   -2   -2   20     -0.14      0.00
   -2   -2   19     -0.10      0.00
   -2   -2   18      0.43      0.00
   -2   -2   17     -0.47      0.00
   -2   -2   16      0.75      0.00
   -2   -2   15     -0.61      0.00
   -2   -2   14      0.11      0.00
   -2   -2   13      0.34      0.00
   -2   -2   12     -1.34      0.00
   -2   -2   11      1.91      0.00
   -2   -2   10     -2.14      0.00
   -2   -2    9      1.33      0.00
   -2   -2    8     -0.10      0.00
   -2   -2    7     -2.18      0.00
   -2   -2    6      4.87      0.00
   -2   -2    5     -6.05      0.00
   -2   -2    4      4.48      0.00
   -2   -2    3      0.92      0.00
   -2   -2    2     -5.79      0.00
   -2   -2    1      8.74      0.00
    2    2    0     -6.24      0.00
    2    2    1      5.69      0.00
    2    2    2     -5.60      0.00
    2    2    3     -0.88      0.00
    2    2    4      3.32      0.00
    2    2    5     -4.03      0.00
    2    2    6      3.77      0.00
    2    2    7     -1.84      0.00
    2    2    8      0.60      0.00
    2    2    9      0.83      0.00
    2    2   10     -1.02      0.00
    2    2   11      1.39      0.00
    2    2   12     -1.18      0.00
    2    2   13      0.25      0.00
    2    2   14      0.06      0.00
    2    2   15     -0.16      0.00
    2    2   16     -0.10      0.00
    2    2   17     -0.10      0.00
    2    2   18     -0.37      0.00
    2    2   19      0.38      0.00
    2    2   20      0.35      0.00
    2    2   21     -0.11      0.00
   -2   -3   22      0.07      0.00
   -2   -3   21     -0.16      0.00
   -2   -3   20      0.33      0.00
   -2   -3   19     -0.41      0.00
   -2   -3   18      0.05      0.00
   -2   -3   17     -0.04      0.00
   -2   -3   16     -0.18      0.00
   -2   -3   15      0.59      0.00
   -2   -3   14     -0.79      0.00
   -2   -3   13      1.20      0.00
   -2   -3   12     -0.73      0.00
   -2   -3   11     -0.03      0.00
   -2   -3   10      1.16      0.00
   -2   -3    9     -2.18      0.00
   -2   -3    8      2.95      0.00
   -2   -3    7     -2.99      0.00
   -2   -3    6      0.66      0.00
   -2   -3    5      2.23      0.00
   -2   -3    4     -5.70      0.00
   -2   -3    3      6.58      0.00
   -2   -3    2     -5.35      0.00
   -2   -3    1      2.11      0.00
    2    3    0      0.67      0.00
    2    3    1     -4.03      0.00
    2    3    2      8.38      0.00
    2    3    3     -5.83      0.00
    2    3    4      3.40      0.00
    2    3    5     -1.57      0.00
    2    3    6     -1.14      0.00
    2    3    7      1.82      0.00
    2    3    8     -2.17      0.00
    2    3    9      1.37      0.00
    2    3   10     -1.00      0.00
    2    3   11      0.28      0.00
    2    3   12      0.58      0.00
    2    3   13     -0.33      0.00
    2    3   14      0.36      0.00
    2    3   15     -0.22      0.00
    2    3   16      0.04      0.00
    2    3   17      0.24      0.00
    2    3   18      0.19      0.00
    2    3   19     -0.68      0.00
    2    3   20      0.01      0.00
    2    3   21      0.11      0.00
   -2   -4   23      0.02      0.00
   -2   -4   22     -0.06      0.00
   -2   -4   21      0.15      0.00
   -2   -4   20     -0.30      0.00
   -2   -4   19      0.43      0.00
   -2   -4   18     -0.08      0.00
   -2   -4   17      0.20      0.00
   -2   -4   16     -0.60      0.00
   -2   -4   15      0.44      0.00
   -2   -4   14     -0.11      0.00
   -2   -4   13     -0.77      0.00
   -2   -4   12      1.23      0.00
   -2   -4   11     -1.43      0.00
   -2   -4   10      1.52      0.00
   -2   -4    9     -0.91      0.00
   -2   -4    8     -0.33      0.00
   -2   -4    7      2.82      0.00
   -2   -4    6     -3.74      0.00
   -2   -4    5      3.87      0.00
   -2   -4    4     -2.10      0.00
   -2   -4    3     -0.80      0.00
   -2   -4    2      4.00      0.00
   -2   -4    1     -6.97      0.00
    2    4    0      7.21      0.00
    2    4    1     -5.21      0.00
    2    4    2      0.09      0.00
    2    4    3      2.00      0.00
    2    4    4     -3.07      0.00
    2    4    5      4.23      0.00
    2    4    6     -2.71      0.00
    2    4    7      1.57      0.00
    2    4    8     -0.23      0.00
    2    4    9     -0.39      0.00
    2    4   10      1.08      0.00
    2    4   11     -1.37      0.00
    2    4   12      0.58      0.00
    2    4   13     -0.55      0.00
    2    4   14      0.30      0.00
    2    4   15      0.08      0.00
    2    4   16     -0.03      0.00
    2    4   17     -0.36      0.00
    2    4   18      0.25      0.00
    2    4   19      0.46      0.00
    2    4   20     -0.32      0.00
   -2   -5   23      0.20      0.00
   -2   -5   22     -0.22      0.00
   -2   -5   21     -0.02      0.00
   -2   -5   20      0.30      0.00
   -2   -5   19     -0.34      0.00
   -2   -5   18     -0.22      0.00
   -2   -5   17      0.36      0.00
   -2   -5   16      0.42      0.00
   -2   -5   15     -0.83      0.00
   -2   -5   14      0.86      0.00
   -2   -5   13     -0.47      0.00
   -2   -5   12      0.12      0.00
   -2   -5   11      0.05      0.00
   -2   -5   10     -1.11      0.00
   -2   -5    9      2.17      0.00
   -2   -5    8     -2.95      0.00
   -2   -5    7      1.53      0.00
   -2   -5    6      0.18      0.00
   -2   -5    5     -2.07      0.00
   -2   -5    4      4.06      0.00
   -2   -5    3     -4.95      0.00
   -2   -5    2      4.62      0.00
   -2   -5    1     -0.67      0.00
    2    5    0     -2.95      0.00
    2    5    1      5.25      0.00
    2    5    2     -5.10      0.00
    2    5    3      4.14      0.00
    2    5    4     -2.73      0.00
    2    5    5     -0.08      0.00
    2    5    6      1.03      0.00
    2    5    7     -1.74      0.00
    2    5    8      1.90      0.00
    2    5    9     -1.68      0.00
    2    5   10      0.81      0.00
    2    5   11      0.33      0.00
    2    5   12     -0.19      0.00
    2    5   13      0.38      0.00
    2    5   14     -0.68      0.00
    2    5   15      0.32      0.00
    2    5   16     -0.01      0.00
    2    5   17      0.25      0.00
    2    5   18     -0.49      0.00
    2    5   19      0.05      0.00
    2    5   20      0.11      0.00
   -2   -6   23     -0.26      0.00
   -2   -6   22      0.48      0.00
   -2   -6   21     -0.30      0.00
   -2   -6   20     -0.30      0.00
   -2   -6   19      0.41      0.00
   -2   -6   18      0.29      0.00
   -2   -6   17     -0.84      0.00
   -2   -6   16      0.26      0.00
   -2   -6   15      0.37      0.00
   -2   -6   14     -0.46      0.00
   -2   -6   13      0.46      0.00
   -2   -6   12     -0.59      0.00
   -2   -6   11      1.36      0.00
   -2   -6   10     -1.24      0.00
   -2   -6    9      0.23      0.00
   -2   -6    8      1.67      0.00
   -2   -6    7     -2.62      0.00
   -2   -6    6      2.59      0.00
   -2   -6    5     -2.53      0.00
   -2   -6    4      1.19      0.00
   -2   -6    3      0.86      0.00
   -2   -6    2     -4.37      0.00
   -2   -6    1      5.11      0.00
    2    6    0     -4.07      0.00
    2    6    1      2.42      0.00
    2    6    2      0.27      0.00
    2    6    3     -2.20      0.00
    2    6    4      3.36      0.00
    2    6    5     -2.73      0.00
    2    6    6      2.31      0.00
    2    6    7     -1.39      0.00
    2    6    8     -0.05      0.00
    2    6    9      1.20      0.00
    2    6   10     -1.43      0.00
    2    6   11      0.59      0.00
    2    6   12     -0.62      0.00
    2    6   13      0.64      0.00
    2    6   14      0.06      0.00
    2    6   15     -0.31      0.00
    2    6   16     -0.05      0.00
    2    6   17      0.09      0.00
    2    6   18      0.25      0.00
    2    6   19     -0.16      0.00
    2    6   20      0.06      0.00
   -2   -7   22     -0.36      0.00
   -2   -7   21      0.49      0.00
   -2   -7   20      0.28      0.00
   -2   -7   19     -0.60      0.00
   -2   -7   18     -0.09      0.00
   -2   -7   17      0.79      0.00
   -2   -7   16     -0.59      0.00
   -2   -7   15      0.00      0.00
   -2   -7   14     -0.09      0.00
   -2   -7   13      0.29      0.00
   -2   -7   12     -0.31      0.00
   -2   -7   11     -0.55      0.00
   -2   -7   10      1.51      0.00
   -2   -7    9     -1.90      0.00
   -2   -7    8      1.36      0.00
   -2   -7    7     -0.12      0.00
   -2   -7    6     -0.54      0.00
   -2   -7    5      1.83      0.00
   -2   -7    4     -2.93      0.00
   -2   -7    3      3.84      0.00
   -2   -7    2     -2.19      0.00
   -2   -7    1     -0.19      0.00
    2    7    0      2.07      0.00
    2    7    1     -4.13      0.00
    2    7    2      3.64      0.00
    2    7    3     -2.43      0.00
    2    7    4      1.02      0.00
    2    7    5      0.09      0.00
    2    7    6     -1.40      0.00
    2    7    7      2.34      0.00
    2    7    8     -1.86      0.00
    2    7    9      0.67      0.00
    2    7   10      0.25      0.00
    2    7   11     -0.04      0.00
    2    7   12      0.25      0.00
    2    7   13     -0.85      0.00
    2    7   14      0.50      0.00
    2    7   15      0.16      0.00
    2    7   16      0.01      0.00
    2    7   17     -0.29      0.00
    2    7   18      0.01      0.00
    2    7   19      0.02      0.00
   -2   -8   22      0.13      0.00
   -2   -8   21     -0.54      0.00
   -2   -8   20     -0.22      0.00
   -2   -8   19      0.79      0.00
   -2   -8   18     -0.17      0.00
   -2   -8   17     -0.42      0.00
   -2   -8   16      0.46      0.00
   -2   -8   15     -0.01      0.00
   -2   -8   14      0.08      0.00
   -2   -8   13     -0.47      0.00
   -2   -8   12      0.77      0.00
   -2   -8   11     -0.73      0.00
   -2   -8   10      0.18      0.00
   -2   -8    9      0.51      0.00
   -2   -8    8     -1.50      0.00
   -2   -8    7      1.59      0.00
   -2   -8    6     -1.72      0.00
   -2   -8    5      1.46      0.00
   -2   -8    4     -0.66      0.00
   -2   -8    3     -1.40      0.00
   -2   -8    2      3.19      0.00
   -2   -8    1     -3.45      0.00
    2    8    0      2.94      0.00
    2    8    1     -0.52      0.00
    2    8    2     -0.86      0.00
    2    8    3      1.69      0.00
    2    8    4     -2.37      0.00
    2    8    5      2.32      0.00
    2    8    6     -1.49      0.00
    2    8    7     -0.19      0.00
    2    8    8      1.14      0.00
    2    8    9     -1.05      0.00
    2    8   10      0.54      0.00
    2    8   11     -0.64      0.00
    2    8   12      0.59      0.00
    2    8   13      0.19      0.00
    2    8   14     -0.45      0.00
    2    8   15     -0.20      0.00
    2    8   16      0.25      0.00
    2    8   17      0.22      0.00
    2    8   18     -0.02      0.00
    2    8   19     -0.10      0.00
   -2   -9   22     -0.04      0.00
   -2   -9   21      0.60      0.00
   -2   -9   20     -0.07      0.00
   -2   -9   19     -0.76      0.00
   -2   -9   18      0.28      0.00
   -2   -9   17      0.09      0.00
   -2   -9   16     -0.08      0.00
   -2   -9   15     -0.14      0.00
   -2   -9   14      0.16      0.00
   -2   -9   13      0.19      0.00
   -2   -9   12     -0.25      0.00
   -2   -9   11      0.53      0.00
   -2   -9   10     -0.81      0.00
   -2   -9    9      1.20      0.00
   -2   -9    8     -0.54      0.00
   -2   -9    7     -0.23      0.00
   -2   -9    6      0.80      0.00
   -2   -9    5     -1.56      0.00
   -2   -9    4      2.38      0.00
   -2   -9    3     -2.45      0.00
   -2   -9    2      0.87      0.00
   -2   -9    1      0.71      0.00
    2    9    0     -2.26      0.00
    2    9    1      2.32      0.00
    2    9    2     -2.04      0.00
    2    9    3      1.42      0.00
    2    9    4     -0.07      0.00
    2    9    5     -0.93      0.00
    2    9    6      1.77      0.00
    2    9    7     -1.37      0.00
    2    9    8      0.49      0.00
    2    9    9     -0.03      0.00
    2    9   10     -0.09      0.00
    2    9   11      0.36      0.00
    2    9   12     -0.65      0.00
    2    9   13      0.22      0.00
    2    9   14      0.32      0.00
    2    9   15      0.13      0.00
    2    9   16     -0.44      0.00
    2    9   17     -0.11      0.00
    2    9   18      0.10      0.00
   -2  -10   23      0.00      0.00
   -2  -10   21     -0.47      0.00
   -2  -10   20      0.36      0.00
   -2  -10   19      0.46      0.00
   -2  -10   18     -0.10      0.00
   -2  -10   17     -0.09      0.00
   -2  -10   16     -0.22      0.00
   -2  -10   15      0.29      0.00
   -2  -10   14     -0.30      0.00
   -2  -10   13     -0.05      0.00
   -2  -10   12     -0.17      0.00
   -2  -10   11      0.35      0.00
   -2  -10   10     -0.20      0.00
   -2  -10    9     -0.70      0.00
   -2  -10    8      1.25      0.00
   -2  -10    7     -1.01      0.00
   -2  -10    6      0.95      0.00
   -2  -10    5     -0.64      0.00
   -2  -10    4     -0.13      0.00
   -2  -10    3      1.69      0.00
   -2  -10    2     -2.19      0.00
   -2  -10    1      2.01      0.00
    2   10    0     -1.18      0.00
    2   10    1      0.08      0.00
    2   10    2      0.91      0.00
    2   10    3     -1.51      0.00
    2   10    4      1.26      0.00
    2   10    5     -1.11      0.00
    2   10    6      0.08      0.00
    2   10    7      0.71      0.00
    2   10    8     -0.75      0.00
    2   10    9      0.72      0.00
    2   10   10     -0.55      0.00
    2   10   11      0.30      0.00
    2   10   12      0.08      0.00
    2   10   13     -0.13      0.00
    2   10   14     -0.33      0.00
    2   10   15      0.17      0.00
    2   10   16      0.37      0.00
    2   10   17      0.00      0.00
    2   10   18     -0.24      0.00
   -2  -11   20     -0.29      0.00
   -2  -11   18     -0.11      0.00
   -2  -11   17      0.38      0.00
   -2  -11   16      0.19      0.00
   -2  -11   15     -0.30      0.00
   -2  -11   14      0.26      0.00
   -2  -11   13      0.13      0.00
   -2  -11   12     -0.05      0.00
   -2  -11   11     -0.38      0.00
   -2  -11   10      0.78      0.00
   -2  -11    9     -0.70      0.00
   -2  -11    8     -0.03      0.00
   -2  -11    7      0.28      0.00
   -2  -11    6     -0.70      0.00
   -2  -11    5      1.17      0.00
   -2  -11    4     -1.68      0.00
   -2  -11    3      1.01      0.00
   -2  -11    2     -0.11      0.00
   -2  -11    1     -0.70      0.00
    2   11    0      1.61      0.00
    2   11    1     -1.45      0.00
    2   11    2      0.84      0.00
    2   11    3     -0.29      0.00
    2   11    4     -0.01      0.00
    2   11    5      0.93      0.00
    2   11    6     -1.11      0.00
    2   11    7      0.52      0.00
    2   11    8     -0.22      0.00
    2   11    9     -0.20      0.00
    2   11   10      0.35      0.00
    2   11   11     -0.37      0.00
    2   11   12      0.33      0.00
    2   11   13     -0.08      0.00
    2   11   14      0.23      0.00
    2   11   15     -0.35      0.00
    2   11   16     -0.14      0.00
    2   11   17      0.16      0.00
   -2  -12   19      0.31      0.00
   -2  -12   18      0.06      0.00
   -2  -12   17     -0.52      0.00
   -2  -12   16     -0.04      0.00
   -2  -12   15      0.26      0.00
   -2  -12   14     -0.11      0.00
   -2  -12   13     -0.23      0.00
   -2  -12   12      0.37      0.00
   -2  -12   11     -0.21      0.00
   -2  -12   10     -0.01      0.00
   -2  -12    9      0.63      0.00
   -2  -12    8     -0.74      0.00
   -2  -12    7      0.79      0.00
   -2  -12    6     -0.65      0.00
   -2  -12    5      0.35      0.00
   -2  -12    4      0.60      0.00
   -2  -12    3     -1.22      0.00
   -2  -12    2      1.38      0.00
   -2  -12    1     -1.40      0.00
    2   12    0      0.24      0.00
    2   12    1      0.28      0.00
    2   12    2     -0.44      0.00
    2   12    3      0.77      0.00
    2   12    4     -1.04      0.00
    2   12    5      0.45      0.00
    2   12    6      0.38      0.00
    2   12    7     -0.51      0.00
    2   12    8      0.73      0.00
    2   12    9     -0.57      0.00
    2   12   10      0.42      0.00
    2   12   11     -0.33      0.00
    2   12   12     -0.12      0.00
    2   12   13      0.12      0.00
    2   12   14      0.02      0.00
    2   12   15      0.19      0.00
    2   12   16     -0.06      0.00
    2   12   17     -0.15      0.00
   -2  -13   19     -0.27      0.00
   -2  -13   18      0.05      0.00
   -2  -13   17      0.42      0.00
   -2  -13   16      0.02      0.00
   -2  -13   15     -0.40      0.00
   -2  -13   14      0.19      0.00
   -2  -13   13      0.14      0.00
   -2  -13   12     -0.29      0.00
   -2  -13   11      0.32      0.00
   -2  -13   10     -0.71      0.00
   -2  -13    9      0.47      0.00
   -2  -13    8     -0.01      0.00
   -2  -13    7     -0.40      0.00
   -2  -13    6      0.72      0.00
   -2  -13    5     -1.17      0.00
   -2  -13    4      1.05      0.00
   -2  -13    3     -0.52      0.00
   -2  -13    2      0.00      0.00
   -2  -13    1      1.06      0.00
    2   13    0     -0.87      0.00
    2   13    1      0.80      0.00
    2   13    2     -0.77      0.00
    2   13    3      0.11      0.00
    2   13    4      0.42      0.00
    2   13    5     -0.82      0.00
    2   13    6      0.61      0.00
    2   13    7     -0.48      0.00
    2   13    8      0.09      0.00
    2   13    9      0.23      0.00
    2   13   10     -0.43      0.00
    2   13   11      0.84      0.00
    2   13   12     -0.42      0.00
    2   13   13      0.00      0.00
    2   13   14     -0.19      0.00
    2   13   15      0.11      0.00
    2   13   16      0.06      0.00
   -2  -14   17     -0.39      0.00
   -2  -14   16      0.10      0.00
   -2  -14   15      0.45      0.00
   -2  -14   14     -0.46      0.00
   -2  -14   13      0.15      0.00
   -2  -14   12     -0.05      0.00
   -2  -14   11      0.18      0.00
   -2  -14   10      0.30      0.00
   -2  -14    9     -0.71      0.00
   -2  -14    8      0.66      0.00
   -2  -14    7     -0.51      0.00
   -2  -14    6      0.40      0.00
   -2  -14    5      0.14      0.00
   -2  -14    4     -0.75      0.00
   -2  -14    3      0.99      0.00
   -2  -14    2     -1.33      0.00
   -2  -14    1      0.52      0.00
    2   14    0     -0.21      0.00
    2   14    1     -0.26      0.00
    2   14    2      0.83      0.00
    2   14    3     -0.41      0.00
    2   14    4      0.62      0.00
    2   14    5     -0.24      0.00
    2   14    6     -0.28      0.00
    2   14    7      0.62      0.00
    2   14    8     -0.83      0.00
    2   14    9      0.67      0.00
    2   14   10     -0.56      0.00
    2   14   11     -0.21      0.00
    2   14   12      0.44      0.00
    2   14   13     -0.02      0.00
    2   14   14      0.13      0.00
    2   14   15     -0.23      0.00
   -2  -15   17      0.38      0.00
   -2  -15   16     -0.31      0.00
   -2  -15   15     -0.09      0.00
   -2  -15   14      0.38      0.00
   -2  -15   13     -0.25      0.00
   -2  -15   12      0.19      0.00
   -2  -15   11     -0.44      0.00
   -2  -15   10      0.35      0.00
   -2  -15    9      0.02      0.00
   -2  -15    8     -0.21      0.00
   -2  -15    7      0.36      0.00
   -2  -15    6     -0.71      0.00
   -2  -15    5      0.81      0.00
   -2  -15    4     -0.50      0.00
   -2  -15    3      0.29      0.00
   -2  -15    2      0.61      0.00
   -2  -15    1     -0.75      0.00
    2   15    0      0.82      0.00
    2   15    1     -0.58      0.00
    2   15    2     -0.13      0.00
    2   15    3     -0.49      0.00
    2   15    4     -0.28      0.00
    2   15    5      0.90      0.00
    2   15    6     -0.57      0.00
    2   15    7      0.45      0.00
    2   15    8      0.09      0.00
    2   15    9     -0.35      0.00
    2   15   10      0.84      0.00
    2   15   11     -0.67      0.00
    2   15   12      0.10      0.00
    2   15   13     -0.18      0.00
    2   15   14      0.06      0.00
    2   15   15      0.09      0.00
   -2  -16   15     -0.22      0.00
   -2  -16   14      0.03      0.00
   -2  -16   13     -0.01      0.00
   -2  -16   12      0.03      0.00
   -2  -16   11      0.17      0.00
   -2  -16   10     -0.31      0.00
   -2  -16    9      0.27      0.00
   -2  -16    8     -0.23      0.00
   -2  -16    7      0.22      0.00
   -2  -16    6      0.02      0.00
   -2  -16    5     -0.38      0.00
   -2  -16    4      0.50      0.00
   -2  -16    3     -0.97      0.00
   -2  -16    2      0.62      0.00
   -2  -16    1     -0.21      0.00
    2   16    0     -0.11      0.00
    2   16    1      0.27      0.00
    2   16    2      0.35      0.00
    2   16    3      0.85      0.00
    2   16    4     -0.83      0.00
    2   16    5     -0.17      0.00
    2   16    6      0.11      0.00
    2   16    7     -0.68      0.00
    2   16    8      0.67      0.00
    2   16    9     -0.70      0.00
    2   16   10      0.30      0.00
    2   16   11      0.39      0.00
    2   16   12     -0.30      0.00
    2   16   13      0.30      0.00
    2   16   14     -0.11      0.00
   -2  -17   13      0.20      0.00
   -2  -17   12     -0.24      0.00
   -2  -17   10     -0.04      0.00
   -2  -17    9     -0.07      0.00
   -2  -17    8      0.08      0.00
   -2  -17    7     -0.12      0.00
   -2  -17    6      0.22      0.00
   -2  -17    5     -0.19      0.00
   -2  -17    4      0.31      0.00
   -2  -17    3      0.21      0.00
   -2  -17    2     -0.55      0.00
   -2  -17    1      0.42      0.00
    2   17    0     -0.29      0.00
    2   17    1      0.14      0.00
    2   17    2     -1.13      0.00
    2   17    3      0.32      0.00
    2   17    4      0.59      0.00
    2   17    5     -0.22      0.00
    2   17    6      0.82      0.00
    2   17    7     -0.39      0.00
    2   17    8      0.07      0.00
    2   17    9      0.34      0.00
    2   17   10     -0.96      0.00
    2   17   11      0.45      0.00
    2   17   12     -0.06      0.00
    2   17   13     -0.18      0.00
   -2  -18    9      0.05      0.00
   -2  -18    8     -0.10      0.00
   -2  -18    7     -0.09      0.00
   -2  -18    6      0.09      0.00
   -2  -18    5      0.00      0.00
   -2  -18    4     -0.41      0.00
   -2  -18    3      0.44      0.00
   -2  -18    2     -0.04      0.00
   -2  -18    1      0.06      0.00
    2   18    0     -0.25      0.00
    2   18    1      0.61      0.00
    2   18    2      0.51      0.00
    2   18    3     -1.03      0.00
    2   18    4      0.53      0.00
    2   18    5     -0.74      0.00
    2   18    6     -0.29      0.00
    2   18    7      0.60      0.00
    2   18    8     -0.73      0.00
    2   18    9      0.96      0.00
    2   18   10      0.11      0.00
    2   18   11     -0.45      0.00
    2   18   12      0.23      0.00
   -2  -19    5      0.13      0.00
   -2  -19    4      0.05      0.00
   -2  -19    3     -0.34      0.00
   -2  -19    1      0.06      0.00
    2   19    0      0.23      0.00
    2   19    1     -1.15      0.00
    2   19    2      1.07      0.00
    2   19    3     -0.12      0.00
    2   19    4     -0.33      0.00
    2   19    5      1.14      0.00
    2   19    6     -0.72      0.00
    2   19    7      0.41      0.00
    2   19    8     -0.19      0.00
    2   19    9     -0.96      0.00
    2   19   10      0.68      0.00
    2   19   11     -0.05      0.00
    2   19   12     -0.07      0.00
   -2  -20    3      0.23      0.00
    2   20    1      0.19      0.00
    2   20    2     -1.19      0.00
    2   20    4     -0.78      0.00
    2   20    5     -0.09      0.00
    2   20    6      0.34      0.00
    2   20    8      1.12      0.00
    2   20    9     -0.14      0.00
    2   21    3     -0.58      0.00
    2   21    4      0.76      0.00
    2   21    5     -0.59      0.00
    2   21    7     -0.28      0.00
   -3   20   11      0.54      0.00
   -3   19   14     -0.32      0.00
   -3   19   13      0.99      0.00
   -3   19   12     -0.37      0.00
   -3   19   10      0.12      0.00
   -3   19    9      0.30      0.00
   -3   19    8     -0.09      0.00
   -3   19    7     -0.79      0.00
   -3   19    6      0.61      0.00
   -3   19    5      0.01      0.00
   -3   18   11     -0.28      0.00
   -3   18    9     -0.51      0.00
   -3   18    8      0.88      0.00
   -3   18    7      0.05      0.00
   -3   18    6     -0.51      0.00
   -3   18    5      0.08      0.00
   -3   18    4     -0.25      0.00
   -3   17   15     -0.59      0.00
   -3   17   14      0.77      0.00
   -3   17   13     -0.35      0.00
   -3   17   12      0.04      0.00
   -3   17   11      0.19      0.00
   -3   17   10     -0.08      0.00
   -3   17    9      0.17      0.00
   -3   17    8     -0.97      0.00
   -3   17    7      0.76      0.00
   -3   17    6     -0.20      0.00
   -3   17    5      0.26      0.00
   -3   17    4      0.18      0.00
   -3   17    3     -0.23      0.00
   -3   16   17     -0.28      0.00
   -3   16   16      0.50      0.00
   -3   16   15     -0.12      0.00
   -3   16   14     -0.22      0.00
   -3   16   13      0.53      0.00
   -3   16   12     -0.76      0.00
   -3   16   11      0.30      0.00
   -3   16   10     -0.07      0.00
   -3   16    9      0.43      0.00
   -3   16    8      0.10      0.00
   -3   16    7     -0.54      0.00
   -3   16    6      0.59      0.00
   -3   16    5     -0.83      0.00
   -3   16    4      0.34      0.00
   -3   16    3      0.03      0.00
   -3   15   17      0.04      0.00
   -3   15   16     -0.37      0.00
   -3   15   15      0.47      0.00
   -3   15   14     -0.54      0.00
   -3   15   13      0.13      0.00
   -3   15   12      0.73      0.00
   -3   15   11     -0.55      0.00
   -3   15   10     -0.03      0.00
   -3   15    9     -0.47      0.00
   -3   15    8      0.70      0.00
   -3   15    7     -0.50      0.00
   -3   15    6      0.08      0.00
   -3   15    5      0.64      0.00
   -3   15    4     -0.66      0.00
   -3   15    3      0.52      0.00
   -3   15    2     -0.40      0.00
   -3   14   18     -0.17      0.00
   -3   14   17      0.25      0.00
   -3   14   16      0.03      0.00
   -3   14   15     -0.33      0.00
   -3   14   14      0.75      0.00
   -3   14   13     -0.75      0.00
   -3   14   12     -0.18      0.00
   -3   14   11      0.38      0.00
   -3   14   10      0.38      0.00
   -3   14    9     -0.20      0.00
   -3   14    8     -0.39      0.00
   -3   14    7      0.86      0.00
   -3   14    6     -0.93      0.00
   -3   14    5      0.39      0.00
   -3   14    4     -0.13      0.00
   -3   14    3     -0.33      0.00
   -3   14    2      0.69      0.00
   -3   13   18      0.15      0.00
   -3   13   17     -0.51      0.00
   -3   13   16      0.36      0.00
   -3   13   15     -0.06      0.00
   -3   13   14     -0.34      0.00
   -3   13   13      0.65      0.00
   -3   13   12     -0.05      0.00
   -3   13   11     -0.27      0.00
   -3   13   10     -0.51      0.00
   -3   13    9      0.78      0.00
   -3   13    8     -0.53      0.00
   -3   13    7      0.07      0.00
   -3   13    6      0.49      0.00
   -3   13    5     -0.66      0.00
   -3   13    4      1.05      0.00
   -3   13    3     -0.71      0.00
   -3   13    2      0.14      0.00
    3  -13   14     -0.68      0.00
   -3   12   19     -0.35      0.00
   -3   12   18      0.16      0.00
   -3   12   17      0.41      0.00
   -3   12   16     -0.50      0.00
   -3   12   15      0.27      0.00
   -3   12   14     -0.08      0.00
   -3   12   13     -0.11      0.00
   -3   12   12     -0.31      0.00
   -3   12   11      0.65      0.00
   -3   12   10      0.02      0.00
   -3   12    9     -0.49      0.00
   -3   12    8      0.61      0.00
   -3   12    7     -0.89      0.00
   -3   12    6      0.78      0.00
   -3   12    5     -0.56      0.00
   -3   12    4     -0.39      0.00
   -3   12    3      0.73      0.00
   -3   12    2     -0.73      0.00
    3  -12   12     -0.89      0.00
    3  -12   13      0.08      0.00
    3  -12   14      0.53      0.00
   -3   11   19      0.21      0.00
   -3   11   18     -0.35      0.00
   -3   11   17     -0.08      0.00
   -3   11   16      0.21      0.00
   -3   11   15      0.01      0.00
   -3   11   14     -0.09      0.00
   -3   11   13      0.11      0.00
   -3   11   12      0.39      0.00
   -3   11   11     -0.95      0.00
   -3   11   10      0.65      0.00
   -3   11    9     -0.33      0.00
   -3   11    8      0.51      0.00
   -3   11    7      0.11      0.00
   -3   11    6     -0.82      0.00
   -3   11    5      1.33      0.00
   -3   11    4     -0.91      0.00
   -3   11    3      0.63      0.00
   -3   11    2     -0.47      0.00
   -3   11    1     -0.39      0.00
    3  -11   10     -0.37      0.00
    3  -11   11     -0.47      0.00
    3  -11   12      1.03      0.00
    3  -11   13     -0.51      0.00
    3  -11   14     -0.06      0.00
    3  -11   15      0.08      0.00
   -3   10   20     -0.10      0.00
   -3   10   19      0.05      0.00
   -3   10   18      0.07      0.00
   -3   10   17      0.13      0.00
   -3   10   16     -0.05      0.00
   -3   10   15     -0.30      0.00
   -3   10   14      0.44      0.00
   -3   10   13     -0.64      0.00
   -3   10   12      0.39      0.00
   -3   10   11      0.21      0.00
   -3   10   10     -0.34      0.00
   -3   10    9      0.25      0.00
   -3   10    8     -1.15      0.00
   -3   10    7      1.31      0.00
   -3   10    6     -0.67      0.00
   -3   10    5     -0.04      0.00
   -3   10    4      0.33      0.00
   -3   10    3     -0.76      0.00
   -3   10    2      1.65      0.00
   -3   10    1     -1.26      0.00
    3  -10    8      0.40      0.00
    3  -10    9     -1.00      0.00
    3  -10   10      1.20      0.00
    3  -10   11     -0.50      0.00
    3  -10   12     -0.38      0.00
    3  -10   13      0.23      0.00
    3  -10   14     -0.02      0.00
    3  -10   15      0.31      0.00
    3  -10   16     -0.17      0.00
   -3    9   20     -0.33      0.00
   -3    9   19      0.20      0.00
   -3    9   18      0.05      0.00
   -3    9   17     -0.48      0.00
   -3    9   16      0.39      0.00
   -3    9   15      0.04      0.00
   -3    9   14     -0.05      0.00
   -3    9   13      0.37      0.00
   -3    9   12     -0.72      0.00
   -3    9   11      0.74      0.00
   -3    9   10     -0.69      0.00
   -3    9    9      1.10      0.00
   -3    9    8     -0.18      0.00
   -3    9    7     -0.95      0.00
   -3    9    6      1.11      0.00
   -3    9    5     -1.31      0.00
   -3    9    4      1.55      0.00
   -3    9    3     -1.52      0.00
   -3    9    2     -0.01      0.00
   -3    9    1      1.23      0.00
    3   -9    7     -0.98      0.00
    3   -9    8      0.64      0.00
    3   -9    9      0.34      0.00
    3   -9   10     -1.00      0.00
    3   -9   11      0.87      0.00
    3   -9   12     -0.22      0.00
    3   -9   13      0.38      0.00
    3   -9   14     -0.41      0.00
    3   -9   15     -0.37      0.00
    3   -9   16      0.43      0.00
    3   -9   17     -0.34      0.00
    3   -9   18      0.05      0.00
    3   -9   19      0.28      0.00
    3   -9   20      0.46      0.00
   -3    8   21      0.27      0.00
   -3    8   20      0.32      0.00
   -3    8   19     -0.61      0.00
   -3    8   18      0.40      0.00
   -3    8   17      0.28      0.00
   -3    8   16     -0.50      0.00
   -3    8   15      0.13      0.00
   -3    8   14     -0.50      0.00
   -3    8   13      0.74      0.00
   -3    8   12     -0.45      0.00
   -3    8   11     -0.09      0.00
   -3    8   10      0.40      0.00
   -3    8    9     -1.53      0.00
   -3    8    8      1.88      0.00
   -3    8    7     -1.01      0.00
   -3    8    6      0.84      0.00
   -3    8    5     -0.13      0.00
   -3    8    4     -0.98      0.00
   -3    8    3      2.63      0.00
   -3    8    2     -2.77      0.00
   -3    8    1      1.22      0.00
    3   -8    6     -0.16      0.00
    3   -8    7      1.42      0.00
    3   -8    8     -1.80      0.00
    3   -8    9      1.01      0.00
    3   -8   10     -0.30      0.00
    3   -8   11      0.00      0.00
    3   -8   12     -0.12      0.00
    3   -8   13     -0.48      0.00
    3   -8   14      0.89      0.00
    3   -8   15      0.06      0.00
    3   -8   16     -0.41      0.00
    3   -8   17      0.35      0.00
    3   -8   18     -0.31      0.00
    3   -8   20     -0.78      0.00
   -3    7   21     -0.65      0.00
   -3    7   20      0.31      0.00
   -3    7   19      0.29      0.00
   -3    7   18     -0.60      0.00
   -3    7   17      0.27      0.00
   -3    7   16      0.08      0.00
   -3    7   15      0.41      0.00
   -3    7   14     -0.14      0.00
   -3    7   13     -0.70      0.00
   -3    7   12      1.25      0.00
   -3    7   11     -1.20      0.00
   -3    7   10      1.34      0.00
   -3    7    9     -0.47      0.00
   -3    7    8     -0.96      0.00
   -3    7    7      1.15      0.00
   -3    7    6     -2.05      0.00
   -3    7    5      2.52      0.00
   -3    7    4     -2.45      0.00
   -3    7    3      0.59      0.00
   -3    7    2      1.90      0.00
   -3    7    1     -2.07      0.00
    3   -7    4     -1.01      0.00
    3   -7    5      2.42      0.00
    3   -7    6     -2.35      0.00
    3   -7    7      0.73      0.00
    3   -7    8      0.68      0.00
    3   -7    9     -0.76      0.00
    3   -7   10      0.77      0.00
    3   -7   11     -0.93      0.00
    3   -7   12      1.05      0.00
    3   -7   13     -0.19      0.00
    3   -7   14     -0.83      0.00
    3   -7   15      0.32      0.00
    3   -7   16      0.04      0.00
    3   -7   17      0.07      0.00
    3   -7   18      0.21      0.00
    3   -7   19      0.39      0.00
    3   -7   20      0.34      0.00
    3   -7   21     -1.25      0.00
   -3    6   21      0.22      0.00
   -3    6   20     -0.48      0.00
   -3    6   19      0.32      0.00
   -3    6   18      0.05      0.00
   -3    6   17     -0.25      0.00
   -3    6   16      0.00      0.00
   -3    6   15     -0.61      0.00
   -3    6   14      1.10      0.00
   -3    6   13     -0.75      0.00
   -3    6   12      0.04      0.00
   -3    6   11      0.47      0.00
   -3    6   10     -1.44      0.00
   -3    6    9      2.10      0.00
   -3    6    8     -1.39      0.00
   -3    6    7      1.45      0.00
   -3    6    6     -0.51      0.00
   -3    6    5     -0.92      0.00
   -3    6    4      3.09      0.00
   -3    6    3     -4.03      0.00
   -3    6    2      2.09      0.00
   -3    6    1     -1.10      0.00
   -3    6    0      0.70      0.00
    3   -6    2     -2.28      0.00
    3   -6    3      2.92      0.00
    3   -6    4     -2.30      0.00
    3   -6    5      0.31      0.00
    3   -6    6      1.86      0.00
    3   -6    8      1.16      0.00
    3   -6    9     -1.03      0.00
    3   -6   10      0.68      0.00
    3   -6   11      0.25      0.00
    3   -6   12     -1.12      0.00
    3   -6   13      0.82      0.00
    3   -6   14      0.17      0.00
    3   -6   15     -0.11      0.00
    3   -6   16      0.10      0.00
    3   -6   17     -0.59      0.00
    3   -6   18      0.25      0.00
    3   -6   19     -0.67      0.00
    3   -6   20      0.58      0.00
    3   -6   21      0.65      0.00
    3   -6   22     -0.43      0.00
   -3    5   22     -0.33      0.00
   -3    5   21      0.37      0.00
   -3    5   20     -0.15      0.00
   -3    5   19     -0.14      0.00
   -3    5   18      0.31      0.00
   -3    5   17     -0.09      0.00
   -3    5   16      0.39      0.00
   -3    5   15     -0.30      0.00
   -3    5   14     -0.46      0.00
   -3    5   13      1.02      0.00
   -3    5   12     -1.23      0.00
   -3    5   11      1.35      0.00
   -3    5   10     -0.89      0.00
   -3    5    9     -0.37      0.00
   -3    5    8      0.77      0.00
   -3    5    7     -2.16      0.00
   -3    5    6      3.17      0.00
   -3    5    5     -3.53      0.00
   -3    5    4      1.84      0.00
   -3    5    3      1.31      0.00
   -3    5    2     -1.96      0.00
   -3    5    1      3.09      0.00
   -3    5    0     -3.94      0.00
    3   -5    1      2.89      0.00
    3   -5    2     -1.07      0.00
    3   -5    3     -0.57      0.00
    3   -5    4      2.46      0.00
    3   -5    5     -3.17      0.00
    3   -5    6      1.41      0.00
    3   -5    7     -0.06      0.00
    3   -5    8     -0.25      0.00
    3   -5    9      1.12      0.00
    3   -5   10     -1.75      0.00
    3   -5   11      1.20      0.00
    3   -5   12     -0.04      0.00
    3   -5   13     -0.35      0.00
    3   -5   14      0.11      0.00
    3   -5   15     -0.51      0.00
    3   -5   16      0.51      0.00
    3   -5   17      0.35      0.00
    3   -5   18     -0.44      0.00
    3   -5   19      0.61      0.00
    3   -5   20     -1.03      0.00
    3   -5   21      0.20      0.00
    3   -5   22     -0.16      0.00
   -3    4   22     -0.19      0.00
   -3    4   21     -0.09      0.00
   -3    4   20      0.34      0.00
   -3    4   19     -0.40      0.00
   -3    4   18      0.05      0.00
   -3    4   17     -0.14      0.00
   -3    4   16     -0.13      0.00
   -3    4   15      0.86      0.00
   -3    4   14     -0.91      0.00
   -3    4   13      0.55      0.00
   -3    4   12     -0.02      0.00
   -3    4   11     -0.72      0.00
   -3    4   10      1.63      0.00
   -3    4    9     -1.78      0.00
   -3    4    8      2.31      0.00
   -3    4    7     -1.43      0.00
   -3    4    6     -0.45      0.00
   -3    4    5      3.13      0.00
   -3    4    4     -4.98      0.00
   -3    4    3      3.94      0.00
   -3    4    2     -3.86      0.00
   -3    4    1      1.54      0.00
   -3    4    0      1.77      0.00
    3   -4    1     -2.98      0.00
    3   -4    2      3.41      0.00
    3   -4    3     -3.47      0.00
    3   -4    4      1.84      0.00
    3   -4    5      1.19      0.00
    3   -4    6     -2.00      0.00
    3   -4    7      1.73      0.00
    3   -4    8     -1.96      0.00
    3   -4    9      1.18      0.00
    3   -4   10      0.26      0.00
    3   -4   11     -0.91      0.00
    3   -4   12      0.61      0.00
    3   -4   13     -0.55      0.00
    3   -4   14      0.58      0.00
    3   -4   15      0.38      0.00
    3   -4   16     -1.01      0.00
    3   -4   17      0.55      0.00
    3   -4   18     -0.05      0.00
    3   -4   19     -0.15      0.00
    3   -4   20      0.58      0.00
    3   -4   21     -0.24      0.00
    3   -4   22      0.35      0.00
   -3    3   22      0.31      0.00
   -3    3   21     -0.47      0.00
   -3    3   20      0.37      0.00
   -3    3   19      0.11      0.00
   -3    3   18     -0.20      0.00
   -3    3   17      0.51      0.00
   -3    3   16     -0.79      0.00
   -3    3   15      0.06      0.00
   -3    3   14      0.60      0.00
   -3    3   13     -1.05      0.00
   -3    3   12      1.37      0.00
   -3    3   11     -1.57      0.00
   -3    3   10      0.98      0.00
   -3    3    9      0.00      0.00
   -3    3    8     -2.05      0.00
   -3    3    7      3.58      0.00
   -3    3    6     -4.03      0.00
   -3    3    5      2.94      0.00
   -3    3    4     -0.08      0.00
   -3    3    3     -1.52      0.00
   -3    3    2      5.21      0.00
   -3    3    1     -6.45      0.00
   -3    3    0      4.31      0.00
    3   -3    1     -2.74      0.00
    3   -3    2      0.29      0.00
    3   -3    3      2.44      0.00
    3   -3    4     -4.05      0.00
    3   -3    5      2.55      0.00
    3   -3    7      0.42      0.00
    3   -3    8      1.06      0.00
    3   -3    9     -1.92      0.00
    3   -3   10      1.47      0.00
    3   -3   11     -0.75      0.00
    3   -3   12      0.49      0.00
    3   -3   13      0.18      0.00
    3   -3   14     -1.06      0.00
    3   -3   15      0.48      0.00
    3   -3   16      0.39      0.00
    3   -3   17     -0.82      0.00
    3   -3   18      0.59      0.00
    3   -3   19     -0.19      0.00
    3   -3   20     -0.01      0.00
    3   -3   21     -0.21      0.00
   -3    2   22      0.22      0.00
   -3    2   21      0.14      0.00
   -3    2   20     -0.78      0.00
   -3    2   19      0.69      0.00
   -3    2   18     -0.39      0.00
   -3    2   17     -0.06      0.00
   -3    2   16      0.87      0.00
   -3    2   15     -0.89      0.00
   -3    2   14      0.76      0.00
   -3    2   13     -0.59      0.00
   -3    2   12      0.07      0.00
   -3    2   11      1.18      0.00
   -3    2   10     -2.37      0.00
   -3    2    9      2.91      0.00
   -3    2    8     -1.94      0.00
   -3    2    7      0.08      0.00
   -3    2    6      2.06      0.00
   -3    2    5     -4.56      0.00
   -3    2    4      5.36      0.00
   -3    2    3     -6.37      0.00
   -3    2    2      2.97      0.00
   -3    2    1      1.71      0.00
   -3    2    0     -3.66      0.00
    3   -2    1      5.91      0.00
    3   -2    2     -5.29      0.00
    3   -2    3      2.96      0.00
    3   -2    4      0.15      0.00
    3   -2    5     -1.61      0.00
    3   -2    6      1.70      0.00
    3   -2    7     -2.61      0.00
    3   -2    8      1.99      0.00
    3   -2    9     -0.49      0.00
    3   -2   10     -0.38      0.00
    3   -2   11      0.74      0.00
    3   -2   12     -1.17      0.00
    3   -2   13      1.00      0.00
    3   -2   14      0.28      0.00
    3   -2   15     -0.62      0.00
    3   -2   16      0.51      0.00
    3   -2   17      0.10      0.00
    3   -2   18     -0.58      0.00
    3   -2   19      0.05      0.00
    3   -2   20      0.05      0.00
    3   -2   21      0.24      0.00
   -3    1   22     -0.45      0.00
   -3    1   21      0.72      0.00
   -3    1   20      0.11      0.00
   -3    1   19     -0.73      0.00
   -3    1   18      0.76      0.00
   -3    1   17     -0.61      0.00
   -3    1   16      0.06      0.00
   -3    1   15      0.11      0.00
   -3    1   14     -0.51      0.00
   -3    1   13      1.33      0.00
   -3    1   12     -1.98      0.00
   -3    1   11      1.65      0.00
   -3    1   10     -0.20      0.00
   -3    1    9     -1.47      0.00
   -3    1    8      2.78      0.00
   -3    1    7     -3.45      0.00
   -3    1    6      3.79      0.00
   -3    1    5     -1.95      0.00
   -3    1    4     -0.67      0.00
   -3    1    3      5.69      0.00
   -3    1    2     -8.20      0.00
   -3    1    1      6.63      0.00
   -3    1    0     -4.88      0.00
    3   -1    1     -0.04      0.00
    3   -1    2      2.88      0.00
    3   -1    3     -3.74      0.00
    3   -1    4      3.44      0.00
    3   -1    5     -2.16      0.00
    3   -1    6      1.75      0.00
    3   -1    7      0.35      0.00
    3   -1    8     -1.96      0.00
    3   -1    9      1.92      0.00
    3   -1   10     -1.51      0.00
    3   -1   11      1.02      0.00
    3   -1   12     -0.15      0.00
    3   -1   13     -0.86      0.00
    3   -1   14      0.50      0.00
    3   -1   15     -0.12      0.00
    3   -1   16     -0.42      0.00
    3   -1   17      0.48      0.00
    3   -1   18      0.38      0.00
    3   -1   19      0.14      0.00
    3   -1   20     -0.35      0.00
    3   -1   21      0.06      0.00
   -3    0   23      0.55      0.00
   -3    0   22     -0.04      0.00
   -3    0   21     -0.92      0.00
   -3    0   20      0.68      0.00
   -3    0   19      0.06      0.00
   -3    0   18     -0.28      0.00
   -3    0   17      0.33      0.00
   -3    0   16     -0.35      0.00
   -3    0   15      0.84      0.00
   -3    0   14     -1.03      0.00
   -3    0   13      0.30      0.00
   -3    0   12      0.91      0.00
   -3    0   11     -2.07      0.00
   -3    0   10      2.23      0.00
   -3    0    9     -2.04      0.00
   -3    0    8      1.18      0.00
   -3    0    7      0.30      0.00
   -3    0    6     -3.27      0.00
   -3    0    5      5.55      0.00
   -3    0    4     -6.69      0.00
   -3    0    3      4.18      0.00
   -3    0    2      0.77      0.00
   -3    0    1     -4.08      0.00
    3    0    0      7.48      0.00
    3    0    1     -5.88      0.00
    3    0    2      3.59      0.00
    3    0    3     -2.17      0.00
    3    0    4     -0.32      0.00
    3    0    5      1.39      0.00
    3    0    6     -3.14      0.00
    3    0    7      2.88      0.00
    3    0    8     -1.02      0.00
    3    0    9      0.05      0.00
    3    0   10      0.65      0.00
    3    0   11     -1.18      0.00
    3    0   12      1.33      0.00
    3    0   13     -0.39      0.00
    3    0   14     -0.12      0.00
    3    0   15      0.37      0.00
    3    0   16     -0.17      0.00
    3    0   17     -0.40      0.00
    3    0   18     -0.43      0.00
    3    0   19      0.02      0.00
    3    0   20      0.42      0.00
    3    0   21     -0.06      0.00
   -3   -1   23     -0.37      0.00
   -3   -1   22      0.48      0.00
   -3   -1   21      0.42      0.00
   -3   -1   20     -0.68      0.00
   -3   -1   19      0.25      0.00
   -3   -1   18     -0.18      0.00
   -3   -1   17      0.40      0.00
   -3   -1   16     -0.50      0.00
   -3   -1   15     -0.22      0.00
   -3   -1   14      1.18      0.00
   -3   -1   13     -1.44      0.00
   -3   -1   12      1.31      0.00
   -3   -1   11     -0.46      0.00
   -3   -1   10     -0.17      0.00
   -3   -1    9      1.45      0.00
   -3   -1    8     -2.83      0.00
   -3   -1    7      3.83      0.00
   -3   -1    6     -2.86      0.00
   -3   -1    5      0.10      0.00
   -3   -1    3     -7.02      0.00
   -3   -1    2      7.06      0.00
   -3   -1    1     -5.60      0.00
    3    1    0      0.92      0.00
    3    1    1      1.57      0.00
    3    1    2     -2.58      0.00
    3    1    3      4.66      0.00
    3    1    4     -3.84      0.00
    3    1    5      3.01      0.00
    3    1    6     -0.53      0.00
    3    1    7     -1.70      0.00
    3    1    8      1.60      0.00
    3    1    9     -1.56      0.00
    3    1   10      1.32      0.00
    3    1   11     -0.69      0.00
    3    1   12     -0.40      0.00
    3    1   13      0.58      0.00
    3    1   14     -0.32      0.00
    3    1   15      0.08      0.00
    3    1   16      0.21      0.00
    3    1   17      0.25      0.00
    3    1   18      0.48      0.00
    3    1   19     -0.30      0.00
    3    1   20     -0.42      0.00
    3    1   21     -0.06      0.00
   -3   -2   23      0.06      0.00
   -3   -2   22     -0.46      0.00
   -3   -2   21     -0.02      0.00
   -3   -2   20      0.29      0.00
   -3   -2   19      0.02      0.00
   -3   -2   18     -0.07      0.00
   -3   -2   17     -0.34      0.00
   -3   -2   16      0.90      0.00
   -3   -2   15     -0.88      0.00
   -3   -2   14      0.22      0.00
   -3   -2   13      0.23      0.00
   -3   -2   12     -1.00      0.00
   -3   -2   11      1.38      0.00
   -3   -2   10     -2.03      0.00
   -3   -2    9      1.94      0.00
   -3   -2    8     -0.66      0.00
   -3   -2    7     -1.52      0.00
   -3   -2    6      3.93      0.00
   -3   -2    5     -4.79      0.00
   -3   -2    4      4.49      0.00
   -3   -2    3     -1.34      0.00
   -3   -2    2     -2.19      0.00
    3    2    0     -5.95      0.00
    3    2    1      5.10      0.00
    3    2    2     -4.48      0.00
    3    2    3      0.92      0.00
    3    2    4      1.19      0.00
    3    2    5     -3.01      0.00
    3    2    6      3.10      0.00
    3    2    7     -1.24      0.00
    3    2    8      0.80      0.00
    3    2    9     -0.14      0.00
    3    2   10     -0.75      0.00
    3    2   11      1.28      0.00
    3    2   12     -0.76      0.00
    3    2   13      0.20      0.00
    3    2   14     -0.17      0.00
    3    2   15     -0.14      0.00
    3    2   16      0.06      0.00
    3    2   17     -0.33      0.00
    3    2   18     -0.33      0.00
    3    2   19      0.50      0.00
    3    2   20      0.46      0.00
   -3   -3   23     -0.13      0.00
   -3   -3   22      0.43      0.00
   -3   -3   21     -0.12      0.00
   -3   -3   20     -0.09      0.00
   -3   -3   19     -0.16      0.00
   -3   -3   18      0.37      0.00
   -3   -3   17     -0.32      0.00
   -3   -3   16     -0.09      0.00
   -3   -3   15      0.63      0.00
   -3   -3   14     -0.76      0.00
   -3   -3   13      1.05      0.00
   -3   -3   12     -0.78      0.00
   -3   -3   11      0.48      0.00
   -3   -3   10      0.46      0.00
   -3   -3    9     -1.95      0.00
   -3   -3    8      2.82      0.00
   -3   -3    7     -3.05      0.00
   -3   -3    6      1.24      0.00
   -3   -3    5      0.78      0.00
   -3   -3    4     -3.85      0.00
   -3   -3    3      5.68      0.00
   -3   -3    2     -5.52      0.00
   -3   -3    1      3.47      0.00
    3    3    0     -0.37      0.00
    3    3    1     -1.98      0.00
    3    3    3     -4.74      0.00
    3    3    4      3.63      0.00
    3    3    5     -1.52      0.00
    3    3    6     -0.58      0.00
    3    3    7      0.51      0.00
    3    3    8     -1.22      0.00
    3    3    9      1.69      0.00
    3    3   10     -1.15      0.00
    3    3   11      0.18      0.00
    3    3   12      0.19      0.00
    3    3   13     -0.09      0.00
    3    3   14      0.48      0.00
    3    3   15     -0.27      0.00
    3    3   16     -0.05      0.00
    3    3   17      0.39      0.00
    3    3   18      0.10      0.00
    3    3   19     -0.63      0.00
    3    3   20     -0.25      0.00
   -3   -4   23      0.17      0.00
   -3   -4   22     -0.50      0.00
   -3   -4   21      0.27      0.00
   -3   -4   20     -0.05      0.00
   -3   -4   19      0.05      0.00
   -3   -4   18     -0.11      0.00
   -3   -4   17      0.39      0.00
   -3   -4   16     -0.69      0.00
   -3   -4   15      0.43      0.00
   -3   -4   14     -0.07      0.00
   -3   -4   13     -0.50      0.00
   -3   -4   12      0.79      0.00
   -3   -4   11     -1.27      0.00
   -3   -4   10      1.87      0.00
   -3   -4    9     -1.21      0.00
   -3   -4    8      0.00      0.00
   -3   -4    7      2.33      0.00
   -3   -4    6     -3.29      0.00
   -3   -4    5      3.77      0.00
   -3   -4    4     -2.88      0.00
   -3   -4    3      0.32      0.00
   -3   -4    2      2.37      0.00
   -3   -4    1     -5.26      0.00
    3    4    0      5.57      0.00
    3    4    1     -4.77      0.00
    3    4    2      2.19      0.00
    3    4    3      0.51      0.00
    3    4    4     -2.21      0.00
    3    4    6     -1.67      0.00
    3    4    7      1.97      0.00
    3    4    8     -1.22      0.00
    3    4    9     -0.29      0.00
    3    4   10      0.96      0.00
    3    4   11     -0.81      0.00
    3    4   12      0.60      0.00
    3    4   13     -0.73      0.00
    3    4   14      0.10      0.00
    3    4   15      0.32      0.00
    3    4   16     -0.10      0.00
    3    4   17     -0.33      0.00
    3    4   18      0.12      0.00
    3    4   19      0.59      0.00
    3    4   20     -0.07      0.00
   -3   -5   23      0.24      0.00
   -3   -5   22      0.28      0.00
   -3   -5   21     -0.27      0.00
   -3   -5   20      0.24      0.00
   -3   -5   19     -0.07      0.00
   -3   -5   18     -0.31      0.00
   -3   -5   17      0.19      0.00
   -3   -5   16      0.52      0.00
   -3   -5   15     -0.80      0.00
   -3   -5   14      0.57      0.00
   -3   -5   13     -0.36      0.00
   -3   -5   12      0.47      0.00
   -3   -5   11     -0.42      0.00
   -3   -5   10     -0.97      0.00
   -3   -5    9      2.11      0.00
   -3   -5    8     -2.76      0.00
   -3   -5    7      1.52      0.00
   -3   -5    6     -0.13      0.00
   -3   -5    5     -1.20      0.00
   -3   -5    4      3.32      0.00
   -3   -5    3     -4.36      0.00
   -3   -5    2      4.63      0.00
   -3   -5    1     -1.84      0.00
    3    5    0     -0.90      0.00
    3    5    1      3.04      0.00
    3    5    2     -4.47      0.00
    3    5    3      3.56      0.00
    3    5    4     -2.07      0.00
    3    5    5      1.01      0.00
    3    5    6     -0.49      0.00
    3    5    7     -1.18      0.00
    3    5    9     -1.39      0.00
    3    5   10      0.60      0.00
    3    5   11     -0.25      0.00
    3    5   12      0.00      0.00
    3    5   13      0.63      0.00
    3    5   14     -0.60      0.00
    3    5   15     -0.01      0.00
    3    5   16      0.14      0.00
    3    5   17      0.23      0.00
    3    5   18     -0.27      0.00
    3    5   19     -0.35      0.00
   -3   -6   22      0.13      0.00
   -3   -6   21     -0.01      0.00
   -3   -6   20     -0.25      0.00
   -3   -6   19      0.21      0.00
   -3   -6   18      0.43      0.00
   -3   -6   17     -0.66      0.00
   -3   -6   16      0.05      0.00
   -3   -6   15      0.54      0.00
   -3   -6   14     -0.25      0.00
   -3   -6   13      0.02      0.00
   -3   -6   12     -0.49      0.00
   -3   -6   11      1.55      0.00
   -3   -6   10     -1.31      0.00
   -3   -6    9      0.16      0.00
   -3   -6    8      1.42      0.00
   -3   -6    7     -2.07      0.00
   -3   -6    6      2.03      0.00
   -3   -6    5     -2.72      0.00
   -3   -6    4      1.85      0.00
   -3   -6    3     -0.05      0.00
   -3   -6    2     -3.16      0.00
   -3   -6    1      4.38      0.00
    3    6    0     -3.97      0.00
    3    6    1      3.10      0.00
    3    6    2     -0.32      0.00
    3    6    3     -1.04      0.00
    3    6    4      1.41      0.00
    3    6    5     -2.24      0.00
    3    6    6      2.79      0.00
    3    6    7     -1.56      0.00
    3    6    8     -0.15      0.00
    3    6    9      0.66      0.00
    3    6   10     -0.70      0.00
    3    6   11      0.80      0.00
    3    6   12     -0.82      0.00
    3    6   13      0.21      0.00
    3    6   14      0.36      0.00
    3    6   15     -0.17      0.00
    3    6   16     -0.16      0.00
    3    6   17     -0.10      0.00
    3    6   18      0.35      0.00
    3    6   19      0.13      0.00
   -3   -7   22     -0.21      0.00
   -3   -7   21      0.18      0.00
   -3   -7   20      0.16      0.00
   -3   -7   19     -0.35      0.00
   -3   -7   18     -0.37      0.00
   -3   -7   17      0.78      0.00
   -3   -7   16     -0.44      0.00
   -3   -7   15     -0.29      0.00
   -3   -7   14      0.06      0.00
   -3   -7   13      0.56      0.00
   -3   -7   12     -0.54      0.00
   -3   -7   11     -0.52      0.00
   -3   -7   10      1.43      0.00
   -3   -7    9     -1.52      0.00
   -3   -7    8      1.06      0.00
   -3   -7    7     -0.33      0.00
   -3   -7    6      0.20      0.00
   -3   -7    5      1.35      0.00
   -3   -7    4     -2.94      0.00
   -3   -7    3      3.83      0.00
   -3   -7    2     -2.54      0.00
   -3   -7    1      0.43      0.00
    3    7    0      1.10      0.00
    3    7    1     -3.15      0.00
    3    7    2      2.73      0.00
    3    7    3     -2.16      0.00
    3    7    4      2.12      0.00
    3    7    5     -0.57      0.00
    3    7    6     -1.35      0.00
    3    7    7      1.84      0.00
    3    7    8     -1.18      0.00
    3    7    9      0.75      0.00
    3    7   10     -0.47      0.00
    3    7   11     -0.02      0.00
    3    7   12      0.52      0.00
    3    7   13     -0.49      0.00
    3    7   14     -0.02      0.00
    3    7   15      0.22      0.00
    3    7   16      0.17      0.00
    3    7   17     -0.10      0.00
    3    7   18     -0.40      0.00
    3    7   19      0.09      0.00
   -3   -8   23     -0.29      0.00
   -3   -8   22      0.10      0.00
   -3   -8   21     -0.10      0.00
   -3   -8   20     -0.20      0.00
   -3   -8   19      0.57      0.00
   -3   -8   18      0.14      0.00
   -3   -8   17     -0.59      0.00
   -3   -8   16      0.53      0.00
   -3   -8   15      0.07      0.00
   -3   -8   14     -0.19      0.00
   -3   -8   13     -0.46      0.00
   -3   -8   12      0.82      0.00
   -3   -8   11     -0.67      0.00
   -3   -8   10      0.07      0.00
   -3   -8    9      0.32      0.00
   -3   -8    8     -0.98      0.00
   -3   -8    7      1.20      0.00
   -3   -8    6     -1.91      0.00
   -3   -8    5      1.85      0.00
   -3   -8    4     -0.65      0.00
   -3   -8    3     -1.13      0.00
   -3   -8    2      2.62      0.00
   -3   -8    1     -2.89      0.00
    3    8    0      2.86      0.00
    3    8    1     -1.07      0.00
    3    8    2      0.05      0.00
    3    8    3      0.68      0.00
    3    8    4     -2.27      0.00
    3    8    5      2.20      0.00
    3    8    6     -1.00      0.00
    3    8    7      0.08      0.00
    3    8    8      0.28      0.00
    3    8    9     -0.59      0.00
    3    8   10      0.81      0.00
    3    8   11     -0.60      0.00
    3    8   12      0.13      0.00
    3    8   13      0.17      0.00
    3    8   14     -0.01      0.00
    3    8   15     -0.33      0.00
    3    8   16     -0.08      0.00
    3    8   17      0.39      0.00
    3    8   18      0.26      0.00
   -3   -9   23      0.22      0.00
   -3   -9   22     -0.15      0.00
   -3   -9   21      0.12      0.00
   -3   -9   20      0.14      0.00
   -3   -9   19     -0.73      0.00
   -3   -9   18      0.16      0.00
   -3   -9   17      0.20      0.00
   -3   -9   16     -0.19      0.00
   -3   -9   15      0.05      0.00
   -3   -9   14      0.26      0.00
   -3   -9   13      0.12      0.00
   -3   -9   12     -0.26      0.00
   -3   -9   11      0.47      0.00
   -3   -9   10     -0.58      0.00
   -3   -9    9      0.93      0.00
   -3   -9    8     -0.63      0.00
   -3   -9    7      0.14      0.00
   -3   -9    6      0.58      0.00
   -3   -9    5     -1.64      0.00
   -3   -9    4      2.11      0.00
   -3   -9    3     -2.19      0.00
   -3   -9    2      1.15      0.00
   -3   -9    1      0.05      0.00
    3    9    0     -1.55      0.00
    3    9    1      1.91      0.00
    3    9    2     -1.84      0.00
    3    9    3      1.69      0.00
    3    9    4     -0.16      0.00
    3    9    5     -0.71      0.00
    3    9    6      0.92      0.00
    3    9    7     -1.00      0.00
    3    9    8      0.83      0.00
    3    9    9     -0.42      0.00
    3    9   10     -0.09      0.00
    3    9   11      0.23      0.00
    3    9   12     -0.09      0.00
    3    9   13     -0.06      0.00
    3    9   14      0.04      0.00
    3    9   15      0.39      0.00
    3    9   16     -0.17      0.00
    3    9   17     -0.60      0.00
    3    9   18      0.19      0.00
   -3  -10   21     -0.21      0.00
   -3  -10   20      0.12      0.00
   -3  -10   19      0.53      0.00
   -3  -10   18     -0.18      0.00
   -3  -10   17     -0.03      0.00
   -3  -10   16     -0.27      0.00
   -3  -10   15      0.09      0.00
   -3  -10   14     -0.29      0.00
   -3  -10   13      0.06      0.00
   -3  -10   12     -0.11      0.00
   -3  -10   11      0.22      0.00
   -3  -10   10     -0.17      0.00
   -3  -10    9     -0.40      0.00
   -3  -10    8      0.97      0.00
   -3  -10    7     -0.98      0.00
   -3  -10    6      1.10      0.00
   -3  -10    5     -0.59      0.00
   -3  -10    4      0.04      0.00
   -3  -10    3      1.16      0.00
   -3  -10    2     -1.93      0.00
   -3  -10    1      1.98      0.00
    3   10    0     -1.28      0.00
    3   10    1      0.31      0.00
    3   10    2      0.36      0.00
    3   10    3     -1.12      0.00
    3   10    4      0.95      0.00
    3   10    5     -0.81      0.00
    3   10    6      0.49      0.00
    3   10    7      0.27      0.00
    3   10    8     -0.63      0.00
    3   10    9      0.64      0.00
    3   10   10     -0.37      0.00
    3   10   11      0.27      0.00
    3   10   12     -0.34      0.00
    3   10   13      0.29      0.00
    3   10   14     -0.25      0.00
    3   10   15     -0.22      0.00
    3   10   16      0.47      0.00
    3   10   17      0.37      0.00
   -3  -11   21      0.05      0.00
   -3  -11   20     -0.19      0.00
   -3  -11   19     -0.26      0.00
   -3  -11   18      0.00      0.00
   -3  -11   17      0.29      0.00
   -3  -11   16      0.30      0.00
   -3  -11   15     -0.12      0.00
   -3  -11   14      0.17      0.00
   -3  -11   13     -0.14      0.00
   -3  -11   12      0.07      0.00
   -3  -11   11     -0.26      0.00
   -3  -11   10      0.53      0.00
   -3  -11    9     -0.68      0.00
   -3  -11    8      0.16      0.00
   -3  -11    7      0.11      0.00
   -3  -11    6     -0.72      0.00
   -3  -11    5      1.05      0.00
   -3  -11    4     -1.49      0.00
   -3  -11    3      1.23      0.00
   -3  -11    2     -0.28      0.00
   -3  -11    1     -0.47      0.00
    3   11    0      1.13      0.00
    3   11    1     -1.01      0.00
    3   11    2      0.88      0.00
    3   11    3     -0.51      0.00
    3   11    4      0.13      0.00
    3   11    5      0.58      0.00
    3   11    6     -1.03      0.00
    3   11    7      0.54      0.00
    3   11    8     -0.19      0.00
    3   11    9      0.04      0.00
    3   11   10     -0.08      0.00
    3   11   11     -0.03      0.00
    3   11   12      0.40      0.00
    3   11   13     -0.38      0.00
    3   11   14      0.32      0.00
    3   11   15     -0.06      0.00
    3   11   16     -0.51      0.00
    3   11   17      0.15      0.00
   -3  -12   20      0.03      0.00
   -3  -12   19      0.21      0.00
   -3  -12   18     -0.05      0.00
   -3  -12   17     -0.39      0.00
   -3  -12   16     -0.13      0.00
   -3  -12   15     -0.01      0.00
   -3  -12   14      0.24      0.00
   -3  -12   13     -0.01      0.00
   -3  -12   12      0.05      0.00
   -3  -12   11     -0.11      0.00
   -3  -12   10      0.13      0.00
   -3  -12    9      0.55      0.00
   -3  -12    8     -0.78      0.00
   -3  -12    7      0.84      0.00
   -3  -12    6     -0.55      0.00
   -3  -12    5      0.34      0.00
   -3  -12    4      0.27      0.00
   -3  -12    3     -1.10      0.00
   -3  -12    2      1.17      0.00
   -3  -12    1     -1.17      0.00
    3   12    0      0.52      0.00
    3   12    1     -0.23      0.00
    3   12    2     -0.20      0.00
    3   12    3      0.77      0.00
    3   12    4     -0.84      0.00
    3   12    5      0.33      0.00
    3   12    6      0.44      0.00
    3   12    7     -0.40      0.00
    3   12    8      0.34      0.00
    3   12    9     -0.46      0.00
    3   12   10      0.67      0.00
    3   12   11     -0.69      0.00
    3   12   12      0.06      0.00
    3   12   13      0.17      0.00
    3   12   14     -0.07      0.00
    3   12   15      0.14      0.00
    3   12   16      0.26      0.00
   -3  -13   20     -0.04      0.00
   -3  -13   19     -0.09      0.00
   -3  -13   18      0.11      0.00
   -3  -13   17      0.16      0.00
   -3  -13   16      0.26      0.00
   -3  -13   15     -0.23      0.00
   -3  -13   14     -0.40      0.00
   -3  -13   13      0.24      0.00
   -3  -13   12     -0.05      0.00
   -3  -13   11      0.17      0.00
   -3  -13   10     -0.72      0.00
   -3  -13    9      0.45      0.00
   -3  -13    8      0.14      0.00
   -3  -13    7     -0.45      0.00
   -3  -13    6      0.54      0.00
   -3  -13    5     -0.90      0.00
   -3  -13    4      1.18      0.00
   -3  -13    3     -0.63      0.00
   -3  -13    2      0.23      0.00
   -3  -13    1      0.52      0.00
    3   13    0     -0.70      0.00
    3   13    1      0.92      0.00
    3   13    2     -0.79      0.00
    3   13    3     -0.08      0.00
    3   13    4      0.42      0.00
    3   13    5     -0.59      0.00
    3   13    6      0.25      0.00
    3   13    7     -0.23      0.00
    3   13    8      0.34      0.00
    3   13    9     -0.13      0.00
    3   13   10     -0.30      0.00
    3   13   11      0.87      0.00
    3   13   12     -0.44      0.00
    3   13   13     -0.02      0.00
    3   13   14     -0.18      0.00
    3   13   15      0.06      0.00
   -3  -14   19     -0.14      0.00
   -3  -14   18      0.16      0.00
   -3  -14   17     -0.16      0.00
   -3  -14   16     -0.29      0.00
   -3  -14   15      0.62      0.00
   -3  -14   14      0.01      0.00
   -3  -14   13     -0.16      0.00
   -3  -14   12     -0.12      0.00
   -3  -14   11      0.21      0.00
   -3  -14   10      0.40      0.00
   -3  -14    9     -0.77      0.00
   -3  -14    8      0.44      0.00
   -3  -14    7     -0.32      0.00
   -3  -14    6      0.49      0.00
   -3  -14    5     -0.22      0.00
   -3  -14    4     -0.63      0.00
   -3  -14    3      0.92      0.00
   -3  -14    2     -1.22      0.00
   -3  -14    1      0.85      0.00
    3   14    0     -0.40      0.00
    3   14    1     -0.23      0.00
    3   14    2      0.72      0.00
    3   14    3     -0.13      0.00
    3   14    4      0.25      0.00
    3   14    5     -0.01      0.00
    3   14    6     -0.20      0.00
    3   14    7      0.19      0.00
    3   14    8     -0.60      0.00
    3   14    9      0.77      0.00
    3   14   10     -0.68      0.00
    3   14   11     -0.14      0.00
    3   14   12      0.28      0.00
    3   14   13      0.23      0.00
    3   14   14      0.04      0.00
    3   14   15     -0.18      0.00
   -3  -15   18     -0.38      0.00
   -3  -15   16     -0.06      0.00
   -3  -15   15     -0.42      0.00
   -3  -15   14      0.21      0.00
   -3  -15   13      0.01      0.00
   -3  -15   12      0.23      0.00
   -3  -15   10      0.24      0.00
   -3  -15    9      0.25      0.00
   -3  -15    8     -0.14      0.00
   -3  -15    7      0.12      0.00
   -3  -15    6     -0.66      0.00
   -3  -15    5      1.04      0.00
   -3  -15    4     -0.67      0.00
   -3  -15    3      0.41      0.00
   -3  -15    2      0.28      0.00
   -3  -15    1     -0.75      0.00
    3   15    0      0.80      0.00
    3   15    1     -0.43      0.00
    3   15    2     -0.18      0.00
    3   15    3     -0.41      0.00
    3   15    4     -0.14      0.00
    3   15    5      0.47      0.00
    3   15    6     -0.10      0.00
    3   15    7      0.43      0.00
    3   15    8     -0.20      0.00
    3   15    9     -0.20      0.00
    3   15   10      0.73      0.00
    3   15   11     -0.46      0.00
    3   15   12      0.01      0.00
    3   15   13     -0.44      0.00
    3   15   14      0.30      0.00
   -3  -16   15     -0.02      0.00
   -3  -16   13     -0.21      0.00
   -3  -16   12      0.00      0.00
   -3  -16   11      0.25      0.00
   -3  -16   10     -0.35      0.00
   -3  -16    9      0.07      0.00
   -3  -16    8     -0.15      0.00
   -3  -16    7      0.40      0.00
   -3  -16    6     -0.12      0.00
   -3  -16    5     -0.38      0.00
   -3  -16    4      0.54      0.00
   -3  -16    3     -0.95      0.00
   -3  -16    2      0.89      0.00
   -3  -16    1     -0.30      0.00
    3   16    0     -0.09      0.00
    3   16    1      0.07      0.00
    3   16    2      0.41      0.00
    3   16    3      0.52      0.00
    3   16    4     -0.41      0.00
    3   16    5     -0.20      0.00
    3   16    6     -0.35      0.00
    3   16    7     -0.22      0.00
    3   16    8      0.63      0.00
    3   16    9     -0.70      0.00
    3   16   10      0.28      0.00
    3   16   11      0.14      0.00
    3   16   12      0.13      0.00
    3   16   13      0.22      0.00
   -3  -17   14     -0.13      0.00
   -3  -17   13      0.34      0.00
   -3  -17   11      0.13      0.00
   -3  -17   10      0.10      0.00
   -3  -17    9     -0.03      0.00
   -3  -17    8     -0.06      0.00
   -3  -17    7     -0.18      0.00
   -3  -17    6      0.30      0.00
   -3  -17    5     -0.32      0.00
   -3  -17    4      0.45      0.00
   -3  -17    3      0.00      0.00
   -3  -17    2     -0.62      0.00
   -3  -17    1      0.45      0.00
    3   17    0     -0.14      0.00
    3   17    1      0.20      0.00
    3   17    2     -0.98      0.00
    3   17    3      0.36      0.00
    3   17    4      0.09      0.00
    3   17    5      0.29      0.00
    3   17    6      0.76      0.00
    3   17    7     -0.76      0.00
    3   17    8      0.25      0.00
    3   17    9      0.24      0.00
    3   17   10     -0.69      0.00
    3   17   11      0.31      0.00
    3   17   12     -0.35      0.00
   -3  -18   12      0.14      0.00
   -3  -18   11     -0.23      0.00
   -3  -18   10      0.03      0.00
   -3  -18    9      0.16      0.00
   -3  -18    8      0.01      0.00
   -3  -18    7     -0.12      0.00
   -3  -18    6      0.19      0.00
   -3  -18    5      0.00      0.00
   -3  -18    4     -0.54      0.00
   -3  -18    3      0.66      0.00
   -3  -18    2     -0.10      0.00
   -3  -18    1      0.05      0.00
    3   18    0     -0.49      0.00
    3   18    1      0.66      0.00
    3   18    2      0.29      0.00
    3   18    3     -0.70      0.00
    3   18    4      0.65      0.00
    3   18    5     -1.18      0.00
    3   18    6      0.08      0.00
    3   18    7      0.68      0.00
    3   18    8     -0.83      0.00
    3   18    9      0.87      0.00
    3   18   10     -0.01      0.00
    3   18   11     -0.12      0.00
   -3  -19    9     -0.26      0.00
   -3  -19    8      0.36      0.00
   -3  -19    7     -0.17      0.00
   -3  -19    6     -0.20      0.00
   -3  -19    5      0.33      0.00
   -3  -19    4      0.00      0.00
   -3  -19    3     -0.38      0.00
   -3  -19    2      0.05      0.00
   -3  -19    1      0.19      0.00
    3   19    0      0.41      0.00
    3   19    1     -1.23      0.00
    3   19    2      1.13      0.00
    3   19    3     -0.47      0.00
    3   19    4     -0.15      0.00
    3   19    5      1.29      0.00
    3   19    6     -1.09      0.00
    3   19    7      0.46      0.00
    3   19    8     -0.04      0.00
    3   19    9     -0.82      0.00
    3   19   10      0.46      0.00
   -3  -20    4      0.10      0.00
   -3  -20    3      0.12      0.00
    3   20    0      0.59      0.00
    3   20    1      0.25      0.00
    3   20    2     -1.10      0.00
    3   20    3      1.37      0.00
    3   20    4     -1.03      0.00
    3   20    5     -0.06      0.00
    3   20    6      0.63      0.00
    3   20    7     -0.77      0.00
    3   20    8      0.87      0.00
    3   20    9     -0.01      0.00
    3   21    0     -0.89      0.00
    3   21    3     -0.60      0.00
    3   21    4      1.01      0.00
    3   21    5     -0.77      0.00
    3   21    6      0.39      0.00
    3   21    7      0.03      0.00
   -4   19   13      0.88      0.00
   -4   19   10     -0.31      0.00
   -4   19    9      0.39      0.00
   -4   19    7     -0.85      0.00
   -4   18   15      0.90      0.00
   -4   18   14     -0.07      0.00
   -4   18   13     -0.67      0.00
   -4   18   12      0.11      0.00
   -4   18   11      0.03      0.00
   -4   18   10      0.43      0.00
   -4   18    9     -0.91      0.00
   -4   18    8      0.78      0.00
   -4   18    7      0.35      0.00
   -4   18    6     -0.34      0.00
   -4   18    5     -0.06      0.00
   -4   17   16      0.10      0.00
   -4   17   15     -0.75      0.00
   -4   17   14      0.56      0.00
   -4   17   13     -0.02      0.00
   -4   17   12      0.25      0.00
   -4   17   11     -0.41      0.00
   -4   17   10      0.12      0.00
   -4   17    9      0.40      0.00
   -4   17    8     -1.13      0.00
   -4   17    7      0.55      0.00
   -4   17    6     -0.19      0.00
   -4   17    5      0.31      0.00
   -4   17    4      0.26      0.00
   -4   16   16      0.39      0.00
   -4   16   15      0.05      0.00
   -4   16   14     -0.21      0.00
   -4   16   13      0.19      0.00
   -4   16   12     -0.44      0.00
   -4   16   11      0.55      0.00
   -4   16   10     -0.51      0.00
   -4   16    9      0.66      0.00
   -4   16    8      0.13      0.00
   -4   16    7     -0.46      0.00
   -4   16    6      0.57      0.00
   -4   16    5     -0.89      0.00
   -4   16    4      0.17      0.00
   -4   15   17      0.18      0.00
   -4   15   16     -0.47      0.00
   -4   15   15      0.41      0.00
   -4   15   14     -0.39      0.00
   -4   15   13      0.18      0.00
   -4   15   12      0.19      0.00
   -4   15   11     -0.17      0.00
   -4   15   10      0.00      0.00
   -4   15    9     -0.73      0.00
   -4   15    8      0.85      0.00
   -4   15    7     -0.54      0.00
   -4   15    6      0.08      0.00
   -4   15    5      0.82      0.00
   -4   15    4     -0.61      0.00
   -4   15    3      0.18      0.00
   -4   14   17      0.27      0.00
   -4   14   16      0.19      0.00
   -4   14   15     -0.35      0.00
   -4   14   14      0.48      0.00
   -4   14   13     -0.39      0.00
   -4   14   12      0.02      0.00
   -4   14   11     -0.13      0.00
   -4   14   10      0.71      0.00
   -4   14    9     -0.25      0.00
   -4   14    8     -0.46      0.00
   -4   14    7      0.83      0.00
   -4   14    6     -0.92      0.00
   -4   14    5      0.14      0.00
   -4   14    4      0.07      0.00
   -4   14    3     -0.23      0.00
   -4   13   18      0.23      0.00
   -4   13   17     -0.64      0.00
   -4   13   16      0.16      0.00
   -4   13   15      0.15      0.00
   -4   13   14     -0.14      0.00
   -4   13   13      0.10      0.00
   -4   13   12      0.17      0.00
   -4   13   11     -0.07      0.00
   -4   13   10     -0.66      0.00
   -4   13    9      0.84      0.00
   -4   13    8     -0.51      0.00
   -4   13    7      0.18      0.00
   -4   13    6      0.47      0.00
   -4   13    5     -0.49      0.00
   -4   13    4      0.76      0.00
   -4   13    3     -0.61      0.00
   -4   13    2      0.08      0.00
   -4   12   19     -0.34      0.00
   -4   12   18      0.08      0.00
   -4   12   17      0.67      0.00
   -4   12   16     -0.35      0.00
   -4   12   15     -0.19      0.00
   -4   12   14     -0.02      0.00
   -4   12   13      0.30      0.00
   -4   12   12     -0.59      0.00
   -4   12   11      0.53      0.00
   -4   12   10     -0.03      0.00
   -4   12    9     -0.29      0.00
   -4   12    8      0.43      0.00
   -4   12    7     -0.95      0.00
   -4   12    6      0.80      0.00
   -4   12    5     -0.54      0.00
   -4   12    4     -0.22      0.00
   -4   12    3      0.75      0.00
   -4   12    2     -0.53      0.00
    4  -12   13     -0.12      0.00
   -4   11   19      0.23      0.00
   -4   11   18     -0.32      0.00
   -4   11   17     -0.43      0.00
   -4   11   16      0.36      0.00
   -4   11   15      0.44      0.00
   -4   11   14     -0.37      0.00
   -4   11   13     -0.09      0.00
   -4   11   12      0.57      0.00
   -4   11   11     -0.63      0.00
   -4   11   10      0.50      0.00
   -4   11    9     -0.56      0.00
   -4   11    8      0.78      0.00
   -4   11    7      0.08      0.00
   -4   11    6     -0.84      0.00
   -4   11    5      1.16      0.00
   -4   11    4     -0.96      0.00
   -4   11    3      0.43      0.00
   -4   11    2     -0.35      0.00
    4  -11   10     -0.04      0.00
    4  -11   11     -0.58      0.00
    4  -11   12      0.56      0.00
    4  -11   13     -0.12      0.00
    4  -11   14     -0.10      0.00
    4  -11   15     -0.09      0.00
    4  -11   16     -0.09      0.00
   -4   10   20     -0.08      0.00
   -4   10   19      0.01      0.00
   -4   10   18      0.21      0.00
   -4   10   17      0.28      0.00
   -4   10   16     -0.46      0.00
   -4   10   15     -0.38      0.00
   -4   10   14      0.68      0.00
   -4   10   13     -0.55      0.00
   -4   10   12      0.15      0.00
   -4   10   11     -0.09      0.00
   -4   10   10      0.04      0.00
   -4   10    9      0.31      0.00
   -4   10    8     -1.31      0.00
   -4   10    7      1.27      0.00
   -4   10    6     -0.48      0.00
   -4   10    5      0.15      0.00
   -4   10    4      0.30      0.00
   -4   10    3     -0.65      0.00
   -4   10    2      1.27      0.00
   -4   10    1     -1.20      0.00
    4  -10    8      0.44      0.00
    4  -10    9     -1.17      0.00
    4  -10   10      1.00      0.00
    4  -10   11     -0.22      0.00
    4  -10   12     -0.20      0.00
    4  -10   13     -0.09      0.00
    4  -10   14      0.16      0.00
    4  -10   15      0.31      0.00
   -4    9   20     -0.33      0.00
   -4    9   19      0.14      0.00
   -4    9   18     -0.12      0.00
   -4    9   17     -0.20      0.00
   -4    9   16      0.59      0.00
   -4    9   15     -0.12      0.00
   -4    9   14     -0.09      0.00
   -4    9   13      0.33      0.00
   -4    9   12     -0.43      0.00
   -4    9   11      0.77      0.00
   -4    9   10     -1.01      0.00
   -4    9    9      1.04      0.00
   -4    9    8     -0.03      0.00
   -4    9    7     -0.85      0.00
   -4    9    6      0.63      0.00
   -4    9    5     -1.27      0.00
   -4    9    4      1.64      0.00
   -4    9    3     -1.33      0.00
   -4    9    2      0.16      0.00
   -4    9    1      0.93      0.00
    4   -9    6      0.91      0.00
    4   -9    7     -0.94      0.00
    4   -9    8      0.71      0.00
    4   -9    9      0.25      0.00
    4   -9   10     -0.81      0.00
    4   -9   11      0.52      0.00
    4   -9   12     -0.04      0.00
    4   -9   13      0.36      0.00
    4   -9   14     -0.46      0.00
    4   -9   15     -0.33      0.00
    4   -9   17     -0.08      0.00
   -4    8   21      0.08      0.00
   -4    8   20      0.39      0.00
   -4    8   19     -0.45      0.00
   -4    8   18      0.26      0.00
   -4    8   17     -0.09      0.00
   -4    8   16     -0.26      0.00
   -4    8   15      0.16      0.00
   -4    8   14     -0.55      0.00
   -4    8   13      0.72      0.00
   -4    8   12     -0.59      0.00
   -4    8   11     -0.01      0.00
   -4    8   10      0.62      0.00
   -4    8    9     -1.34      0.00
   -4    8    8      1.46      0.00
   -4    8    7     -0.79      0.00
   -4    8    6      1.31      0.00
   -4    8    5     -0.50      0.00
   -4    8    4     -1.12      0.00
   -4    8    3      2.25      0.00
   -4    8    2     -2.35      0.00
   -4    8    1      1.11      0.00
    4   -8    5     -0.77      0.00
    4   -8    6     -0.30      0.00
    4   -8    7      1.06      0.00
    4   -8    8     -1.45      0.00
    4   -8    9      0.95      0.00
    4   -8   10     -0.32      0.00
    4   -8   11      0.11      0.00
    4   -8   12     -0.35      0.00
    4   -8   13     -0.19      0.00
    4   -8   14      0.71      0.00
    4   -8   15      0.10      0.00
    4   -8   16     -0.54      0.00
    4   -8   17      0.21      0.00
    4   -8   18     -0.18      0.00
    4   -8   19      0.00      0.00
    4   -8   20     -0.62      0.00
   -4    7   21     -0.49      0.00
   -4    7   20      0.15      0.00
   -4    7   19      0.26      0.00
   -4    7   18     -0.20      0.00
   -4    7   17      0.24      0.00
   -4    7   16     -0.22      0.00
   -4    7   15      0.58      0.00
   -4    7   14     -0.12      0.00
   -4    7   13     -0.66      0.00
   -4    7   12      1.18      0.00
   -4    7   11     -1.18      0.00
   -4    7   10      0.98      0.00
   -4    7    9     -0.46      0.00
   -4    7    8     -0.46      0.00
   -4    7    7      0.41      0.00
   -4    7    6     -1.91      0.00
   -4    7    5      2.81      0.00
   -4    7    4     -1.99      0.00
   -4    7    3      0.53      0.00
   -4    7    2      1.35      0.00
   -4    7    1     -1.38      0.00
   -4    7    0      1.01      0.00
    4   -7    1     -1.66      0.00
    4   -7    2      2.05      0.00
    4   -7    4     -1.32      0.00
    4   -7    5      2.20      0.00
    4   -7    6     -1.64      0.00
    4   -7    7      0.63      0.00
    4   -7    8      0.27      0.00
    4   -7    9     -0.54      0.00
    4   -7   10      0.62      0.00
    4   -7   11     -0.63      0.00
    4   -7   12      0.91      0.00
    4   -7   13     -0.37      0.00
    4   -7   14     -0.63      0.00
    4   -7   15      0.31      0.00
    4   -7   16      0.26      0.00
    4   -7   17     -0.06      0.00
    4   -7   18      0.11      0.00
    4   -7   19      0.13      0.00
    4   -7   20      0.49      0.00
   -4    6   21      0.15      0.00
   -4    6   20     -0.39      0.00
   -4    6   19      0.12      0.00
   -4    6   18     -0.18      0.00
   -4    6   17      0.10      0.00
   -4    6   16     -0.03      0.00
   -4    6   15     -0.66      0.00
   -4    6   14      1.03      0.00
   -4    6   13     -0.68      0.00
   -4    6   12      0.11      0.00
   -4    6   11      0.45      0.00
   -4    6   10     -0.96      0.00
   -4    6    9      1.58      0.00
   -4    6    7      1.97      0.00
   -4    6    6     -1.07      0.00
   -4    6    5     -1.01      0.00
   -4    6    4      2.33      0.00
   -4    6    3     -3.04      0.00
   -4    6    2      1.65      0.00
   -4    6    1     -1.17      0.00
    4   -6    1      0.15      0.00
    4   -6    3      3.11      0.00
    4   -6    4     -1.88      0.00
    4   -6    5     -0.21      0.00
    4   -6    6      1.33      0.00
    4   -6    7     -1.36      0.00
    4   -6    8      1.10      0.00
    4   -6    9     -1.04      0.00
    4   -6   10      0.59      0.00
    4   -6   11     -0.03      0.00
    4   -6   12     -0.70      0.00
    4   -6   13      0.74      0.00
    4   -6   14      0.14      0.00
    4   -6   15     -0.36      0.00
    4   -6   16      0.13      0.00
    4   -6   17     -0.41      0.00
    4   -6   18      0.36      0.00
    4   -6   19     -0.51      0.00
    4   -6   20      0.20      0.00
   -4    5   22     -0.28      0.00
   -4    5   21      0.50      0.00
   -4    5   20     -0.08      0.00
   -4    5   19      0.05      0.00
   -4    5   18      0.17      0.00
   -4    5   17     -0.23      0.00
   -4    5   16      0.53      0.00
   -4    5   15     -0.44      0.00
   -4    5   14     -0.29      0.00
   -4    5   13      0.79      0.00
   -4    5   12     -1.11      0.00
   -4    5   11      1.09      0.00
   -4    5   10     -1.01      0.00
   -4    5    9      0.21      0.00
   -4    5    8      0.09      0.00
   -4    5    7     -1.75      0.00
   -4    5    6      3.20      0.00
   -4    5    5     -2.89      0.00
   -4    5    4      1.83      0.00
   -4    5    3      0.46      0.00
   -4    5    2     -0.90      0.00
   -4    5    0     -3.52      0.00
    4   -5    1      3.30      0.00
    4   -5    2     -1.33      0.00
    4   -5    3     -0.95      0.00
    4   -5    4      2.50      0.00
    4   -5    5     -2.16      0.00
    4   -5    6      1.04      0.00
    4   -5    7     -0.48      0.00
    4   -5    8     -0.02      0.00
    4   -5    9      0.97      0.00
    4   -5   10     -1.33      0.00
    4   -5   11      1.02      0.00
    4   -5   12     -0.26      0.00
    4   -5   13     -0.31      0.00
    4   -5   14      0.20      0.00
    4   -5   15     -0.18      0.00
    4   -5   16      0.17      0.00
    4   -5   17      0.34      0.00
    4   -5   18     -0.68      0.00
    4   -5   19      0.83      0.00
    4   -5   20     -0.88      0.00
    4   -5   21     -0.11      0.00
   -4    4   22     -0.37      0.00
   -4    4   21     -0.32      0.00
   -4    4   20      0.29      0.00
   -4    4   19     -0.35      0.00
   -4    4   18      0.24      0.00
   -4    4   17     -0.30      0.00
   -4    4   16      0.01      0.00
   -4    4   15      0.88      0.00
   -4    4   14     -0.97      0.00
   -4    4   13      0.71      0.00
   -4    4   12     -0.15      0.00
   -4    4   11     -0.31      0.00
   -4    4   10      1.18      0.00
   -4    4    9     -1.67      0.00
   -4    4    8      2.50      0.00
   -4    4    7     -1.99      0.00
   -4    4    6     -0.11      0.00
   -4    4    5      1.95      0.00
   -4    4    4     -3.60      0.00
   -4    4    3      3.06      0.00
   -4    4    1      2.68      0.00
   -4    4    0      0.37      0.00
    4   -4    1     -2.55      0.00
    4   -4    2      3.29      0.00
    4   -4    3     -2.86      0.00
    4   -4    4      0.94      0.00
    4   -4    5      0.70      0.00
    4   -4    6     -1.09      0.00
    4   -4    7      1.52      0.00
    4   -4    9      0.96      0.00
    4   -4   10      0.08      0.00
    4   -4   11     -0.56      0.00
    4   -4   12      0.56      0.00
    4   -4   13     -0.40      0.00
    4   -4   14      0.19      0.00
    4   -4   15      0.41      0.00
    4   -4   16     -0.75      0.00
    4   -4   17      0.54      0.00
    4   -4   18      0.14      0.00
    4   -4   19     -0.57      0.00
    4   -4   20      0.87      0.00
    4   -4   21     -0.33      0.00
   -4    3   22      0.75      0.00
   -4    3   21     -0.35      0.00
   -4    3   20      0.25      0.00
   -4    3   19     -0.03      0.00
   -4    3   18     -0.15      0.00
   -4    3   17      0.53      0.00
   -4    3   16     -1.01      0.00
   -4    3   15      0.22      0.00
   -4    3   14      0.43      0.00
   -4    3   13     -0.89      0.00
   -4    3   12      1.22      0.00
   -4    3   11     -1.62      0.00
   -4    3   10      1.33      0.00
   -4    3    9     -0.43      0.00
   -4    3    8     -1.38      0.00
   -4    3    7      3.17      0.00
   -4    3    6     -3.47      0.00
   -4    3    5      2.99      0.00
   -4    3    4     -0.92      0.00
   -4    3    3     -0.26      0.00
   -4    3    2      2.53      0.00
   -4    3    1     -4.96      0.00
   -4    3    0      4.20      0.00
    4   -3    1     -2.57      0.00
    4   -3    2      0.40      0.00
    4   -3    3      1.93      0.00
    4   -3    4     -2.63      0.00
    4   -3    5      1.88      0.00
    4   -3    6     -1.38      0.00
    4   -3    7      0.62      0.00
    4   -3    8      0.85      0.00
    4   -3    9     -1.39      0.00
    4   -3   10      1.07      0.00
    4   -3   11     -0.74      0.00
    4   -3   12      0.39      0.00
    4   -3   13      0.22      0.00
    4   -3   14     -0.68      0.00
    4   -3   15      0.12      0.00
    4   -3   16      0.45      0.00
    4   -3   17     -1.00      0.00
    4   -3   18      0.71      0.00
    4   -3   19     -0.02      0.00
    4   -3   20     -0.28      0.00
   -4    2   22     -0.21      0.00
   -4    2   21      0.31      0.00
   -4    2   20     -0.60      0.00
   -4    2   19      0.63      0.00
   -4    2   18     -0.43      0.00
   -4    2   17      0.16      0.00
   -4    2   16      0.78      0.00
   -4    2   15     -0.86      0.00
   -4    2   14      0.83      0.00
   -4    2   13     -0.82      0.00
   -4    2   12      0.31      0.00
   -4    2   11      0.86      0.00
   -4    2   10     -2.11      0.00
   -4    2    9      2.62      0.00
   -4    2    8     -2.23      0.00
   -4    2    7      0.70      0.00
   -4    2    6      0.94      0.00
   -4    2    5     -3.13      0.00
   -4    2    4      3.99      0.00
   -4    2    3     -4.91      0.00
   -4    2    2      3.88      0.00
   -4    2    1     -0.21      0.00
   -4    2    0     -2.07      0.00
    4   -2    1      3.88      0.00
    4   -2    2     -4.09      0.00
    4   -2    3      2.37      0.00
    4   -2    4     -0.43      0.00
    4   -2    5     -0.57      0.00
    4   -2    6      1.41      0.00
    4   -2    7     -2.25      0.00
    4   -2    8      1.61      0.00
    4   -2    9     -0.56      0.00
    4   -2   10      0.02      0.00
    4   -2   11      0.51      0.00
    4   -2   12     -0.93      0.00
    4   -2   13      0.62      0.00
    4   -2   14      0.35      0.00
    4   -2   15     -0.43      0.00
    4   -2   16      0.38      0.00
    4   -2   17      0.33      0.00
    4   -2   18     -0.86      0.00
    4   -2   19      0.17      0.00
    4   -2   20     -0.04      0.00
   -4    1   22     -0.42      0.00
   -4    1   21      0.41      0.00
   -4    1   20      0.11      0.00
   -4    1   19     -0.55      0.00
   -4    1   18      0.46      0.00
   -4    1   17     -0.65      0.00
   -4    1   16      0.30      0.00
   -4    1   15     -0.17      0.00
   -4    1   14     -0.29      0.00
   -4    1   13      1.33      0.00
   -4    1   11      1.60      0.00
   -4    1   10     -0.39      0.00
   -4    1    9     -0.69      0.00
   -4    1    8      1.99      0.00
   -4    1    7     -2.95      0.00
   -4    1    6      3.57      0.00
   -4    1    5     -2.41      0.00
   -4    1    4      0.69      0.00
   -4    1    3      2.45      0.00
   -4    1    2     -5.57      0.00
   -4    1    1      5.37      0.00
   -4    1    0     -4.33      0.00
    4   -1    1      1.48      0.00
    4   -1    2      1.25      0.00
    4   -1    3     -2.33      0.00
    4   -1    4      2.49      0.00
    4   -1    5     -2.22      0.00
    4   -1    6      1.68      0.00
    4   -1    7      0.11      0.00
    4   -1    8     -1.30      0.00
    4   -1    9      1.31      0.00
    4   -1   10     -1.31      0.00
    4   -1   11      0.94      0.00
    4   -1   12     -0.07      0.00
    4   -1   13     -0.62      0.00
    4   -1   14      0.19      0.00
    4   -1   15     -0.02      0.00
    4   -1   16     -0.44      0.00
    4   -1   17      0.41      0.00
    4   -1   18      0.52      0.00
    4   -1   19      0.09      0.00
    4   -1   20     -0.21      0.00
   -4    0   22      0.30      0.00
   -4    0   21     -0.73      0.00
   -4    0   20      0.45      0.00
   -4    0   19      0.10      0.00
   -4    0   18      0.13      0.00
   -4    0   17     -0.04      0.00
   -4    0   16     -0.31      0.00
   -4    0   15      0.99      0.00
   -4    0   14     -1.27      0.00
   -4    0   13      0.29      0.00
   -4    0   12      0.69      0.00
   -4    0   11     -1.51      0.00
   -4    0   10      1.62      0.00
   -4    0    8      1.82      0.00
   -4    0    7     -0.53      0.00
   -4    0    6     -1.90      0.00
   -4    0    5      3.87      0.00
   -4    0    4     -5.19      0.00
   -4    0    3      4.82      0.00
   -4    0    2     -1.37      0.00
   -4    0    1     -1.52      0.00
    4    0    0      4.19      0.00
    4    0    1     -4.56      0.00
    4    0    2      3.28      0.00
    4    0    3     -2.18      0.00
    4    0    4      0.55      0.00
    4    0    5      0.90      0.00
    4    0    6     -2.44      0.00
    4    0    7      2.22      0.00
    4    0    9      0.41      0.00
    4    0   10      0.23      0.00
    4    0   11     -0.94      0.00
    4    0   12      0.95      0.00
    4    0   13     -0.18      0.00
    4    0   14     -0.01      0.00
    4    0   15      0.25      0.00
    4    0   16     -0.13      0.00
    4    0   17     -0.38      0.00
    4    0   18     -0.47      0.00
    4    0   19     -0.06      0.00
    4    0   20      0.50      0.00
   -4   -1   23     -0.35      0.00
   -4   -1   22      0.13      0.00
   -4   -1   21      0.43      0.00
   -4   -1   20     -0.41      0.00
   -4   -1   19     -0.15      0.00
   -4   -1   18     -0.22      0.00
   -4   -1   17      0.84      0.00
   -4   -1   16     -0.77      0.00
   -4   -1   15     -0.12      0.00
   -4   -1   14      1.22      0.00
   -4   -1   13     -1.13      0.00
   -4   -1   12      1.00      0.00
   -4   -1   11     -0.68      0.00
   -4   -1   10      0.59      0.00
   -4   -1    9      0.58      0.00
   -4   -1    8     -2.43      0.00
   -4   -1    7      3.47      0.00
   -4   -1    5      1.46      0.00
   -4   -1    4      1.08      0.00
   -4   -1    3     -4.65      0.00
   -4   -1    2      5.61      0.00
   -4   -1    1     -4.90      0.00
    4    1    0      2.52      0.00
    4    1    1     -0.12      0.00
    4    1    2     -1.20      0.00
    4    1    3      2.88      0.00
    4    1    4     -3.16      0.00
    4    1    5      2.53      0.00
    4    1    6     -0.53      0.00
    4    1    7     -0.98      0.00
    4    1    8      0.81      0.00
    4    1    9     -1.15      0.00
    4    1   10      1.33      0.00
    4    1   11     -0.56      0.00
    4    1   12     -0.33      0.00
    4    1   13      0.32      0.00
    4    1   14     -0.31      0.00
    4    1   15      0.20      0.00
    4    1   16      0.17      0.00
    4    1   17      0.21      0.00
    4    1   18      0.58      0.00
    4    1   19     -0.34      0.00
    4    1   20     -0.50      0.00
   -4   -2   23      0.26      0.00
   -4   -2   22     -0.26      0.00
   -4   -2   21     -0.21      0.00
   -4   -2   20      0.24      0.00
   -4   -2   19      0.44      0.00
   -4   -2   18     -0.47      0.00
   -4   -2   17     -0.45      0.00
   -4   -2   16      1.09      0.00
   -4   -2   15     -0.95      0.00
   -4   -2   14      0.10      0.00
   -4   -2   13     -0.01      0.00
   -4   -2   12     -0.30      0.00
   -4   -2   11      0.85      0.00
   -4   -2   10     -1.98      0.00
   -4   -2    9      2.44      0.00
   -4   -2    8     -1.09      0.00
   -4   -2    7     -0.67      0.00
   -4   -2    6      2.71      0.00
   -4   -2    5     -4.02      0.00
   -4   -2    4      4.70      0.00
   -4   -2    3     -2.49      0.00
   -4   -2    2     -0.36      0.00
   -4   -2    1      2.61      0.00
    4    2    0     -4.06      0.00
    4    2    1      4.11      0.00
    4    2    2     -3.87      0.00
    4    2    3      1.78      0.00
    4    2    4      0.45      0.00
    4    2    5     -2.01      0.00
    4    2    6      1.89      0.00
    4    2    9     -0.64      0.00
    4    2   10     -0.67      0.00
    4    2   11      0.97      0.00
    4    2   12     -0.41      0.00
    4    2   13      0.23      0.00
    4    2   14     -0.09      0.00
    4    2   15     -0.40      0.00
    4    2   16      0.25      0.00
    4    2   17     -0.44      0.00
    4    2   18     -0.31      0.00
    4    2   19      0.56      0.00
    4    2   20      0.39      0.00
   -4   -3   23     -0.31      0.00
   -4   -3   22      0.34      0.00
   -4   -3   21      0.15      0.00
   -4   -3   20     -0.32      0.00
   -4   -3   19     -0.26      0.00
   -4   -3   18      0.83      0.00
   -4   -3   17     -0.47      0.00
   -4   -3   16     -0.16      0.00
   -4   -3   15      0.61      0.00
   -4   -3   14     -0.42      0.00
   -4   -3   13      0.72      0.00
   -4   -3   12     -1.06      0.00
   -4   -3   11      1.05      0.00
   -4   -3   10     -0.06      0.00
   -4   -3    9     -1.82      0.00
   -4   -3    8      2.52      0.00
   -4   -3    7     -2.83      0.00
   -4   -3    6      1.83      0.00
   -4   -3    5     -0.27      0.00
   -4   -3    4     -2.43      0.00
   -4   -3    3      4.16      0.00
   -4   -3    2     -4.25      0.00
   -4   -3    1      3.98      0.00
    4    3    0     -1.94      0.00
    4    3    1     -0.26      0.00
    4    3    2      2.71      0.00
    4    3    3     -3.63      0.00
    4    3    4      2.68      0.00
    4    3    5     -1.14      0.00
    4    3    6      0.31      0.00
    4    3    7     -0.36      0.00
    4    3    8     -0.91      0.00
    4    3    9      1.75      0.00
    4    3   10     -0.80      0.00
    4    3   11      0.02      0.00
    4    3   12     -0.05      0.00
    4    3   13     -0.21      0.00
    4    3   14      0.63      0.00
    4    3   15     -0.11      0.00
    4    3   16     -0.27      0.00
    4    3   17      0.58      0.00
    4    3   18     -0.12      0.00
    4    3   19     -0.47      0.00
   -4   -4   23      0.37      0.00
   -4   -4   22     -0.57      0.00
   -4   -4   21      0.07      0.00
   -4   -4   20      0.27      0.00
   -4   -4   19     -0.16      0.00
   -4   -4   18     -0.34      0.00
   -4   -4   17      0.60      0.00
   -4   -4   16     -0.58      0.00
   -4   -4   15      0.27      0.00
   -4   -4   14     -0.24      0.00
   -4   -4   13      0.12      0.00
   -4   -4   12      0.45      0.00
   -4   -4   11     -1.30      0.00
   -4   -4   10      2.01      0.00
   -4   -4    9     -1.08      0.00
   -4   -4    8      0.12      0.00
   -4   -4    7      1.49      0.00
   -4   -4    6     -2.57      0.00
   -4   -4    5      3.23      0.00
   -4   -4    4     -2.98      0.00
   -4   -4    3      1.40      0.00
   -4   -4    2      0.15      0.00
   -4   -4    1     -3.15      0.00
    4    4    0      4.51      0.00
    4    4    1     -4.22      0.00
    4    4    2      2.58      0.00
    4    4    3     -0.10      0.00
    4    4    5      0.99      0.00
    4    4    7      2.20      0.00
    4    4    8     -1.25      0.00
    4    4    9     -0.47      0.00
    4    4   10      0.56      0.00
    4    4   11     -0.32      0.00
    4    4   12      0.66      0.00
    4    4   13     -0.47      0.00
    4    4   14     -0.46      0.00
    4    4   15      0.59      0.00
    4    4   16     -0.17      0.00
    4    4   17     -0.26      0.00
    4    4   18      0.16      0.00
    4    4   19      0.37      0.00
   -4   -5   22      0.52      0.00
   -4   -5   21     -0.22      0.00
   -4   -5   20      0.01      0.00
   -4   -5   19      0.18      0.00
   -4   -5   18     -0.25      0.00
   -4   -5   17     -0.05      0.00
   -4   -5   16      0.44      0.00
   -4   -5   15     -0.46      0.00
   -4   -5   14      0.28      0.00
   -4   -5   13     -0.63      0.00
   -4   -5   12      0.85      0.00
   -4   -5   11     -0.51      0.00
   -4   -5   10     -0.92      0.00
   -4   -5    9      1.58      0.00
   -4   -5    8     -1.96      0.00
   -4   -5    7      1.51      0.00
   -4   -5    6     -0.66      0.00
   -4   -5    5     -0.16      0.00
   -4   -5    4      2.07      0.00
   -4   -5    3     -3.46      0.00
   -4   -5    2      4.64      0.00
   -4   -5    1     -2.88      0.00
    4    5    0      0.20      0.00
    4    5    1      1.61      0.00
    4    5    2     -3.02      0.00
    4    5    3      2.31      0.00
    4    5    4     -1.77      0.00
    4    5    5      1.85      0.00
    4    5    6     -0.81      0.00
    4    5    7     -1.15      0.00
    4    5    8      1.68      0.00
    4    5    9     -0.70      0.00
    4    5   10      0.51      0.00
    4    5   11     -0.53      0.00
    4    5   12     -0.34      0.00
    4    5   13      0.80      0.00
    4    5   14     -0.14      0.00
    4    5   15     -0.42      0.00
    4    5   16      0.32      0.00
    4    5   17     -0.02      0.00
    4    5   18      0.03      0.00
    4    5   19     -0.42      0.00
   -4   -6   23     -0.49      0.00
   -4   -6   22     -0.19      0.00
   -4   -6   21      0.02      0.00
   -4   -6   20     -0.04      0.00
   -4   -6   19      0.06      0.00
   -4   -6   18      0.41      0.00
   -4   -6   17     -0.38      0.00
   -4   -6   16     -0.06      0.00
   -4   -6   15      0.33      0.00
   -4   -6   14      0.22      0.00
   -4   -6   13     -0.14      0.00
   -4   -6   12     -0.61      0.00
   -4   -6   11      1.34      0.00
   -4   -6   10     -0.92      0.00
   -4   -6    9      0.21      0.00
   -4   -6    8      0.54      0.00
   -4   -6    7     -1.27      0.00
   -4   -6    6      1.61      0.00
   -4   -6    5     -2.74      0.00
   -4   -6    4      2.41      0.00
   -4   -6    3     -0.90      0.00
   -4   -6    2     -2.00      0.00
   -4   -6    1      3.55      0.00
    4    6    0     -3.17      0.00
    4    6    1      2.76      0.00
    4    6    2     -0.94      0.00
    4    6    3      0.20      0.00
    4    6    5     -2.13      0.00
    4    6    7     -0.91      0.00
    4    6    8     -0.07      0.00
    4    6    9     -0.02      0.00
    4    6   10     -0.39      0.00
    4    6   11      0.97      0.00
    4    6   12     -0.29      0.00
    4    6   13     -0.52      0.00
    4    6   14      0.42      0.00
    4    6   15     -0.03      0.00
    4    6   16     -0.03      0.00
    4    6   17     -0.18      0.00
    4    6   18      0.11      0.00
   -4   -7   23      0.54      0.00
   -4   -7   22      0.10      0.00
   -4   -7   21      0.08      0.00
   -4   -7   20     -0.17      0.00
   -4   -7   19     -0.15      0.00
   -4   -7   18     -0.39      0.00
   -4   -7   17      0.55      0.00
   -4   -7   16     -0.21      0.00
   -4   -7   15     -0.33      0.00
   -4   -7   14     -0.18      0.00
   -4   -7   13      0.76      0.00
   -4   -7   12     -0.42      0.00
   -4   -7   11     -0.34      0.00
   -4   -7   10      0.80      0.00
   -4   -7    9     -0.86      0.00
   -4   -7    8      1.06      0.00
   -4   -7    7     -0.75      0.00
   -4   -7    6      0.66      0.00
   -4   -7    5      0.86      0.00
   -4   -7    4     -2.57      0.00
   -4   -7    3      3.35      0.00
   -4   -7    2     -2.52      0.00
   -4   -7    1      0.84      0.00
    4    7    0      0.09      0.00
    4    7    1     -1.72      0.00
    4    7    2      1.93      0.00
    4    7    3     -2.08      0.00
    4    7    4      2.20      0.00
    4    7    5     -0.25      0.00
    4    7    6     -1.03      0.00
    4    7    7      0.80      0.00
    4    7    8     -0.68      0.00
    4    7    9      0.99      0.00
    4    7   10     -0.55      0.00
    4    7   11     -0.46      0.00
    4    7   12      0.39      0.00
    4    7   13      0.20      0.00
    4    7   14     -0.25      0.00
    4    7   15      0.09      0.00
    4    7   16     -0.06      0.00
    4    7   17      0.39      0.00
    4    7   18     -0.56      0.00
   -4   -8   23     -0.41      0.00
   -4   -8   22     -0.21      0.00
   -4   -8   21      0.21      0.00
   -4   -8   20      0.13      0.00
   -4   -8   19      0.25      0.00
   -4   -8   18      0.22      0.00
   -4   -8   17     -0.49      0.00
   -4   -8   16      0.35      0.00
   -4   -8   15      0.17      0.00
   -4   -8   14     -0.18      0.00
   -4   -8   13     -0.54      0.00
   -4   -8   12      0.56      0.00
   -4   -8   11     -0.45      0.00
   -4   -8   10      0.23      0.00
   -4   -8    9     -0.20      0.00
   -4   -8    8     -0.49      0.00
   -4   -8    7      0.96      0.00
   -4   -8    6     -1.72      0.00
   -4   -8    5      1.82      0.00
   -4   -8    4     -0.70      0.00
   -4   -8    3     -0.51      0.00
   -4   -8    2      1.72      0.00
   -4   -8    1     -2.14      0.00
    4    8    0      2.54      0.00
    4    8    1     -1.56      0.00
    4    8    2      0.58      0.00
    4    8    3      0.40      0.00
    4    8    4     -1.85      0.00
    4    8    5      1.25      0.00
    4    8    6     -0.49      0.00
    4    8    7      0.65      0.00
    4    8    8     -0.24      0.00
    4    8    9     -0.62      0.00
    4    8   10      0.76      0.00
    4    8   11      0.00      0.00
    4    8   12     -0.17      0.00
    4    8   13     -0.16      0.00
    4    8   14      0.06      0.00
    4    8   15      0.13      0.00
    4    8   16     -0.31      0.00
    4    8   17      0.07      0.00
   -4   -9   22      0.03      0.00
   -4   -9   21     -0.41      0.00
   -4   -9   20      0.06      0.00
   -4   -9   19     -0.41      0.00
   -4   -9   18      0.07      0.00
   -4   -9   17      0.17      0.00
   -4   -9   16     -0.10      0.00
   -4   -9   15      0.00      0.00
   -4   -9   14      0.30      0.00
   -4   -9   13      0.21      0.00
   -4   -9   12     -0.16      0.00
   -4   -9   11      0.13      0.00
   -4   -9   10     -0.27      0.00
   -4   -9    9      0.77      0.00
   -4   -9    8     -0.74      0.00
   -4   -9    7      0.33      0.00
   -4   -9    6      0.21      0.00
   -4   -9    5     -1.25      0.00
   -4   -9    4      1.58      0.00
   -4   -9    3     -1.92      0.00
   -4   -9    2      1.47      0.00
   -4   -9    1     -0.52      0.00
    4    9    0     -0.82      0.00
    4    9    1      1.50      0.00
    4    9    2     -1.53      0.00
    4    9    3      1.27      0.00
    4    9    4     -0.02      0.00
    4    9    5     -0.15      0.00
    4    9    6      0.17      0.00
    4    9    7     -1.01      0.00
    4    9    8      1.02      0.00
    4    9    9     -0.30      0.00
    4    9   10     -0.10      0.00
    4    9   11     -0.20      0.00
    4    9   12      0.22      0.00
    4    9   13      0.19      0.00
    4    9   14     -0.14      0.00
    4    9   15     -0.06      0.00
    4    9   16      0.45      0.00
    4    9   17     -0.74      0.00
   -4  -10   21      0.26      0.00
   -4  -10   20     -0.08      0.00
   -4  -10   19      0.33      0.00
   -4  -10   18     -0.12      0.00
   -4  -10   17     -0.05      0.00
   -4  -10   16     -0.33      0.00
   -4  -10   15      0.14      0.00
   -4  -10   14     -0.41      0.00
   -4  -10   13      0.03      0.00
   -4  -10   12      0.08      0.00
   -4  -10   11      0.21      0.00
   -4  -10   10     -0.35      0.00
   -4  -10    9     -0.02      0.00
   -4  -10    8      0.67      0.00
   -4  -10    7     -0.76      0.00
   -4  -10    6      1.07      0.00
   -4  -10    5     -0.66      0.00
   -4  -10    4      0.35      0.00
   -4  -10    3      0.57      0.00
   -4  -10    2     -1.57      0.00
   -4  -10    1      1.72      0.00
    4   10    0     -1.28      0.00
    4   10    1      0.48      0.00
    4   10    2      0.09      0.00
    4   10    3     -0.64      0.00
    4   10    4      0.47      0.00
    4   10    5     -0.69      0.00
    4   10    6      0.75      0.00
    4   10    7      0.20      0.00
    4   10    8     -0.56      0.00
    4   10    9      0.32      0.00
    4   10   10     -0.24      0.00
    4   10   11      0.54      0.00
    4   10   12     -0.55      0.00
    4   10   13      0.00      0.00
    4   10   14      0.22      0.00
    4   10   15     -0.26      0.00
    4   10   16      0.06      0.00
   -4  -11   21     -0.10      0.00
   -4  -11   20      0.09      0.00
   -4  -11   19     -0.21      0.00
   -4  -11   18     -0.02      0.00
   -4  -11   17      0.38      0.00
   -4  -11   16      0.22      0.00
   -4  -11   15     -0.09      0.00
   -4  -11   14      0.37      0.00
   -4  -11   13     -0.41      0.00
   -4  -11   12     -0.07      0.00
   -4  -11   11     -0.02      0.00
   -4  -11   10      0.39      0.00
   -4  -11    9     -0.78      0.00
   -4  -11    8      0.30      0.00
   -4  -11    7     -0.06      0.00
   -4  -11    6     -0.50      0.00
   -4  -11    5      0.77      0.00
   -4  -11    4     -1.21      0.00
   -4  -11    3      1.35      0.00
   -4  -11    2     -0.47      0.00
   -4  -11    1     -0.11      0.00
    4   11    0      0.66      0.00
    4   11    1     -0.76      0.00
    4   11    2      0.76      0.00
    4   11    3     -0.47      0.00
    4   11    4      0.14      0.00
    4   11    5      0.46      0.00
    4   11    6     -0.88      0.00
    4   11    7      0.31      0.00
    4   11    8     -0.19      0.00
    4   11    9      0.46      0.00
    4   11   10     -0.34      0.00
    4   11   11     -0.20      0.00
    4   11   12      0.59      0.00
    4   11   13     -0.22      0.00
    4   11   14     -0.11      0.00
    4   11   15      0.29      0.00
    4   11   16     -0.54      0.00
   -4  -12   20     -0.14      0.00
   -4  -12   19      0.27      0.00
   -4  -12   18     -0.14      0.00
   -4  -12   17     -0.47      0.00
   -4  -12   16      0.11      0.00
   -4  -12   15     -0.28      0.00
   -4  -12   14      0.25      0.00
   -4  -12   13      0.41      0.00
   -4  -12   12     -0.08      0.00
   -4  -12   11     -0.25      0.00
   -4  -12   10      0.21      0.00
   -4  -12    9      0.55      0.00
   -4  -12    8     -0.70      0.00
   -4  -12    7      0.64      0.00
   -4  -12    6     -0.51      0.00
   -4  -12    5      0.48      0.00
   -4  -12    4     -0.16      0.00
   -4  -12    3     -0.81      0.00
   -4  -12    2      0.94      0.00
   -4  -12    1     -1.05      0.00
    4   12    0      0.76      0.00
    4   12    1     -0.33      0.00
    4   12    2     -0.22      0.00
    4   12    3      0.63      0.00
    4   12    4     -0.42      0.00
    4   12    5     -0.03      0.00
    4   12    6      0.44      0.00
    4   12    7      0.00      0.00
    4   12    8      0.04      0.00
    4   12    9     -0.68      0.00
    4   12   10      0.93      0.00
    4   12   11     -0.57      0.00
    4   12   12     -0.13      0.00
    4   12   13      0.14      0.00
    4   12   14      0.10      0.00
    4   12   15     -0.09      0.00
   -4  -13   19     -0.18      0.00
   -4  -13   18      0.32      0.00
   -4  -13   17      0.05      0.00
   -4  -13   16      0.10      0.00
   -4  -13   15      0.13      0.00
   -4  -13   14     -0.76      0.00
   -4  -13   13      0.06      0.00
   -4  -13   12      0.11      0.00
   -4  -13   11      0.27      0.00
   -4  -13   10     -0.65      0.00
   -4  -13    9      0.23      0.00
   -4  -13    8      0.22      0.00
   -4  -13    7     -0.16      0.00
   -4  -13    6      0.24      0.00
   -4  -13    5     -0.73      0.00
   -4  -13    4      1.31      0.00
   -4  -13    3     -0.79      0.00
   -4  -13    2      0.41      0.00
   -4  -13    1      0.20      0.00
    4   13    0     -0.70      0.00
    4   13    1      0.80      0.00
    4   13    2     -0.36      0.00
    4   13    3     -0.42      0.00
    4   13    4      0.32      0.00
    4   13    5     -0.07      0.00
    4   13    6     -0.16      0.00
    4   13    7     -0.33      0.00
    4   13    8      0.71      0.00
    4   13    9     -0.18      0.00
    4   13   10     -0.43      0.00
    4   13   11      0.70      0.00
    4   13   12     -0.16      0.00
    4   13   13     -0.09      0.00
    4   13   14     -0.21      0.00
   -4  -14   19     -0.12      0.00
   -4  -14   18     -0.02      0.00
   -4  -14   17      0.07      0.00
   -4  -14   16     -0.37      0.00
   -4  -14   15      0.52      0.00
   -4  -14   14      0.37      0.00
   -4  -14   13     -0.21      0.00
   -4  -14   12     -0.16      0.00
   -4  -14   11     -0.07      0.00
   -4  -14   10      0.47      0.00
   -4  -14    9     -0.52      0.00
   -4  -14    8      0.15      0.00
   -4  -14    7     -0.43      0.00
   -4  -14    6      0.76      0.00
   -4  -14    5     -0.43      0.00
   -4  -14    4     -0.56      0.00
   -4  -14    3      0.85      0.00
   -4  -14    2     -1.07      0.00
   -4  -14    1      0.95      0.00
    4   14    0     -0.27      0.00
    4   14    1     -0.37      0.00
    4   14    2      0.40      0.00
    4   14    3      0.42      0.00
    4   14    4     -0.25      0.00
    4   14    5      0.00      0.00
    4   14    6      0.18      0.00
    4   14    7     -0.07      0.00
    4   14    8     -0.67      0.00
    4   14    9      0.80      0.00
    4   14   10     -0.50      0.00
    4   14   11     -0.09      0.00
    4   14   12     -0.06      0.00
    4   14   13      0.43      0.00
    4   14   14      0.00      0.00
   -4  -15   17      0.24      0.00
   -4  -15   15     -0.54      0.00
   -4  -15   14      0.12      0.00
   -4  -15   13      0.00      0.00
   -4  -15   12      0.34      0.00
   -4  -15   11     -0.18      0.00
   -4  -15   10      0.00      0.00
   -4  -15    9      0.19      0.00
   -4  -15    8      0.12      0.00
   -4  -15    7      0.10      0.00
   -4  -15    6     -0.85      0.00
   -4  -15    5      1.12      0.00
   -4  -15    4     -0.68      0.00
   -4  -15    3      0.44      0.00
   -4  -15    2      0.05      0.00
   -4  -15    1     -0.71      0.00
    4   15    0      0.59      0.00
    4   15    1      0.06      0.00
    4   15    2     -0.41      0.00
    4   15    3     -0.44      0.00
    4   15    4      0.32      0.00
    4   15    5     -0.05      0.00
    4   15    6      0.01      0.00
    4   15    7      0.58      0.00
    4   15    8     -0.26      0.00
    4   15    9     -0.21      0.00
    4   15   10      0.46      0.00
    4   15   11     -0.16      0.00
    4   15   12      0.09      0.00
    4   15   13     -0.65      0.00
   -4  -16   16      0.26      0.00
   -4  -16   15      0.00      0.00
   -4  -16   14      0.04      0.00
   -4  -16   13     -0.12      0.00
   -4  -16   12     -0.27      0.00
   -4  -16   11      0.17      0.00
   -4  -16   10     -0.19      0.00
   -4  -16    9      0.06      0.00
   -4  -16    8     -0.33      0.00
   -4  -16    7      0.51      0.00
   -4  -16    6      0.03      0.00
   -4  -16    5     -0.38      0.00
   -4  -16    4      0.45      0.00
   -4  -16    3     -0.86      0.00
   -4  -16    2      0.95      0.00
   -4  -16    1     -0.19      0.00
    4   16    0     -0.20      0.00
    4   16    1     -0.26      0.00
    4   16    2      0.83      0.00
    4   16    3     -0.01      0.00
    4   16    4     -0.21      0.00
    4   16    5      0.12      0.00
    4   16    6     -0.66      0.00
    4   16    7     -0.14      0.00
    4   16    8      0.60      0.00
    4   16    9     -0.47      0.00
    4   16   10      0.25      0.00
    4   16   11     -0.22      0.00
    4   16   12      0.38      0.00
   -4  -17   15      0.06      0.00
   -4  -17   13      0.35      0.00
   -4  -17   12     -0.05      0.00
   -4  -17   11      0.08      0.00
   -4  -17   10      0.05      0.00
   -4  -17    9     -0.05      0.00
   -4  -17    8      0.07      0.00
   -4  -17    7     -0.39      0.00
   -4  -17    6      0.23      0.00
   -4  -17    5     -0.35      0.00
   -4  -17    4      0.59      0.00
   -4  -17    3     -0.08      0.00
   -4  -17    2     -0.63      0.00
   -4  -17    1      0.28      0.00
    4   17    0      0.31      0.00
    4   17    1      0.03      0.00
    4   17    2     -1.01      0.00
    4   17    3      0.75      0.00
    4   17    4     -0.43      0.00
    4   17    5      0.35      0.00
    4   17    6      0.89      0.00
    4   17    7     -0.73      0.00
    4   17    8      0.11      0.00
    4   17    9      0.06      0.00
    4   17   10     -0.30      0.00
    4   17   11      0.29      0.00
   -4  -18   11     -0.20      0.00
   -4  -18   10      0.06      0.00
   -4  -18    9      0.14      0.00
   -4  -18    8      0.04      0.00
   -4  -18    7      0.01      0.00
   -4  -18    6      0.25      0.00
   -4  -18    5     -0.01      0.00
   -4  -18    4     -0.71      0.00
   -4  -18    3      0.71      0.00
   -4  -18    2      0.01      0.00
   -4  -18    1      0.01      0.00
    4   18    0     -0.88      0.00
    4   18    1      1.03      0.00
    4   18    2      0.02      0.00
    4   18    3     -0.69      0.00
    4   18    4      0.97      0.00
    4   18    5     -1.22      0.00
    4   18    6     -0.10      0.00
    4   18    7      0.68      0.00
    4   18    8     -0.45      0.00
    4   18    9      0.61      0.00
    4   18   10     -0.21      0.00
   -4  -19    9     -0.30      0.00
   -4  -19    8      0.26      0.00
   -4  -19    7     -0.17      0.00
   -4  -19    6     -0.33      0.00
   -4  -19    5      0.52      0.00
   -4  -19    4      0.07      0.00
   -4  -19    3     -0.39      0.00
   -4  -19    2     -0.10      0.00
   -4  -19    1      0.45      0.00
    4   19    0      0.50      0.00
    4   19    1     -1.49      0.00
    4   19    2      1.33      0.00
    4   19    3     -0.54      0.00
    4   19    4     -0.42      0.00
    4   19    5      1.34      0.00
    4   19    6     -0.72      0.00
    4   19    7      0.09      0.00
    4   19    8     -0.12      0.00
    4   19    9     -0.41      0.00
   -4  -20    7      0.44      0.00
   -4  -20    6     -0.12      0.00
   -4  -20    4      0.17      0.00
   -4  -20    1     -1.00      0.00
    4   20    0      0.74      0.00
    4   20    1      0.38      0.00
    4   20    2     -1.24      0.00
    4   20    3      1.42      0.00
    4   20    4     -0.65      0.00
    4   20    5     -0.46      0.00
    4   20    6      0.53      0.00
    4   20    7     -0.28      0.00
   -4  -21    1      0.55      0.00
    4   21    0     -1.10      0.00
    4   21    3     -0.86      0.00
    4   21    4      0.88      0.00
   -5   18   12     -0.24      0.00
   -5   18   10      0.70      0.00
   -5   18    9     -0.72      0.00
   -5   18    6     -0.05      0.00
   -5   17   16      0.57      0.00
   -5   17   15     -0.26      0.00
   -5   17   14      0.15      0.00
   -5   17   12      0.70      0.00
   -5   17   11     -0.53      0.00
   -5   17   10     -0.06      0.00
   -5   17    9      0.37      0.00
   -5   17    8     -0.91      0.00
   -5   17    7      0.42      0.00
   -5   17    6     -0.24      0.00
   -5   16   16     -0.06      0.00
   -5   16   15     -0.24      0.00
   -5   16   14      0.35      0.00
   -5   16   12     -0.62      0.00
   -5   16   11      0.75      0.00
   -5   16   10     -0.58      0.00
   -5   16    9      0.72      0.00
   -5   16    8      0.05      0.00
   -5   16    7     -0.46      0.00
   -5   16    6      0.57      0.00
   -5   16    5     -0.60      0.00
   -5   15   17      0.19      0.00
   -5   15   16     -0.07      0.00
   -5   15   15      0.45      0.00
   -5   15   14     -0.93      0.00
   -5   15   13      0.39      0.00
   -5   15   12     -0.02      0.00
   -5   15   11     -0.01      0.00
   -5   15   10      0.04      0.00
   -5   15    9     -0.83      0.00
   -5   15    8      0.90      0.00
   -5   15    7     -0.33      0.00
   -5   15    6     -0.17      0.00
   -5   15    5      0.78      0.00
   -5   15    4     -0.12      0.00
   -5   14   18     -0.06      0.00
   -5   14   17      0.22      0.00
   -5   14   16     -0.21      0.00
   -5   14   15      0.01      0.00
   -5   14   14      0.63      0.00
   -5   14   13     -0.47      0.00
   -5   14   12      0.23      0.00
   -5   14   11     -0.51      0.00
   -5   14   10      0.82      0.00
   -5   14    9     -0.23      0.00
   -5   14    8     -0.53      0.00
   -5   14    7      0.58      0.00
   -5   14    6     -0.46      0.00
   -5   14    5     -0.22      0.00
   -5   14    4      0.07      0.00
   -5   14    3      0.06      0.00
   -5   13   18      0.09      0.00
   -5   13   17     -0.40      0.00
   -5   13   16      0.25      0.00
   -5   13   15     -0.34      0.00
   -5   13   14      0.16      0.00
   -5   13   13     -0.12      0.00
   -5   13   12      0.25      0.00
   -5   13   11      0.13      0.00
   -5   13   10     -0.64      0.00
   -5   13    9      0.76      0.00
   -5   13    8     -0.36      0.00
   -5   13    7      0.20      0.00
   -5   13    6      0.19      0.00
   -5   13    5     -0.12      0.00
   -5   13    4      0.40      0.00
   -5   13    3     -0.41      0.00
   -5   12   19     -0.08      0.00
   -5   12   18      0.05      0.00
   -5   12   17      0.36      0.00
   -5   12   16      0.03      0.00
   -5   12   15     -0.13      0.00
   -5   12   14     -0.34      0.00
   -5   12   13      0.55      0.00
   -5   12   12     -0.71      0.00
   -5   12   11      0.43      0.00
   -5   12   10     -0.23      0.00
   -5   12    9     -0.04      0.00
   -5   12    8      0.26      0.00
   -5   12    7     -0.74      0.00
   -5   12    6      0.70      0.00
   -5   12    5     -0.47      0.00
   -5   12    4     -0.14      0.00
   -5   12    3      0.59      0.00
   -5   12    2     -0.05      0.00
    5  -12   14     -0.05      0.00
   -5   11   19      0.04      0.00
   -5   11   18     -0.04      0.00
   -5   11   17     -0.43      0.00
   -5   11   16     -0.03      0.00
   -5   11   15      0.81      0.00
   -5   11   14     -0.31      0.00
   -5   11   13     -0.19      0.00
   -5   11   12      0.52      0.00
   -5   11   11     -0.33      0.00
   -5   11   10      0.54      0.00
   -5   11    9     -0.81      0.00
   -5   11    8      0.75      0.00
   -5   11    7      0.03      0.00
   -5   11    6     -0.70      0.00
   -5   11    5      0.85      0.00
   -5   11    4     -0.64      0.00
   -5   11    3      0.07      0.00
   -5   11    2     -0.41      0.00
    5  -11   10      0.18      0.00
    5  -11   11     -0.17      0.00
    5  -11   12     -0.10      0.00
    5  -11   13      0.01      0.00
    5  -11   14      0.08      0.00
   -5   10   20      0.14      0.00
   -5   10   19     -0.05      0.00
   -5   10   18      0.00      0.00
   -5   10   17      0.54      0.00
   -5   10   16     -0.50      0.00
   -5   10   15     -0.67      0.00
   -5   10   14      0.73      0.00
   -5   10   13     -0.49      0.00
   -5   10   12      0.20      0.00
   -5   10   11     -0.42      0.00
   -5   10   10      0.16      0.00
   -5   10    9      0.56      0.00
   -5   10    8     -1.10      0.00
   -5   10    7      0.94      0.00
   -5   10    6     -0.29      0.00
   -5   10    5      0.16      0.00
   -5   10    4      0.17      0.00
   -5   10    3     -0.26      0.00
   -5   10    2      0.77      0.00
   -5   10    1     -1.20      0.00
    5  -10    8      0.43      0.00
    5  -10    9     -0.80      0.00
    5  -10   10      0.50      0.00
    5  -10   11     -0.17      0.00
    5  -10   12      0.23      0.00
    5  -10   13     -0.23      0.00
    5  -10   14      0.05      0.00
   -5    9   20     -0.40      0.00
   -5    9   19      0.32      0.00
   -5    9   18     -0.18      0.00
   -5    9   17     -0.23      0.00
   -5    9   16      0.80      0.00
   -5    9   15     -0.13      0.00
   -5    9   14     -0.07      0.00
   -5    9   13      0.27      0.00
   -5    9   12     -0.43      0.00
   -5    9   11      0.92      0.00
   -5    9   10     -1.07      0.00
   -5    9    9      0.54      0.00
   -5    9    8      0.02      0.00
   -5    9    7     -0.48      0.00
   -5    9    6      0.32      0.00
   -5    9    5     -1.05      0.00
   -5    9    4      1.38      0.00
   -5    9    3     -1.01      0.00
   -5    9    2      0.34      0.00
   -5    9    1      0.65      0.00
   -5    9    0     -1.15      0.00
    5   -9    5     -0.79      0.00
    5   -9    6      0.64      0.00
    5   -9    7     -0.69      0.00
    5   -9    8      0.66      0.00
    5   -9    9     -0.04      0.00
    5   -9   10     -0.30      0.00
    5   -9   11      0.15      0.00
    5   -9   12     -0.07      0.00
    5   -9   13      0.28      0.00
    5   -9   14     -0.21      0.00
    5   -9   15     -0.29      0.00
    5   -9   16      0.18      0.00
    5   -9   17      0.15      0.00
    5   -9   18      0.14      0.00
   -5    8   21      0.13      0.00
   -5    8   20      0.31      0.00
   -5    8   19     -0.48      0.00
   -5    8   18      0.29      0.00
   -5    8   17     -0.32      0.00
   -5    8   16     -0.21      0.00
   -5    8   15      0.23      0.00
   -5    8   14     -0.65      0.00
   -5    8   13      0.74      0.00
   -5    8   12     -0.44      0.00
   -5    8   11     -0.19      0.00
   -5    8   10      0.79      0.00
   -5    8    9     -0.76      0.00
   -5    8    8      0.95      0.00
   -5    8    7     -0.83      0.00
   -5    8    6      1.34      0.00
   -5    8    5     -0.42      0.00
   -5    8    4     -1.20      0.00
   -5    8    3      1.62      0.00
   -5    8    2     -1.70      0.00
   -5    8    1      1.00      0.00
   -5    8    0     -0.45      0.00
    5   -8    1     -0.07      0.00
    5   -8    2      0.59      0.00
    5   -8    3     -1.05      0.00
    5   -8    4      1.29      0.00
    5   -8    5     -0.36      0.00
    5   -8    6     -0.07      0.00
    5   -8    7      0.37      0.00
    5   -8    8     -0.96      0.00
    5   -8    9      0.85      0.00
    5   -8   10     -0.40      0.00
    5   -8   11      0.27      0.00
    5   -8   12     -0.40      0.00
    5   -8   13      0.02      0.00
    5   -8   14      0.28      0.00
    5   -8   15      0.26      0.00
    5   -8   16     -0.48      0.00
    5   -8   17      0.00      0.00
    5   -8   18     -0.19      0.00
   -5    7   21     -0.46      0.00
   -5    7   20      0.22      0.00
   -5    7   19      0.23      0.00
   -5    7   18      0.04      0.00
   -5    7   17      0.27      0.00
   -5    7   16     -0.41      0.00
   -5    7   15      0.59      0.00
   -5    7   14      0.05      0.00
   -5    7   13     -0.77      0.00
   -5    7   12      0.97      0.00
   -5    7   11     -0.87      0.00
   -5    7   10      0.45      0.00
   -5    7    9     -0.58      0.00
   -5    7    8      0.06      0.00
   -5    7    7      0.32      0.00
   -5    7    6     -1.79      0.00
   -5    7    5      2.45      0.00
   -5    7    4     -1.07      0.00
   -5    7    3      0.31      0.00
   -5    7    2      0.60      0.00
   -5    7    1     -0.87      0.00
   -5    7    0      1.09      0.00
    5   -7    1     -1.76      0.00
    5   -7    2      1.43      0.00
    5   -7    3     -0.36      0.00
    5   -7    4     -1.00      0.00
    5   -7    5      1.22      0.00
    5   -7    7      0.86      0.00
    5   -7    8     -0.18      0.00
    5   -7    9     -0.32      0.00
    5   -7   10      0.36      0.00
    5   -7   11     -0.31      0.00
    5   -7   12      0.64      0.00
    5   -7   13     -0.36      0.00
    5   -7   14     -0.33      0.00
    5   -7   15      0.09      0.00
    5   -7   16      0.40      0.00
    5   -7   17      0.01      0.00
    5   -7   18      0.11      0.00
   -5    6   21      0.14      0.00
   -5    6   20     -0.44      0.00
   -5    6   19     -0.06      0.00
   -5    6   18     -0.32      0.00
   -5    6   17      0.36      0.00
   -5    6   16     -0.01      0.00
   -5    6   15     -0.70      0.00
   -5    6   14      0.87      0.00
   -5    6   13     -0.36      0.00
   -5    6   12      0.07      0.00
   -5    6   11      0.36      0.00
   -5    6   10     -0.43      0.00
   -5    6    9      1.18      0.00
   -5    6    8     -1.40      0.00
   -5    6    7      1.76      0.00
   -5    6    6     -0.80      0.00
   -5    6    5     -1.16      0.00
   -5    6    4      1.33      0.00
   -5    6    3     -1.76      0.00
   -5    6    2      1.56      0.00
   -5    6    1     -1.35      0.00
   -5    6    0      1.26      0.00
    5   -6    1      0.57      0.00
    5   -6    2     -1.99      0.00
    5   -6    3      2.13      0.00
    5   -6    4     -1.15      0.00
    5   -6    5      0.01      0.00
    5   -6    6      0.44      0.00
    5   -6    7     -0.94      0.00
    5   -6    8      1.03      0.00
    5   -6    9     -0.80      0.00
    5   -6   10      0.51      0.00
    5   -6   11     -0.36      0.00
    5   -6   12     -0.25      0.00
    5   -6   13      0.46      0.00
    5   -6   14      0.22      0.00
    5   -6   15     -0.43      0.00
    5   -6   16      0.04      0.00
    5   -6   17     -0.43      0.00
    5   -6   18      0.51      0.00
   -5    5   21      0.49      0.00
   -5    5   20      0.16      0.00
   -5    5   19      0.27      0.00
   -5    5   18     -0.08      0.00
   -5    5   17     -0.37      0.00
   -5    5   16      0.62      0.00
   -5    5   15     -0.41      0.00
   -5    5   14     -0.27      0.00
   -5    5   13      0.49      0.00
   -5    5   12     -0.87      0.00
   -5    5   11      0.81      0.00
   -5    5   10     -1.01      0.00
   -5    5    9      0.49      0.00
   -5    5    8      0.10      0.00
   -5    5    7     -1.40      0.00
   -5    5    6      2.53      0.00
   -5    5    5     -1.75      0.00
   -5    5    4      1.54      0.00
   -5    5    3     -0.53      0.00
   -5    5    2     -0.45      0.00
   -5    5    1      1.32      0.00
   -5    5    0     -3.07      0.00
    5   -5    1      2.51      0.00
    5   -5    2     -0.67      0.00
    5   -5    3     -0.80      0.00
    5   -5    4      1.63      0.00
    5   -5    5     -1.30      0.00
    5   -5    6      1.03      0.00
    5   -5    7     -0.64      0.00
    5   -5    8      0.01      0.00
    5   -5    9      0.54      0.00
    5   -5   10     -0.72      0.00
    5   -5   11      0.85      0.00
    5   -5   12     -0.40      0.00
    5   -5   13     -0.24      0.00
    5   -5   14      0.07      0.00
    5   -5   15      0.17      0.00
    5   -5   16      0.04      0.00
    5   -5   17      0.45      0.00
    5   -5   18     -1.18      0.00
    5   -5   19      0.80      0.00
    5   -5   20     -0.27      0.00
   -5    4   22     -0.14      0.00
   -5    4   21     -0.52      0.00
   -5    4   20     -0.07      0.00
   -5    4   19     -0.21      0.00
   -5    4   18      0.56      0.00
   -5    4   17     -0.43      0.00
   -5    4   16      0.02      0.00
   -5    4   15      0.82      0.00
   -5    4   14     -0.80      0.00
   -5    4   13      0.71      0.00
   -5    4   12     -0.20      0.00
   -5    4   11     -0.13      0.00
   -5    4   10      0.87      0.00
   -5    4    9     -1.52      0.00
   -5    4    8      2.03      0.00
   -5    4    7     -1.77      0.00
   -5    4    6      0.04      0.00
   -5    4    5      0.81      0.00
   -5    4    4     -2.14      0.00
   -5    4    3      2.70      0.00
   -5    4    2     -2.66      0.00
   -5    4    1      2.35      0.00
   -5    4    0      0.32      0.00
    5   -4    1     -2.19      0.00
    5   -4    2      2.29      0.00
    5   -4    3     -1.83      0.00
    5   -4    4      0.59      0.00
    5   -4    5      0.07      0.00
    5   -4    6     -0.55      0.00
    5   -4    7      1.16      0.00
    5   -4    8     -1.23      0.00
    5   -4    9      0.76      0.00
    5   -4   10     -0.31      0.00
    5   -4   11     -0.22      0.00
    5   -4   12      0.44      0.00
    5   -4   13     -0.07      0.00
    5   -4   14     -0.10      0.00
    5   -4   15      0.22      0.00
    5   -4   16     -0.64      0.00
    5   -4   17      0.55      0.00
    5   -4   18      0.74      0.00
    5   -4   19     -1.15      0.00
    5   -4   20      0.77      0.00
   -5    3   22      0.71      0.00
   -5    3   21      0.09      0.00
   -5    3   20      0.32      0.00
   -5    3   19     -0.44      0.00
   -5    3   18     -0.13      0.00
   -5    3   17      0.62      0.00
   -5    3   16     -1.07      0.00
   -5    3   15      0.24      0.00
   -5    3   14      0.27      0.00
   -5    3   13     -0.75      0.00
   -5    3   12      1.07      0.00
   -5    3   11     -1.33      0.00
   -5    3   10      1.24      0.00
   -5    3    9     -0.44      0.00
   -5    3    8     -0.79      0.00
   -5    3    7      2.33      0.00
   -5    3    6     -2.53      0.00
   -5    3    5      2.65      0.00
   -5    3    4     -1.64      0.00
   -5    3    3      0.21      0.00
   -5    3    2      1.42      0.00
   -5    3    1     -3.66      0.00
   -5    3    0      3.23      0.00
    5   -3    1     -1.53      0.00
    5   -3    2      0.27      0.00
    5   -3    3      1.07      0.00
    5   -3    4     -1.40      0.00
    5   -3    5      1.42      0.00
    5   -3    6     -1.36      0.00
    5   -3    7      0.58      0.00
    5   -3    8      0.28      0.00
    5   -3    9     -0.66      0.00
    5   -3   10      0.82      0.00
    5   -3   11     -0.66      0.00
    5   -3   12      0.20      0.00
    5   -3   13     -0.02      0.00
    5   -3   14     -0.13      0.00
    5   -3   15     -0.01      0.00
    5   -3   16      0.56      0.00
    5   -3   17     -1.40      0.00
    5   -3   18      0.56      0.00
    5   -3   19      0.57      0.00
    5   -3   20     -0.60      0.00
   -5    2   22     -0.49      0.00
   -5    2   21     -0.03      0.00
   -5    2   20     -0.20      0.00
   -5    2   19      0.77      0.00
   -5    2   18     -0.63      0.00
   -5    2   17      0.32      0.00
   -5    2   16      0.72      0.00
   -5    2   15     -0.80      0.00
   -5    2   14      0.83      0.00
   -5    2   13     -0.78      0.00
   -5    2   12      0.17      0.00
   -5    2   11      0.57      0.00
   -5    2   10     -1.57      0.00
   -5    2    9      1.99      0.00
   -5    2    8     -2.04      0.00
   -5    2    7      1.06      0.00
   -5    2    6      0.00      0.00
   -5    2    5     -1.70      0.00
   -5    2    4      3.06      0.00
   -5    2    3     -3.76      0.00
   -5    2    2      3.50      0.00
   -5    2    1     -0.71      0.00
   -5    2    0     -1.36      0.00
    5   -2    1      2.10      0.00
    5   -2    2     -2.49      0.00
    5   -2    3      1.79      0.00
    5   -2    4     -0.92      0.00
    5   -2    5      0.02      0.00
    5   -2    6      1.02      0.00
    5   -2    7     -1.44      0.00
    5   -2    8      1.22      0.00
    5   -2    9     -0.81      0.00
    5   -2   10      0.26      0.00
    5   -2   11      0.29      0.00
    5   -2   12     -0.40      0.00
    5   -2   13      0.35      0.00
    5   -2   14      0.06      0.00
    5   -2   15     -0.31      0.00
    5   -2   16      0.30      0.00
    5   -2   17      0.87      0.00
    5   -2   18     -1.21      0.00
    5   -2   19      0.06      0.00
    5   -2   20      0.12      0.00
   -5    1   22     -0.02      0.00
   -5    1   21      0.31      0.00
   -5    1   20     -0.37      0.00
   -5    1   19     -0.24      0.00
   -5    1   18      0.41      0.00
   -5    1   17     -0.83      0.00
   -5    1   16      0.44      0.00
   -5    1   15     -0.19      0.00
   -5    1   14     -0.27      0.00
   -5    1   13      1.20      0.00
   -5    1   12     -1.28      0.00
   -5    1   11      1.25      0.00
   -5    1   10     -0.60      0.00
   -5    1    9     -0.02      0.00
   -5    1    8      1.14      0.00
   -5    1    7     -2.25      0.00
   -5    1    6      3.11      0.00
   -5    1    5     -2.82      0.00
   -5    1    4      1.39      0.00
   -5    1    3      0.86      0.00
   -5    1    2     -3.66      0.00
   -5    1    1      3.85      0.00
   -5    1    0     -2.84      0.00
    5   -1    1      1.73      0.00
    5   -1    2     -0.03      0.00
    5   -1    3     -1.20      0.00
    5   -1    4      1.91      0.00
    5   -1    5     -1.95      0.00
    5   -1    6      1.27      0.00
    5   -1    7     -0.34      0.00
    5   -1    8     -0.46      0.00
    5   -1    9      0.89      0.00
    5   -1   10     -1.01      0.00
    5   -1   11      0.69      0.00
    5   -1   12     -0.29      0.00
    5   -1   13     -0.21      0.00
    5   -1   14      0.20      0.00
    5   -1   15      0.02      0.00
    5   -1   16     -0.63      0.00
    5   -1   17      0.19      0.00
    5   -1   18      0.86      0.00
    5   -1   19     -0.06      0.00
    5   -1   20     -0.10      0.00
   -5    0   22      0.07      0.00
   -5    0   21     -0.25      0.00
   -5    0   20      0.55      0.00
   -5    0   19     -0.28      0.00
   -5    0   18      0.46      0.00
   -5    0   17     -0.05      0.00
   -5    0   16     -0.45      0.00
   -5    0   15      0.90      0.00
   -5    0   14     -1.04      0.00
   -5    0   13      0.07      0.00
   -5    0   12      0.21      0.00
   -5    0   11     -0.73      0.00
   -5    0   10      1.17      0.00
   -5    0    9     -1.91      0.00
   -5    0    8      2.17      0.00
   -5    0    7     -1.18      0.00
   -5    0    6     -0.73      0.00
   -5    0    5      2.80      0.00
   -5    0    4     -4.13      0.00
   -5    0    3      4.26      0.00
   -5    0    2     -1.80      0.00
   -5    0    1     -0.31      0.00
    5    0    0      1.61      0.00
    5    0    1     -2.80      0.00
    5    0    2      2.86      0.00
    5    0    3     -2.05      0.00
    5    0    4      0.60      0.00
    5    0    5      0.64      0.00
    5    0    6     -1.35      0.00
    5    0    7      1.52      0.00
    5    0    8     -1.07      0.00
    5    0    9      0.62      0.00
    5    0   10     -0.03      0.00
    5    0   11     -0.50      0.00
    5    0   12      0.71      0.00
    5    0   13     -0.32      0.00
    5    0   14     -0.03      0.00
    5    0   15      0.28      0.00
    5    0   16      0.11      0.00
    5    0   17     -0.44      0.00
    5    0   18     -0.56      0.00
    5    0   19     -0.03      0.00
   -5   -1   22      0.08      0.00
   -5   -1   21     -0.07      0.00
   -5   -1   20     -0.12      0.00
   -5   -1   19     -0.07      0.00
   -5   -1   18     -0.50      0.00
   -5   -1   17      0.98      0.00
   -5   -1   16     -0.61      0.00
   -5   -1   15     -0.10      0.00
   -5   -1   14      0.90      0.00
   -5   -1   13     -0.52      0.00
   -5   -1   12      0.84      0.00
   -5   -1   11     -1.11      0.00
   -5   -1   10      0.99      0.00
   -5   -1    9      0.05      0.00
   -5   -1    8     -2.01      0.00
   -5   -1    7      3.09      0.00
   -5   -1    6     -3.18      0.00
   -5   -1    5      1.95      0.00
   -5   -1    4      0.06      0.00
   -5   -1    3     -2.76      0.00
   -5   -1    2      3.55      0.00
   -5   -1    1     -3.31      0.00
    5    1    0      3.00      0.00
    5    1    1     -1.33      0.00
    5    1    2     -0.60      0.00
    5    1    3      2.00      0.00
    5    1    4     -2.09      0.00
    5    1    5      1.54      0.00
    5    1    6     -0.80      0.00
    5    1    7     -0.07      0.00
    5    1    8      0.40      0.00
    5    1    9     -0.83      0.00
    5    1   10      1.04      0.00
    5    1   11     -0.49      0.00
    5    1   12     -0.22      0.00
    5    1   13      0.40      0.00
    5    1   14     -0.34      0.00
    5    1   15      0.09      0.00
    5    1   16      0.09      0.00
    5    1   17      0.28      0.00
    5    1   18      0.61      0.00
    5    1   19     -0.32      0.00
   -5   -2   22     -0.01      0.00
   -5   -2   21      0.05      0.00
   -5   -2   20     -0.11      0.00
   -5   -2   19      0.62      0.00
   -5   -2   18     -0.44      0.00
   -5   -2   17     -0.59      0.00
   -5   -2   16      0.92      0.00
   -5   -2   15     -0.74      0.00
   -5   -2   14      0.12      0.00
   -5   -2   13     -0.49      0.00
   -5   -2   12      0.21      0.00
   -5   -2   11      0.80      0.00
   -5   -2   10     -1.84      0.00
   -5   -2    9      2.44      0.00
   -5   -2    8     -1.24      0.00
   -5   -2    7     -0.20      0.00
   -5   -2    6      1.90      0.00
   -5   -2    5     -3.10      0.00
   -5   -2    4      3.65      0.00
   -5   -2    3     -2.47      0.00
   -5   -2    2      1.04      0.00
   -5   -2    1      0.14      0.00
    5    2    0     -2.44      0.00
    5    2    1      3.44      0.00
    5    2    2     -2.79      0.00
    5    2    3      1.24      0.00
    5    2    4      0.01      0.00
    5    2    5     -0.64      0.00
    5    2    6      1.07      0.00
    5    2    7     -1.00      0.00
    5    2    8      1.12      0.00
    5    2    9     -0.64      0.00
    5    2   10     -0.43      0.00
    5    2   11      0.63      0.00
    5    2   12     -0.24      0.00
    5    2   13      0.05      0.00
    5    2   14      0.17      0.00
    5    2   15     -0.49      0.00
    5    2   16      0.36      0.00
    5    2   17     -0.55      0.00
    5    2   18     -0.32      0.00
    5    2   19      0.64      0.00
   -5   -3   22      0.02      0.00
   -5   -3   21      0.16      0.00
   -5   -3   20     -0.18      0.00
   -5   -3   19     -0.41      0.00
   -5   -3   18      0.99      0.00
   -5   -3   17     -0.40      0.00
   -5   -3   16     -0.12      0.00
   -5   -3   15      0.33      0.00
   -5   -3   14     -0.12      0.00
   -5   -3   13      0.72      0.00
   -5   -3   12     -1.34      0.00
   -5   -3   11      1.00      0.00
   -5   -3   10     -0.18      0.00
   -5   -3    9     -1.48      0.00
   -5   -3    8      1.99      0.00
   -5   -3    7     -2.26      0.00
   -5   -3    6      1.83      0.00
   -5   -3    5     -0.80      0.00
   -5   -3    4     -0.77      0.00
   -5   -3    3      2.15      0.00
   -5   -3    2     -3.07      0.00
   -5   -3    1      4.12      0.00
    5    3    0     -2.52      0.00
    5    3    1      0.03      0.00
    5    3    2      1.42      0.00
    5    3    3     -1.83      0.00
    5    3    4      1.52      0.00
    5    3    5     -1.31      0.00
    5    3    6      0.84      0.00
    5    3    7     -0.33      0.00
    5    3    8     -0.63      0.00
    5    3    9      1.20      0.00
    5    3   10     -0.41      0.00
    5    3   11     -0.04      0.00
    5    3   12      0.04      0.00
    5    3   13     -0.36      0.00
    5    3   14      0.51      0.00
    5    3   15      0.05      0.00
    5    3   16     -0.42      0.00
    5    3   17      0.81      0.00
    5    3   18     -0.29      0.00
   -5   -4   22     -0.28      0.00
   -5   -4   21     -0.05      0.00
   -5   -4   20      0.33      0.00
   -5   -4   19     -0.21      0.00
   -5   -4   18     -0.50      0.00
   -5   -4   17      0.61      0.00
   -5   -4   16     -0.45      0.00
   -5   -4   15      0.35      0.00
   -5   -4   14     -0.52      0.00
   -5   -4   13      0.39      0.00
   -5   -4   12      0.47      0.00
   -5   -4   11     -1.02      0.00
   -5   -4   10      1.56      0.00
   -5   -4    9     -0.84      0.00
   -5   -4    8      0.31      0.00
   -5   -4    7      0.55      0.00
   -5   -4    6     -1.62      0.00
   -5   -4    5      2.34      0.00
   -5   -4    4     -2.91      0.00
   -5   -4    3      2.44      0.00
   -5   -4    2     -1.20      0.00
   -5   -4    1     -1.91      0.00
    5    4    0      3.41      0.00
    5    4    1     -2.67      0.00
    5    4    2      1.83      0.00
    5    4    3     -0.75      0.00
    5    4    4      0.18      0.00
    5    4    5      0.55      0.00
    5    4    6     -1.27      0.00
    5    4    7      1.47      0.00
    5    4    8     -0.85      0.00
    5    4    9     -0.20      0.00
    5    4   10      0.13      0.00
    5    4   11     -0.12      0.00
    5    4   12      0.41      0.00
    5    4   13      0.12      0.00
    5    4   14     -0.84      0.00
    5    4   15      0.71      0.00
    5    4   16     -0.24      0.00
    5    4   17     -0.32      0.00
    5    4   18      0.37      0.00
   -5   -5   22      0.32      0.00
   -5   -5   21     -0.14      0.00
   -5   -5   20     -0.05      0.00
   -5   -5   19      0.34      0.00
   -5   -5   18     -0.21      0.00
   -5   -5   17     -0.12      0.00
   -5   -5   16      0.23      0.00
   -5   -5   15     -0.26      0.00
   -5   -5   14      0.29      0.00
   -5   -5   13     -0.79      0.00
   -5   -5   12      0.74      0.00
   -5   -5   11     -0.50      0.00
   -5   -5   10     -0.38      0.00
   -5   -5    9      0.80      0.00
   -5   -5    8     -1.26      0.00
   -5   -5    7      1.62      0.00
   -5   -5    6     -1.16      0.00
   -5   -5    5      0.69      0.00
   -5   -5    4      1.02      0.00
   -5   -5    3     -2.79      0.00
   -5   -5    2      4.06      0.00
   -5   -5    1     -2.67      0.00
    5    5    1      0.32      0.00
    5    5    2     -1.28      0.00
    5    5    3      1.50      0.00
    5    5    4     -1.63      0.00
    5    5    5      1.41      0.00
    5    5    6     -0.32      0.00
    5    5    7     -0.50      0.00
    5    5    8      0.76      0.00
    5    5    9     -0.38      0.00
    5    5   10      0.44      0.00
    5    5   11     -0.20      0.00
    5    5   12     -0.65      0.00
    5    5   13      0.47      0.00
    5    5   14      0.34      0.00
    5    5   15     -0.65      0.00
    5    5   16      0.54      0.00
    5    5   17     -0.27      0.00
    5    5   18      0.09      0.00
   -5   -6   22     -0.06      0.00
   -5   -6   21     -0.04      0.00
   -5   -6   20     -0.07      0.00
   -5   -6   19      0.00      0.00
   -5   -6   18      0.44      0.00
   -5   -6   17     -0.27      0.00
   -5   -6   16      0.09      0.00
   -5   -6   15      0.02      0.00
   -5   -6   14      0.39      0.00
   -5   -6   13     -0.11      0.00
   -5   -6   12     -0.37      0.00
   -5   -6   11      0.80      0.00
   -5   -6   10     -0.82      0.00
   -5   -6    9      0.63      0.00
   -5   -6    8     -0.25      0.00
   -5   -6    7     -0.82      0.00
   -5   -6    6      1.34      0.00
   -5   -6    5     -2.44      0.00
   -5   -6    4      2.49      0.00
   -5   -6    3     -1.18      0.00
   -5   -6    2     -1.04      0.00
   -5   -6    1      2.24      0.00
    5    6    0     -1.89      0.00
    5    6    1      2.14      0.00
    5    6    2     -1.35      0.00
    5    6    3      0.48      0.00
    5    6    4      0.40      0.00
    5    6    5     -1.32      0.00
    5    6    6      0.96      0.00
    5    6    7     -0.61      0.00
    5    6    8      0.45      0.00
    5    6    9     -0.20      0.00
    5    6   10     -0.39      0.00
    5    6   11      0.46      0.00
    5    6   12      0.55      0.00
    5    6   13     -0.80      0.00
    5    6   14      0.30      0.00
    5    6   15     -0.11      0.00
    5    6   16      0.10      0.00
    5    6   17     -0.02      0.00
   -5   -7   22      0.04      0.00
   -5   -7   21      0.24      0.00
   -5   -7   20     -0.19      0.00
   -5   -7   19     -0.25      0.00
   -5   -7   18     -0.31      0.00
   -5   -7   17      0.39      0.00
   -5   -7   16     -0.19      0.00
   -5   -7   15     -0.11      0.00
   -5   -7   14     -0.33      0.00
   -5   -7   13      0.68      0.00
   -5   -7   12     -0.44      0.00
   -5   -7   11      0.26      0.00
   -5   -7   10      0.22      0.00
   -5   -7    9     -0.64      0.00
   -5   -7    8      1.16      0.00
   -5   -7    7     -0.80      0.00
   -5   -7    6      0.68      0.00
   -5   -7    5      0.31      0.00
   -5   -7    4     -1.84      0.00
   -5   -7    3      2.47      0.00
   -5   -7    2     -2.16      0.00
   -5   -7    1      1.16      0.00
    5    7    0     -0.66      0.00
    5    7    1     -0.71      0.00
    5    7    2      1.43      0.00
    5    7    3     -1.40      0.00
    5    7    4      1.03      0.00
    5    7    5      0.01      0.00
    5    7    6      0.06      0.00
    5    7    7      0.06      0.00
    5    7    8     -0.77      0.00
    5    7    9      0.78      0.00
    5    7   10      0.00      0.00
    5    7   11     -0.51      0.00
    5    7   12     -0.19      0.00
    5    7   13      0.50      0.00
    5    7   14     -0.13      0.00
    5    7   15      0.24      0.00
    5    7   16     -0.56      0.00
    5    7   17      0.64      0.00
   -5   -8   22     -0.30      0.00
   -5   -8   21      0.01      0.00
   -5   -8   20      0.37      0.00
   -5   -8   19      0.32      0.00
   -5   -8   18      0.04      0.00
   -5   -8   17     -0.30      0.00
   -5   -8   16      0.19      0.00
   -5   -8   15      0.09      0.00
   -5   -8   14     -0.09      0.00
   -5   -8   13     -0.37      0.00
   -5   -8   12      0.22      0.00
   -5   -8   11     -0.55      0.00
   -5   -8   10      0.59      0.00
   -5   -8    9     -0.42      0.00
   -5   -8    8     -0.25      0.00
   -5   -8    7      0.56      0.00
   -5   -8    6     -1.10      0.00
   -5   -8    5      1.64      0.00
   -5   -8    4     -0.94      0.00
   -5   -8    3      0.16      0.00
   -5   -8    2      0.88      0.00
   -5   -8    1     -1.53      0.00
    5    8    0      2.03      0.00
    5    8    1     -1.43      0.00
    5    8    2      0.34      0.00
    5    8    3      0.30      0.00
    5    8    4     -0.64      0.00
    5    8    5      0.15      0.00
    5    8    6     -0.68      0.00
    5    8    7      1.06      0.00
    5    8    8     -0.03      0.00
    5    8    9     -0.55      0.00
    5    8   10      0.11      0.00
    5    8   11      0.40      0.00
    5    8   12      0.01      0.00
    5    8   13     -0.14      0.00
    5    8   14     -0.45      0.00
    5    8   15      0.48      0.00
    5    8   16     -0.03      0.00
   -5   -9   21     -0.40      0.00
   -5   -9   20     -0.28      0.00
   -5   -9   19     -0.27      0.00
   -5   -9   18      0.22      0.00
   -5   -9   17      0.02      0.00
   -5   -9   16      0.12      0.00
   -5   -9   15     -0.04      0.00
   -5   -9   14      0.21      0.00
   -5   -9   13      0.17      0.00
   -5   -9   12      0.18      0.00
   -5   -9   11     -0.15      0.00
   -5   -9   10     -0.19      0.00
   -5   -9    9      0.55      0.00
   -5   -9    8     -0.62      0.00
   -5   -9    7      0.50      0.00
   -5   -9    6     -0.37      0.00
   -5   -9    5     -0.72      0.00
   -5   -9    4      1.25      0.00
   -5   -9    3     -1.71      0.00
   -5   -9    2      1.53      0.00
   -5   -9    1     -0.68      0.00
    5    9    0     -0.36      0.00
    5    9    1      1.03      0.00
    5    9    2     -0.80      0.00
    5    9    3      0.40      0.00
    5    9    4     -0.13      0.00
    5    9    5      0.59      0.00
    5    9    6      0.06      0.00
    5    9    7     -1.17      0.00
    5    9    8      0.65      0.00
    5    9    9     -0.07      0.00
    5    9   10      0.22      0.00
    5    9   11     -0.38      0.00
    5    9   12     -0.12      0.00
    5    9   13      0.33      0.00
    5    9   14      0.36      0.00
    5    9   15     -0.74      0.00
    5    9   16      0.63      0.00
   -5  -10   22      0.04      0.00
   -5  -10   21      0.48      0.00
   -5  -10   20      0.10      0.00
   -5  -10   19      0.07      0.00
   -5  -10   18     -0.13      0.00
   -5  -10   17     -0.05      0.00
   -5  -10   16     -0.49      0.00
   -5  -10   15      0.31      0.00
   -5  -10   14     -0.38      0.00
   -5  -10   13     -0.09      0.00
   -5  -10   12      0.08      0.00
   -5  -10   11      0.38      0.00
   -5  -10   10     -0.48      0.00
   -5  -10    9      0.33      0.00
   -5  -10    8      0.26      0.00
   -5  -10    7     -0.52      0.00
   -5  -10    6      1.11      0.00
   -5  -10    5     -0.84      0.00
   -5  -10    4      0.44      0.00
   -5  -10    3      0.25      0.00
   -5  -10    2     -1.17      0.00
   -5  -10    1      1.29      0.00
    5   10    0     -1.06      0.00
    5   10    1      0.35      0.00
    5   10    2      0.03      0.00
    5   10    3     -0.01      0.00
    5   10    4      0.04      0.00
    5   10    5     -0.79      0.00
    5   10    6      0.67      0.00
    5   10    7      0.39      0.00
    5   10    8     -0.25      0.00
    5   10    9      0.07      0.00
    5   10   10     -0.50      0.00
    5   10   11      0.61      0.00
    5   10   12      0.05      0.00
    5   10   13     -0.57      0.00
    5   10   14      0.21      0.00
    5   10   15      0.16      0.00
   -5  -11   20      0.14      0.00
   -5  -11   19     -0.01      0.00
   -5  -11   18     -0.10      0.00
   -5  -11   17      0.56      0.00
   -5  -11   16      0.17      0.00
   -5  -11   15     -0.29      0.00
   -5  -11   14      0.50      0.00
   -5  -11   13     -0.37      0.00
   -5  -11   12     -0.28      0.00
   -5  -11   11      0.05      0.00
   -5  -11   10      0.35      0.00
   -5  -11    9     -0.83      0.00
   -5  -11    8      0.47      0.00
   -5  -11    7     -0.25      0.00
   -5  -11    6     -0.29      0.00
   -5  -11    5      0.64      0.00
   -5  -11    4     -0.90      0.00
   -5  -11    3      1.20      0.00
   -5  -11    2     -0.58      0.00
   -5  -11    1      0.13      0.00
    5   11    0      0.44      0.00
    5   11    1     -0.51      0.00
    5   11    2      0.27      0.00
    5   11    3     -0.26      0.00
    5   11    4      0.19      0.00
    5   11    5      0.46      0.00
    5   11    6     -0.64      0.00
    5   11    7      0.04      0.00
    5   11    8     -0.45      0.00
    5   11    9      0.70      0.00
    5   11   10      0.05      0.00
    5   11   11     -0.54      0.00
    5   11   12      0.18      0.00
    5   11   13      0.41      0.00
    5   11   14     -0.36      0.00
    5   11   15      0.22      0.00
   -5  -12   20     -0.30      0.00
   -5  -12   19      0.25      0.00
   -5  -12   18     -0.10      0.00
   -5  -12   17     -0.71      0.00
   -5  -12   16      0.40      0.00
   -5  -12   15     -0.26      0.00
   -5  -12   14      0.11      0.00
   -5  -12   13      0.54      0.00
   -5  -12   12      0.06      0.00
   -5  -12   11     -0.33      0.00
   -5  -12   10      0.17      0.00
   -5  -12    9      0.47      0.00
   -5  -12    8     -0.55      0.00
   -5  -12    7      0.48      0.00
   -5  -12    6     -0.53      0.00
   -5  -12    5      0.48      0.00
   -5  -12    4     -0.37      0.00
   -5  -12    3     -0.50      0.00
   -5  -12    2      0.80      0.00
   -5  -12    1     -0.94      0.00
    5   12    0      0.58      0.00
    5   12    1     -0.05      0.00
    5   12    2     -0.10      0.00
    5   12    3      0.21      0.00
    5   12    4     -0.06      0.00
    5   12    5     -0.30      0.00
    5   12    6      0.26      0.00
    5   12    7      0.38      0.00
    5   12    8      0.20      0.00
    5   12    9     -1.00      0.00
    5   12   10      0.59      0.00
    5   12   11      0.02      0.00
    5   12   12     -0.10      0.00
    5   12   13     -0.26      0.00
    5   12   14      0.26      0.00
   -5  -13   20      0.09      0.00
   -5  -13   18      0.42      0.00
   -5  -13   17      0.17      0.00
   -5  -13   16     -0.21      0.00
   -5  -13   15      0.26      0.00
   -5  -13   14     -0.81      0.00
   -5  -13   13     -0.01      0.00
   -5  -13   12     -0.01      0.00
   -5  -13   11      0.37      0.00
   -5  -13   10     -0.40      0.00
   -5  -13    9      0.11      0.00
   -5  -13    8      0.10      0.00
   -5  -13    7      0.10      0.00
   -5  -13    6      0.17      0.00
   -5  -13    5     -0.61      0.00
   -5  -13    4      1.17      0.00
   -5  -13    3     -0.84      0.00
   -5  -13    2      0.36      0.00
   -5  -13    1      0.21      0.00
    5   13    0     -0.55      0.00
    5   13    1      0.27      0.00
    5   13    2      0.14      0.00
    5   13    3     -0.47      0.00
    5   13    4      0.09      0.00
    5   13    5      0.36      0.00
    5   13    6     -0.24      0.00
    5   13    7     -0.69      0.00
    5   13    8      0.69      0.00
    5   13    9      0.20      0.00
    5   13   10     -0.34      0.00
    5   13   11      0.11      0.00
    5   13   12      0.09      0.00
    5   13   13      0.13      0.00
   -5  -14   18     -0.17      0.00
   -5  -14   17      0.09      0.00
   -5  -14   16     -0.24      0.00
   -5  -14   15      0.54      0.00
   -5  -14   14      0.43      0.00
   -5  -14   13     -0.28      0.00
   -5  -14   12      0.07      0.00
   -5  -14   11     -0.38      0.00
   -5  -14   10      0.26      0.00
   -5  -14    9     -0.28      0.00
   -5  -14    8      0.18      0.00
   -5  -14    7     -0.61      0.00
   -5  -14    6      0.71      0.00
   -5  -14    5     -0.33      0.00
   -5  -14    4     -0.37      0.00
   -5  -14    3      0.74      0.00
   -5  -14    2     -0.85      0.00
   -5  -14    1      0.61      0.00
    5   14    0      0.03      0.00
    5   14    1     -0.26      0.00
    5   14    2     -0.12      0.00
    5   14    3      0.83      0.00
    5   14    4     -0.45      0.00
    5   14    5     -0.21      0.00
    5   14    6      0.44      0.00
    5   14    7      0.14      0.00
    5   14    8     -0.73      0.00
    5   14    9      0.42      0.00
    5   14   10     -0.27      0.00
    5   14   11      0.23      0.00
    5   14   12     -0.40      0.00
   -5  -15   18     -0.18      0.00
   -5  -15   17      0.28      0.00
   -5  -15   16     -0.07      0.00
   -5  -15   15     -0.78      0.00
   -5  -15   14      0.34      0.00
   -5  -15   13     -0.05      0.00
   -5  -15   12      0.19      0.00
   -5  -15   11      0.23      0.00
   -5  -15   10      0.06      0.00
   -5  -15    9     -0.03      0.00
   -5  -15    8      0.03      0.00
   -5  -15    7      0.36      0.00
   -5  -15    6     -0.84      0.00
   -5  -15    5      0.79      0.00
   -5  -15    4     -0.64      0.00
   -5  -15    3      0.40      0.00
   -5  -15    2      0.08      0.00
   -5  -15    1     -0.46      0.00
    5   15    0      0.08      0.00
    5   15    1      0.51      0.00
    5   15    2     -0.40      0.00
    5   15    3     -0.63      0.00
    5   15    4      0.65      0.00
    5   15    5     -0.16      0.00
    5   15    6     -0.16      0.00
    5   15    7      0.43      0.00
    5   15    8     -0.05      0.00
    5   15    9     -0.02      0.00
    5   15   10      0.07      0.00
    5   15   11     -0.07      0.00
    5   15   12      0.30      0.00
   -5  -16   17     -0.38      0.00
   -5  -16   16      0.56      0.00
   -5  -16   14     -0.34      0.00
   -5  -16   13      0.12      0.00
   -5  -16   12     -0.34      0.00
   -5  -16   11     -0.08      0.00
   -5  -16   10     -0.25      0.00
   -5  -16    9      0.40      0.00
   -5  -16    8     -0.33      0.00
   -5  -16    7      0.20      0.00
   -5  -16    6      0.24      0.00
   -5  -16    5     -0.13      0.00
   -5  -16    4      0.35      0.00
   -5  -16    3     -0.78      0.00
   -5  -16    2      0.58      0.00
   -5  -16    1      0.05      0.00
    5   16    0     -0.04      0.00
    5   16    1     -0.73      0.00
    5   16    2      1.13      0.00
    5   16    3     -0.14      0.00
    5   16    4     -0.29      0.00
    5   16    5      0.23      0.00
    5   16    6     -0.46      0.00
    5   16    7     -0.11      0.00
    5   16    8      0.26      0.00
    5   16    9     -0.26      0.00
    5   16   10      0.37      0.00
    5   16   11     -0.45      0.00
   -5  -17   13      0.16      0.00
   -5  -17   12      0.09      0.00
   -5  -17   11      0.23      0.00
   -5  -17   10      0.06      0.00
   -5  -17    9     -0.46      0.00
   -5  -17    8      0.30      0.00
   -5  -17    7     -0.31      0.00
   -5  -17    6      0.01      0.00
   -5  -17    5     -0.47      0.00
   -5  -17    4      0.61      0.00
   -5  -17    3      0.11      0.00
   -5  -17    2     -0.35      0.00
   -5  -17    1     -0.25      0.00
    5   17    0      0.61      0.00
    5   17    1      0.17      0.00
    5   17    2     -1.20      0.00
    5   17    3      0.82      0.00
    5   17    4     -0.36      0.00
    5   17    5      0.24      0.00
    5   17    6      0.58      0.00
    5   17    7     -0.38      0.00
    5   17    8      0.13      0.00
    5   17    9     -0.23      0.00
   -5  -18   11     -0.34      0.00
   -5  -18   10      0.24      0.00
   -5  -18    9      0.31      0.00
   -5  -18    8     -0.14      0.00
   -5  -18    6      0.33      0.00
   -5  -18    5      0.11      0.00
   -5  -18    4     -0.81      0.00
   -5  -18    3      0.33      0.00
   -5  -18    2      0.12      0.00
   -5  -18    1      0.38      0.00
    5   18    0     -1.28      0.00
    5   18    1      1.04      0.00
    5   18    2      0.23      0.00
    5   18    3     -0.70      0.00
    5   18    4      0.66      0.00
    5   18    5     -0.72      0.00
    5   18    6     -0.12      0.00
    5   18    7      0.23      0.00
    5   18    8     -0.04      0.00
   -5  -19   10     -0.28      0.00
   -5  -19    8      0.19      0.00
   -5  -19    7     -0.12      0.00
   -5  -19    6     -0.46      0.00
   -5  -19    5      0.51      0.00
   -5  -19    4      0.30      0.00
   -5  -19    3     -0.14      0.00
   -5  -19    2     -0.45      0.00
   -5  -19    1      0.36      0.00
    5   19    0      0.82      0.00
    5   19    1     -1.54      0.00
    5   19    2      0.90      0.00
    5   19    3     -0.10      0.00
    5   19    4     -0.39      0.00
    5   19    5      0.67      0.00
    5   19    6     -0.09      0.00
    5   19    7      0.02      0.00
   -5  -20    7      0.35      0.00
   -5  -20    4      0.02      0.00
   -5  -20    1     -1.07      0.00
    5   20    0      0.46      0.00
    5   20    3      0.69      0.00
    5   20    4      0.00      0.00
    5   20    5     -0.39      0.00
    5   20    6     -0.07      0.00
   -5  -21    1      0.69      0.00
    5   21    3     -0.61      0.00
    5   21    4      0.13      0.00
   -6   17   15      0.45      0.00
   -6   17   13     -1.12      0.00
   -6   17   12      0.62      0.00
   -6   17   11     -0.21      0.00
   -6   17    9      0.14      0.00
   -6   17    8     -0.73      0.00
   -6   17    7      0.34      0.00
   -6   16   14      0.60      0.00
   -6   16   13      0.89      0.00
   -6   16   11      0.47      0.00
   -6   16   10     -0.60      0.00
   -6   16    9      0.77      0.00
   -6   16    8      0.05      0.00
   -6   16    7     -0.46      0.00
   -6   16    6      0.25      0.00
   -6   16    5     -0.10      0.00
   -6   15   16      0.17      0.00
   -6   15   15      1.14      0.00
   -6   15   14     -1.58      0.00
   -6   15   13      0.05      0.00
   -6   15   12      0.02      0.00
   -6   15   11      0.34      0.00
   -6   15   10      0.05      0.00
   -6   15    9     -0.80      0.00
   -6   15    8      0.65      0.00
   -6   15    7      0.05      0.00
   -6   15    6     -0.16      0.00
   -6   15    5      0.31      0.00
   -6   15    4      0.30      0.00
   -6   14   18      0.09      0.00
   -6   14   17      0.68      0.00
   -6   14   16     -0.89      0.00
   -6   14   15     -0.06      0.00
   -6   14   14      1.21      0.00
   -6   14   13     -0.34      0.00
   -6   14   12      0.10      0.00
   -6   14   11     -0.84      0.00
   -6   14   10      0.79      0.00
   -6   14    9     -0.17      0.00
   -6   14    8     -0.29      0.00
   -6   14    7      0.00      0.00
   -6   14    6      0.02      0.00
   -6   14    5     -0.23      0.00
   -6   14    4     -0.06      0.00
   -6   13   18     -0.32      0.00
   -6   13   17     -0.43      0.00
   -6   13   16      0.92      0.00
   -6   13   15     -0.82      0.00
   -6   13   14     -0.02      0.00
   -6   13   13     -0.19      0.00
   -6   13   12      0.57      0.00
   -6   13   11      0.20      0.00
   -6   13   10     -0.44      0.00
   -6   13    9      0.45      0.00
   -6   13    8     -0.29      0.00
   -6   13    7      0.43      0.00
   -6   13    6     -0.27      0.00
   -6   13    5      0.16      0.00
   -6   13    4      0.05      0.00
   -6   13    3     -0.15      0.00
   -6   12   19      0.11      0.00
   -6   12   18      0.44      0.00
   -6   12   17     -0.15      0.00
   -6   12   16     -0.03      0.00
   -6   12   15      0.26      0.00
   -6   12   14     -0.37      0.00
   -6   12   13      0.44      0.00
   -6   12   12     -0.92      0.00
   -6   12   11      0.44      0.00
   -6   12   10     -0.45      0.00
   -6   12    9      0.37      0.00
   -6   12    8     -0.01      0.00
   -6   12    7     -0.45      0.00
   -6   12    6      0.59      0.00
   -6   12    5     -0.36      0.00
   -6   12    4      0.03      0.00
   -6   12    3      0.09      0.00
   -6   12    2      0.33      0.00
   -6   11   19     -0.32      0.00
   -6   11   18      0.01      0.00
   -6   11   17      0.03      0.00
   -6   11   16     -0.38      0.00
   -6   11   15      0.81      0.00
   -6   11   14     -0.29      0.00
   -6   11   13      0.08      0.00
   -6   11   12      0.42      0.00
   -6   11   11     -0.18      0.00
   -6   11   10      0.46      0.00
   -6   11    9     -0.93      0.00
   -6   11    8      0.66      0.00
   -6   11    7     -0.17      0.00
   -6   11    6     -0.35      0.00
   -6   11    5      0.38      0.00
   -6   11    4     -0.19      0.00
   -6   11    3      0.03      0.00
   -6   11    2     -0.66      0.00
    6  -11   10     -0.08      0.00
    6  -11   11      0.17      0.00
    6  -11   12     -0.28      0.00
    6  -11   13     -0.05      0.00
   -6   10   19      0.14      0.00
   -6   10   18     -0.33      0.00
   -6   10   17      0.51      0.00
   -6   10   16     -0.35      0.00
   -6   10   15     -0.76      0.00
   -6   10   14      0.69      0.00
   -6   10   13     -0.67      0.00
   -6   10   12      0.32      0.00
   -6   10   11     -0.46      0.00
   -6   10   10      0.30      0.00
   -6   10    9      0.50      0.00
   -6   10    8     -0.57      0.00
   -6   10    7      0.56      0.00
   -6   10    6     -0.26      0.00
   -6   10    5      0.21      0.00
   -6   10    4     -0.21      0.00
   -6   10    3      0.18      0.00
   -6   10    2      0.45      0.00
   -6   10    1     -1.15      0.00
    6  -10    6     -0.30      0.00
    6  -10    7      0.14      0.00
    6  -10    8      0.04      0.00
    6  -10    9     -0.36      0.00
    6  -10   10      0.37      0.00
    6  -10   11     -0.22      0.00
    6  -10   12      0.27      0.00
    6  -10   13     -0.07      0.00
    6  -10   14      0.01      0.00
    6  -10   15     -0.03      0.00
   -6    9   20     -0.58      0.00
   -6    9   19      0.41      0.00
   -6    9   18     -0.01      0.00
   -6    9   17     -0.30      0.00
   -6    9   16      0.91      0.00
   -6    9   15     -0.20      0.00
   -6    9   14     -0.02      0.00
   -6    9   13      0.41      0.00
   -6    9   12     -0.50      0.00
   -6    9   11      0.64      0.00
   -6    9   10     -0.83      0.00
   -6    9    9      0.19      0.00
   -6    9    8     -0.23      0.00
   -6    9    7      0.03      0.00
   -6    9    6      0.14      0.00
   -6    9    5     -0.61      0.00
   -6    9    4      1.01      0.00
   -6    9    3     -0.90      0.00
   -6    9    2      0.56      0.00
   -6    9    1      0.35      0.00
   -6    9    0     -0.86      0.00
    6   -9    2     -0.51      0.00
    6   -9    4     -0.22      0.00
    6   -9    5     -0.32      0.00
    6   -9    6      0.23      0.00
    6   -9    7     -0.56      0.00
    6   -9    8      0.85      0.00
    6   -9    9     -0.36      0.00
    6   -9   10     -0.10      0.00
    6   -9   11      0.03      0.00
    6   -9   12      0.03      0.00
    6   -9   13     -0.08      0.00
    6   -9   14      0.04      0.00
    6   -9   15     -0.03      0.00
   -6    8   20      0.32      0.00
   -6    8   19     -0.54      0.00
   -6    8   18      0.24      0.00
   -6    8   17     -0.43      0.00
   -6    8   16     -0.25      0.00
   -6    8   15      0.44      0.00
   -6    8   14     -0.74      0.00
   -6    8   13      0.47      0.00
   -6    8   12     -0.02      0.00
   -6    8   11     -0.08      0.00
   -6    8   10      0.51      0.00
   -6    8    9     -0.13      0.00
   -6    8    8      0.59      0.00
   -6    8    7     -0.91      0.00
   -6    8    6      0.97      0.00
   -6    8    5     -0.37      0.00
   -6    8    4     -0.79      0.00
   -6    8    3      0.99      0.00
   -6    8    2     -1.23      0.00
   -6    8    1      1.00      0.00
   -6    8    0     -0.49      0.00
    6   -8    1     -0.04      0.00
    6   -8    3     -0.54      0.00
    6   -8    4      0.63      0.00
    6   -8    5     -0.39      0.00
    6   -8    6      0.57      0.00
    6   -8    7     -0.18      0.00
    6   -8    8     -0.75      0.00
    6   -8    9      0.77      0.00
    6   -8   10     -0.29      0.00
    6   -8   11      0.19      0.00
    6   -8   12     -0.38      0.00
    6   -8   13      0.37      0.00
    6   -8   14     -0.18      0.00
    6   -8   15      0.13      0.00
    6   -8   16     -0.25      0.00
   -6    7   21     -0.49      0.00
   -6    7   20      0.18      0.00
   -6    7   19      0.22      0.00
   -6    7   18      0.25      0.00
   -6    7   17      0.33      0.00
   -6    7   16     -0.55      0.00
   -6    7   15      0.36      0.00
   -6    7   14      0.36      0.00
   -6    7   13     -0.69      0.00
   -6    7   12      0.35      0.00
   -6    7   11     -0.53      0.00
   -6    7   10      0.23      0.00
   -6    7    9     -0.69      0.00
   -6    7    8      0.34      0.00
   -6    7    7      0.44      0.00
   -6    7    6     -1.21      0.00
   -6    7    5      1.64      0.00
   -6    7    4     -0.58      0.00
   -6    7    3      0.35      0.00
   -6    7    2      0.05      0.00
   -6    7    1     -0.76      0.00
   -6    7    0      1.10      0.00
    6   -7    1     -1.30      0.00
    6   -7    2      0.67      0.00
    6   -7    3     -0.28      0.00
    6   -7    4     -0.06      0.00
    6   -7    5      0.35      0.00
    6   -7    6     -0.90      0.00
    6   -7    7      1.12      0.00
    6   -7    8     -0.30      0.00
    6   -7    9     -0.14      0.00
    6   -7   10      0.01      0.00
    6   -7   11      0.06      0.00
    6   -7   12      0.29      0.00
    6   -7   13     -0.40      0.00
    6   -7   14      0.11      0.00
    6   -7   15      0.06      0.00
    6   -7   16      0.18      0.00
    6   -7   17     -0.01      0.00
    6   -7   18      0.36      0.00
   -6    6   21      0.26      0.00
   -6    6   20     -0.29      0.00
   -6    6   19     -0.29      0.00
   -6    6   18     -0.54      0.00
   -6    6   17      0.54      0.00
   -6    6   16      0.20      0.00
   -6    6   15     -0.64      0.00
   -6    6   14      0.40      0.00
   -6    6   13      0.04      0.00
   -6    6   12      0.24      0.00
   -6    6   11      0.17      0.00
   -6    6   10     -0.13      0.00
   -6    6    9      0.80      0.00
   -6    6    8     -1.24      0.00
   -6    6    7      1.03      0.00
   -6    6    6     -0.54      0.00
   -6    6    5     -0.76      0.00
   -6    6    4      0.60      0.00
   -6    6    3     -1.03      0.00
   -6    6    2      1.63      0.00
   -6    6    1     -1.10      0.00
   -6    6    0      0.52      0.00
    6   -6    1      0.66      0.00
    6   -6    2     -1.01      0.00
    6   -6    3      1.00      0.00
    6   -6    4     -1.05      0.00
    6   -6    5      0.65      0.00
    6   -6    6     -0.01      0.00
    6   -6    7     -0.73      0.00
    6   -6    8      0.66      0.00
    6   -6    9     -0.49      0.00
    6   -6   10      0.57      0.00
    6   -6   11     -0.63      0.00
    6   -6   12      0.20      0.00
    6   -6   13      0.17      0.00
    6   -6   14      0.05      0.00
    6   -6   15     -0.39      0.00
    6   -6   16      0.26      0.00
    6   -6   17     -0.57      0.00
    6   -6   18      0.28      0.00
   -6    5   21      0.14      0.00
   -6    5   20      0.22      0.00
   -6    5   19      0.70      0.00
   -6    5   18     -0.19      0.00
   -6    5   17     -0.65      0.00
   -6    5   16      0.48      0.00
   -6    5   15     -0.15      0.00
   -6    5   14     -0.14      0.00
   -6    5   13      0.05      0.00
   -6    5   12     -0.66      0.00
   -6    5   11      0.56      0.00
   -6    5   10     -0.71      0.00
   -6    5    9      0.49      0.00
   -6    5    8      0.21      0.00
   -6    5    7     -0.74      0.00
   -6    5    6      1.61      0.00
   -6    5    5     -1.12      0.00
   -6    5    4      1.29      0.00
   -6    5    3     -0.90      0.00
   -6    5    2     -0.71      0.00
   -6    5    1      1.35      0.00
   -6    5    0     -1.91      0.00
    6   -5    1      1.31      0.00
    6   -5    2     -0.49      0.00
    6   -5    3      0.00      0.00
    6   -5    4      0.84      0.00
    6   -5    5     -0.99      0.00
    6   -5    6      0.87      0.00
    6   -5    7     -0.50      0.00
    6   -5    8      0.29      0.00
    6   -5    9     -0.05      0.00
    6   -5   10     -0.33      0.00
    6   -5   11      0.69      0.00
    6   -5   12     -0.50      0.00
    6   -5   13     -0.01      0.00
    6   -5   14      0.04      0.00
    6   -5   15      0.22      0.00
    6   -5   16     -0.22      0.00
    6   -5   17      0.87      0.00
    6   -5   18     -1.38      0.00
   -6    4   21     -0.21      0.00
   -6    4   20     -0.53      0.00
   -6    4   19     -0.40      0.00
   -6    4   18      0.90      0.00
   -6    4   17     -0.25      0.00
   -6    4   16     -0.03      0.00
   -6    4   15      0.50      0.00
   -6    4   14     -0.52      0.00
   -6    4   13      0.71      0.00
   -6    4   12     -0.14      0.00
   -6    4   11     -0.14      0.00
   -6    4   10      0.45      0.00
   -6    4    9     -1.10      0.00
   -6    4    8      1.26      0.00
   -6    4    7     -1.41      0.00
   -6    4    5      0.27      0.00
   -6    4    3      2.44      0.00
   -6    4    2     -1.70      0.00
   -6    4    1      1.05      0.00
   -6    4    0      0.26      0.00
    6   -4    1     -1.18      0.00
    6   -4    2      1.24      0.00
    6   -4    3     -1.36      0.00
    6   -4    4      0.59      0.00
    6   -4    5     -0.18      0.00
    6   -4    6     -0.06      0.00
    6   -4    7      0.43      0.00
    6   -4    8     -0.77      0.00
    6   -4    9      0.86      0.00
    6   -4   10     -0.59      0.00
    6   -4   11      0.05      0.00
    6   -4   12      0.22      0.00
    6   -4   13      0.09      0.00
    6   -4   14     -0.23      0.00
    6   -4   15      0.26      0.00
    6   -4   16     -0.57      0.00
    6   -4   17      0.08      0.00
    6   -4   18      1.47      0.00
    6   -4   19     -1.15      0.00
   -6    3   22      0.18      0.00
   -6    3   21      0.22      0.00
   -6    3   20      0.79      0.00
   -6    3   19     -0.64      0.00
   -6    3   18     -0.39      0.00
   -6    3   17      0.56      0.00
   -6    3   16     -0.85      0.00
   -6    3   15      0.29      0.00
   -6    3   14      0.10      0.00
   -6    3   13     -0.65      0.00
   -6    3   12      0.81      0.00
   -6    3   11     -0.73      0.00
   -6    3   10      0.94      0.00
   -6    3    9     -0.40      0.00
   -6    3    8     -0.21      0.00
   -6    3    7      1.46      0.00
   -6    3    6     -1.88      0.00
   -6    3    5      2.07      0.00
   -6    3    4     -1.56      0.00
   -6    3    3     -0.20      0.00
   -6    3    2      1.01      0.00
   -6    3    1     -1.89      0.00
   -6    3    0      1.89      0.00
    6   -3    1     -0.98      0.00
    6   -3    2      0.44      0.00
    6   -3    3      0.48      0.00
    6   -3    4     -0.64      0.00
    6   -3    5      0.79      0.00
    6   -3    6     -1.11      0.00
    6   -3    7      0.90      0.00
    6   -3    8     -0.37      0.00
    6   -3    9     -0.26      0.00
    6   -3   10      0.65      0.00
    6   -3   11     -0.55      0.00
    6   -3   12      0.22      0.00
    6   -3   13     -0.28      0.00
    6   -3   14      0.21      0.00
    6   -3   15     -0.26      0.00
    6   -3   16      0.90      0.00
    6   -3   17     -1.38      0.00
    6   -3   18     -0.19      0.00
   -6    2   22     -0.16      0.00
   -6    2   21     -0.53      0.00
   -6    2   20     -0.23      0.00
   -6    2   19      1.06      0.00
   -6    2   18     -0.58      0.00
   -6    2   17      0.28      0.00
   -6    2   16      0.60      0.00
   -6    2   15     -0.72      0.00
   -6    2   14      0.68      0.00
   -6    2   13     -0.48      0.00
   -6    2   12     -0.08      0.00
   -6    2   11      0.13      0.00
   -6    2   10     -0.87      0.00
   -6    2    9      1.29      0.00
   -6    2    8     -1.69      0.00
   -6    2    7      1.23      0.00
   -6    2    6     -0.30      0.00
   -6    2    5     -0.97      0.00
   -6    2    4      2.34      0.00
   -6    2    3     -2.27      0.00
   -6    2    2      2.01      0.00
   -6    2    1     -0.85      0.00
   -6    2    0     -0.54      0.00
    6   -2    1      0.97      0.00
    6   -2    2     -1.46      0.00
    6   -2    3      1.25      0.00
    6   -2    4     -1.01      0.00
    6   -2    5      0.61      0.00
    6   -2    6      0.27      0.00
    6   -2    7     -0.85      0.00
    6   -2    8      1.16      0.00
    6   -2    9     -0.95      0.00
    6   -2   10      0.39      0.00
    6   -2   11      0.02      0.00
    6   -2   12     -0.04      0.00
    6   -2   13      0.29      0.00
    6   -2   14     -0.14      0.00
    6   -2   15     -0.14      0.00
    6   -2   16     -0.20      0.00
    6   -2   17      1.42      0.00
    6   -2   18     -0.98      0.00
    6   -2   19     -0.38      0.00
   -6    1   22      0.11      0.00
   -6    1   21      0.67      0.00
   -6    1   20     -0.71      0.00
   -6    1   19     -0.30      0.00
   -6    1   18      0.50      0.00
   -6    1   17     -0.82      0.00
   -6    1   16      0.37      0.00
   -6    1   15      0.00      0.00
   -6    1   14     -0.26      0.00
   -6    1   13      0.81      0.00
   -6    1   12     -0.51      0.00
   -6    1   11      0.92      0.00
   -6    1   10     -0.82      0.00
   -6    1    9      0.41      0.00
   -6    1    8      0.52      0.00
   -6    1    7     -1.77      0.00
   -6    1    6      2.48      0.00
   -6    1    5     -2.37      0.00
   -6    1    4      1.00      0.00
   -6    1    3      0.25      0.00
   -6    1    2     -1.65      0.00
   -6    1    1      2.27      0.00
   -6    1    0     -1.81      0.00
    6   -1    1      1.50      0.00
    6   -1    2     -0.53      0.00
    6   -1    3     -0.46      0.00
    6   -1    4      1.18      0.00
    6   -1    5     -1.54      0.00
    6   -1    6      1.25      0.00
    6   -1    7     -0.86      0.00
    6   -1    8      0.05      0.00
    6   -1    9      0.60      0.00
    6   -1   10     -0.73      0.00
    6   -1   11      0.59      0.00
    6   -1   12     -0.54      0.00
    6   -1   13      0.05      0.00
    6   -1   14      0.15      0.00
    6   -1   15      0.19      0.00
    6   -1   16     -0.47      0.00
    6   -1   17     -0.42      0.00
    6   -1   18      1.02      0.00
    6   -1   19      0.09      0.00
   -6    0   22     -0.31      0.00
   -6    0   21     -0.20      0.00
   -6    0   20      0.88      0.00
   -6    0   19     -0.44      0.00
   -6    0   18      0.34      0.00
   -6    0   17      0.13      0.00
   -6    0   16     -0.44      0.00
   -6    0   15      0.49      0.00
   -6    0   14     -0.65      0.00
   -6    0   13      0.02      0.00
   -6    0   12     -0.33      0.00
   -6    0   11     -0.14      0.00
   -6    0   10      0.98      0.00
   -6    0    9     -1.66      0.00
   -6    0    8      2.11      0.00
   -6    0    7     -1.17      0.00
   -6    0    6     -0.36      0.00
   -6    0    5      1.96      0.00
   -6    0    4     -2.57      0.00
   -6    0    3      2.63      0.00
   -6    0    2     -1.79      0.00
   -6    0    1      0.53      0.00
    6    0    0      0.34      0.00
    6    0    1     -1.60      0.00
    6    0    3     -1.57      0.00
    6    0    5      0.09      0.00
    6    0    6     -0.53      0.00
    6    0    7      1.20      0.00
    6    0    8     -1.17      0.00
    6    0    9      0.67      0.00
    6    0   10     -0.21      0.00
    6    0   11     -0.20      0.00
    6    0   12      0.63      0.00
    6    0   13     -0.41      0.00
    6    0   14     -0.01      0.00
    6    0   15      0.00      0.00
    6    0   16      0.36      0.00
    6    0   17     -0.16      0.00
    6    0   18     -0.69      0.00
   -6   -1   22      0.39      0.00
   -6   -1   21     -0.40      0.00
   -6   -1   20     -0.24      0.00
   -6   -1   19      0.19      0.00
   -6   -1   18     -0.50      0.00
   -6   -1   17      0.70      0.00
   -6   -1   16     -0.34      0.00
   -6   -1   15      0.12      0.00
   -6   -1   14      0.44      0.00
   -6   -1   13     -0.18      0.00
   -6   -1   12      0.87      0.00
   -6   -1   11     -1.32      0.00
   -6   -1   10      0.85      0.00
   -6   -1    9     -0.11      0.00
   -6   -1    8     -1.62      0.00
   -6   -1    7      2.48      0.00
   -6   -1    6     -2.38      0.00
   -6   -1    5      1.46      0.00
   -6   -1    4     -0.45      0.00
   -6   -1    3     -0.77      0.00
   -6   -1    2      1.80      0.00
   -6   -1    1     -2.27      0.00
    6    1    0      2.53      0.00
    6    1    1     -1.34      0.00
    6    1    2     -0.34      0.00
    6    1    3      1.11      0.00
    6    1    4     -1.11      0.00
    6    1    5      1.08      0.00
    6    1    6     -1.22      0.00
    6    1    7      0.43      0.00
    6    1    8      0.24      0.00
    6    1    9     -0.53      0.00
    6    1   10      0.72      0.00
    6    1   11     -0.42      0.00
    6    1   12     -0.19      0.00
    6    1   13      0.42      0.00
    6    1   14     -0.24      0.00
    6    1   15      0.19      0.00
    6    1   16     -0.22      0.00
    6    1   17      0.22      0.00
    6    1   18      0.68      0.00
   -6   -2   22     -0.13      0.00
   -6   -2   21      0.41      0.00
   -6   -2   20     -0.18      0.00
   -6   -2   19      0.43      0.00
   -6   -2   18     -0.30      0.00
   -6   -2   17     -0.47      0.00
   -6   -2   16      0.57      0.00
   -6   -2   15     -0.66      0.00
   -6   -2   14      0.34      0.00
   -6   -2   13     -0.66      0.00
   -6   -2   12      0.20      0.00
   -6   -2   11      0.87      0.00
   -6   -2   10     -1.32      0.00
   -6   -2    9      1.96      0.00
   -6   -2    8     -1.06      0.00
   -6   -2    7     -0.12      0.00
   -6   -2    6      1.02      0.00
   -6   -2    5     -1.63      0.00
   -6   -2    4      2.19      0.00
   -6   -2    3     -2.43      0.00
   -6   -2    2      1.82      0.00
   -6   -2    1     -0.62      0.00
    6    2    0     -1.41      0.00
    6    2    1      2.22      0.00
    6    2    3      0.77      0.00
    6    2    4     -0.52      0.00
    6    2    5      0.18      0.00
    6    2    6      0.83      0.00
    6    2    7     -1.02      0.00
    6    2    8      0.81      0.00
    6    2    9     -0.58      0.00
    6    2   10     -0.14      0.00
    6    2   11      0.35      0.00
    6    2   12     -0.10      0.00
    6    2   13     -0.09      0.00
    6    2   14      0.18      0.00
    6    2   15     -0.49      0.00
    6    2   16      0.58      0.00
    6    2   17     -0.53      0.00
    6    2   18     -0.47      0.00
   -6   -3   22     -0.04      0.00
   -6   -3   21     -0.07      0.00
   -6   -3   20     -0.07      0.00
   -6   -3   19     -0.38      0.00
   -6   -3   18      0.91      0.00
   -6   -3   17     -0.35      0.00
   -6   -3   16      0.05      0.00
   -6   -3   15      0.19      0.00
   -6   -3   14     -0.21      0.00
   -6   -3   13      0.70      0.00
   -6   -3   12     -1.06      0.00
   -6   -3   11      0.57      0.00
   -6   -3   10     -0.36      0.00
   -6   -3    9     -0.91      0.00
   -6   -3    8      1.42      0.00
   -6   -3    7     -1.40      0.00
   -6   -3    6      1.50      0.00
   -6   -3    5     -1.32      0.00
   -6   -3    4      0.65      0.00
   -6   -3    3      0.95      0.00
   -6   -3    2     -2.36      0.00
   -6   -3    1      3.06      0.00
    6    3    0     -1.79      0.00
    6    3    1      0.15      0.00
    6    3    2      0.29      0.00
    6    3    3     -0.56      0.00
    6    3    4      0.97      0.00
    6    3    5     -1.36      0.00
    6    3    6      0.73      0.00
    6    3    7     -0.21      0.00
    6    3    8     -0.08      0.00
    6    3    9      0.59      0.00
    6    3   10     -0.20      0.00
    6    3   11     -0.10      0.00
    6    3   12      0.17      0.00
    6    3   13     -0.36      0.00
    6    3   14      0.43      0.00
    6    3   15      0.08      0.00
    6    3   16     -0.62      0.00
    6    3   17      0.90      0.00
   -6   -4   22     -0.11      0.00
   -6   -4   21      0.05      0.00
   -6   -4   20      0.35      0.00
   -6   -4   19     -0.24      0.00
   -6   -4   18     -0.59      0.00
   -6   -4   17      0.61      0.00
   -6   -4   16     -0.45      0.00
   -6   -4   15      0.41      0.00
   -6   -4   14     -0.40      0.00
   -6   -4   13      0.31      0.00
   -6   -4   12      0.23      0.00
   -6   -4   11     -0.38      0.00
   -6   -4   10      1.15      0.00
   -6   -4    9     -0.88      0.00
   -6   -4    8      0.42      0.00
   -6   -4    7     -0.18      0.00
   -6   -4    6     -0.71      0.00
   -6   -4    5      1.65      0.00
   -6   -4    4     -2.74      0.00
   -6   -4    3      2.50      0.00
   -6   -4    1     -0.88      0.00
    6    4    1     -1.22      0.00
    6    4    2      1.22      0.00
    6    4    3     -0.92      0.00
    6    4    4      0.37      0.00
    6    4    5      0.44      0.00
    6    4    6     -0.64      0.00
    6    4    7      0.63      0.00
    6    4    8     -0.83      0.00
    6    4    9      0.19      0.00
    6    4   10     -0.02      0.00
    6    4   11      0.03      0.00
    6    4   12     -0.04      0.00
    6    4   13      0.52      0.00
    6    4   14     -0.94      0.00
    6    4   15      0.77      0.00
    6    4   16     -0.15      0.00
    6    4   17     -0.51      0.00
   -6   -5   22      0.16      0.00
   -6   -5   21     -0.25      0.00
   -6   -5   20     -0.15      0.00
   -6   -5   19      0.57      0.00
   -6   -5   18     -0.16      0.00
   -6   -5   17     -0.21      0.00
   -6   -5   16      0.18      0.00
   -6   -5   15     -0.27      0.00
   -6   -5   14      0.18      0.00
   -6   -5   13     -0.55      0.00
   -6   -5   12      0.67      0.00
   -6   -5   11     -0.86      0.00
   -6   -5   10      0.13      0.00
   -6   -5    9      0.55      0.00
   -6   -5    8     -0.87      0.00
   -6   -5    7      1.52      0.00
   -6   -5    6     -1.34      0.00
   -6   -5    5      1.01      0.00
   -6   -5    4      0.46      0.00
   -6   -5    3     -1.95      0.00
   -6   -5    2      2.51      0.00
   -6   -5    1     -1.82      0.00
    6    5    0      0.77      0.00
    6    5    2     -0.42      0.00
    6    5    3      0.82      0.00
    6    5    4     -0.80      0.00
    6    5    5      0.54      0.00
    6    5    6     -0.41      0.00
    6    5    7      0.45      0.00
    6    5    8      0.32      0.00
    6    5    9     -0.38      0.00
    6    5   10      0.06      0.00
    6    5   11      0.26      0.00
    6    5   12     -0.51      0.00
    6    5   13      0.01      0.00
    6    5   14      0.53      0.00
    6    5   15     -0.76      0.00
    6    5   16      0.64      0.00
    6    5   17     -0.22      0.00
   -6   -6   22      0.11      0.00
   -6   -6   21      0.16      0.00
   -6   -6   20     -0.15      0.00
   -6   -6   19     -0.28      0.00
   -6   -6   18      0.57      0.00
   -6   -6   17     -0.23      0.00
   -6   -6   16      0.18      0.00
   -6   -6   15     -0.05      0.00
   -6   -6   14      0.43      0.00
   -6   -6   13     -0.37      0.00
   -6   -6   12     -0.06      0.00
   -6   -6   11      0.73      0.00
   -6   -6   10     -1.04      0.00
   -6   -6    9      0.68      0.00
   -6   -6    8     -0.38      0.00
   -6   -6    7     -0.52      0.00
   -6   -6    6      0.93      0.00
   -6   -6    5     -1.78      0.00
   -6   -6    4      2.02      0.00
   -6   -6    3     -1.10      0.00
   -6   -6    2      0.00      0.00
   -6   -6    1      0.86      0.00
    6    6    1      1.33      0.00
    6    6    3      0.17      0.00
    6    6    5     -0.01      0.00
    6    6    6      0.18      0.00
    6    6    7     -0.99      0.00
    6    6    8      0.62      0.00
    6    6    9      0.10      0.00
    6    6   10     -0.08      0.00
    6    6   11     -0.40      0.00
    6    6   12      0.93      0.00
    6    6   13     -0.61      0.00
    6    6   14      0.30      0.00
    6    6   15     -0.22      0.00
    6    6   16      0.01      0.00
   -6   -7   22     -0.22      0.00
   -6   -7   21      0.12      0.00
   -6   -7   20      0.14      0.00
   -6   -7   19     -0.24      0.00
   -6   -7   18     -0.44      0.00
   -6   -7   17      0.39      0.00
   -6   -7   16     -0.26      0.00
   -6   -7   15      0.02      0.00
   -6   -7   14     -0.31      0.00
   -6   -7   13      0.79      0.00
   -6   -7   12     -0.75      0.00
   -6   -7   11      0.53      0.00
   -6   -7   10      0.25      0.00
   -6   -7    9     -0.54      0.00
   -6   -7    8      0.78      0.00
   -6   -7    7     -0.54      0.00
   -6   -7    6      0.71      0.00
   -6   -7    5     -0.29      0.00
   -6   -7    4     -1.00      0.00
   -6   -7    3      1.54      0.00
   -6   -7    2     -1.74      0.00
   -6   -7    1      1.23      0.00
    6    7    0     -0.61      0.00
    6    7    1     -0.22      0.00
    6    7    2      0.40      0.00
    6    7    3     -0.11      0.00
    6    7    4      0.20      0.00
    6    7    5     -0.50      0.00
    6    7    6      0.87      0.00
    6    7    7      0.18      0.00
    6    7    8     -0.80      0.00
    6    7    9      0.04      0.00
    6    7   10      0.36      0.00
    6    7   11     -0.02      0.00
    6    7   12     -0.54      0.00
    6    7   13      0.28      0.00
    6    7   14     -0.16      0.00
    6    7   15      0.57      0.00
    6    7   16     -0.71      0.00
   -6   -8   21     -0.18      0.00
   -6   -8   20      0.10      0.00
   -6   -8   19      0.59      0.00
   -6   -8   18     -0.04      0.00
   -6   -8   17     -0.23      0.00
   -6   -8   16      0.13      0.00
   -6   -8   15      0.03      0.00
   -6   -8   14     -0.19      0.00
   -6   -8   13     -0.23      0.00
   -6   -8   12      0.32      0.00
   -6   -8   11     -0.75      0.00
   -6   -8   10      0.53      0.00
   -6   -8    9     -0.29      0.00
   -6   -8    8      0.13      0.00
   -6   -8    7     -0.02      0.00
   -6   -8    6     -0.64      0.00
   -6   -8    5      1.58      0.00
   -6   -8    4     -1.10      0.00
   -6   -8    3      0.49      0.00
   -6   -8    2      0.43      0.00
   -6   -8    1     -1.00      0.00
    6    8    0      1.00      0.00
    6    8    1     -0.60      0.00
    6    8    2      0.18      0.00
    6    8    3     -0.30      0.00
    6    8    4      0.43      0.00
    6    8    5     -0.11      0.00
    6    8    6     -1.10      0.00
    6    8    7      0.82      0.00
    6    8    8      0.36      0.00
    6    8    9     -0.05      0.00
    6    8   10     -0.45      0.00
    6    8   11      0.25      0.00
    6    8   12      0.10      0.00
    6    8   13      0.39      0.00
    6    8   14     -0.77      0.00
    6    8   15      0.26      0.00
   -6   -9   21     -0.01      0.00
   -6   -9   20     -0.34      0.00
   -6   -9   19     -0.51      0.00
   -6   -9   18      0.41      0.00
   -6   -9   17     -0.06      0.00
   -6   -9   16      0.27      0.00
   -6   -9   15     -0.04      0.00
   -6   -9   14      0.26      0.00
   -6   -9   13     -0.10      0.00
   -6   -9   12      0.34      0.00
   -6   -9   11     -0.14      0.00
   -6   -9   10     -0.07      0.00
   -6   -9    9      0.13      0.00
   -6   -9    8     -0.60      0.00
   -6   -9    7      0.86      0.00
   -6   -9    6     -0.70      0.00
   -6   -9    5     -0.56      0.00
   -6   -9    4      1.10      0.00
   -6   -9    3     -1.31      0.00
   -6   -9    2      1.11      0.00
   -6   -9    1     -0.43      0.00
    6    9    0      0.07      0.00
    6    9    1      0.20      0.00
    6    9    2      0.01      0.00
    6    9    3     -0.07      0.00
    6    9    4     -0.44      0.00
    6    9    5      0.86      0.00
    6    9    6      0.37      0.00
    6    9    7     -1.05      0.00
    6    9    8      0.11      0.00
    6    9    9     -0.12      0.00
    6    9   10      0.43      0.00
    6    9   11      0.02      0.00
    6    9   12     -0.44      0.00
    6    9   13     -0.18      0.00
    6    9   14      0.92      0.00
    6    9   15     -0.77      0.00
   -6  -10   21      0.20      0.00
   -6  -10   20      0.38      0.00
   -6  -10   19      0.09      0.00
   -6  -10   18     -0.26      0.00
   -6  -10   17     -0.06      0.00
   -6  -10   16     -0.61      0.00
   -6  -10   15      0.35      0.00
   -6  -10   14     -0.26      0.00
   -6  -10   13     -0.02      0.00
   -6  -10   12     -0.07      0.00
   -6  -10   11      0.48      0.00
   -6  -10   10     -0.54      0.00
   -6  -10    9      0.70      0.00
   -6  -10    8      0.00      0.00
   -6  -10    7     -0.61      0.00
   -6  -10    6      1.12      0.00
   -6  -10    5     -0.68      0.00
   -6  -10    4      0.19      0.00
   -6  -10    3      0.12      0.00
   -6  -10    2     -0.66      0.00
   -6  -10    1      0.66      0.00
    6   10    0     -0.65      0.00
    6   10    1      0.21      0.00
    6   10    2     -0.08      0.00
    6   10    3      0.47      0.00
    6   10    4     -0.13      0.00
    6   10    5     -0.88      0.00
    6   10    6      0.39      0.00
    6   10    7      0.51      0.00
    6   10    8      0.01      0.00
    6   10    9      0.19      0.00
    6   10   10     -0.66      0.00
    6   10   11      0.00      0.00
    6   10   12      0.81      0.00
    6   10   13     -0.47      0.00
    6   10   14     -0.23      0.00
   -6  -11   21     -0.26      0.00
   -6  -11   20     -0.11      0.00
   -6  -11   19      0.11      0.00
   -6  -11   18     -0.08      0.00
   -6  -11   17      0.71      0.00
   -6  -11   16      0.19      0.00
   -6  -11   15     -0.45      0.00
   -6  -11   14      0.36      0.00
   -6  -11   13     -0.20      0.00
   -6  -11   12     -0.34      0.00
   -6  -11   11      0.01      0.00
   -6  -11   10      0.33      0.00
   -6  -11    9     -0.92      0.00
   -6  -11    8      0.60      0.00
   -6  -11    7     -0.11      0.00
   -6  -11    6     -0.32      0.00
   -6  -11    5      0.51      0.00
   -6  -11    4     -0.48      0.00
   -6  -11    3      0.81      0.00
   -6  -11    2     -0.53      0.00
   -6  -11    1      0.21      0.00
    6   11    0      0.27      0.00
    6   11    1     -0.13      0.00
    6   11    2     -0.26      0.00
    6   11    3     -0.17      0.00
    6   11    4      0.31      0.00
    6   11    5      0.53      0.00
    6   11    6     -0.53      0.00
    6   11    7     -0.05      0.00
    6   11    8     -0.60      0.00
    6   11    9      0.36      0.00
    6   11   10      0.60      0.00
    6   11   11     -0.27      0.00
    6   11   12     -0.63      0.00
    6   11   13      0.58      0.00
   -6  -12   19      0.14      0.00
   -6  -12   18     -0.10      0.00
   -6  -12   17     -0.93      0.00
   -6  -12   16      0.56      0.00
   -6  -12   15     -0.06      0.00
   -6  -12   14      0.12      0.00
   -6  -12   13      0.38      0.00
   -6  -12   12      0.22      0.00
   -6  -12   11     -0.33      0.00
   -6  -12   10      0.12      0.00
   -6  -12    9      0.42      0.00
   -6  -12    8     -0.54      0.00
   -6  -12    7      0.26      0.00
   -6  -12    6     -0.33      0.00
   -6  -12    5      0.30      0.00
   -6  -12    4     -0.37      0.00
   -6  -12    3     -0.22      0.00
   -6  -12    2      0.65      0.00
   -6  -12    1     -0.65      0.00
    6   12    0      0.13      0.00
    6   12    1      0.11      0.00
    6   12    2      0.27      0.00
    6   12    3     -0.11      0.00
    6   12    4     -0.08      0.00
    6   12    5     -0.35      0.00
    6   12    6      0.21      0.00
    6   12    7      0.38      0.00
    6   12    8      0.51      0.00
    6   12    9     -0.82      0.00
    6   12   10     -0.16      0.00
    6   12   11      0.25      0.00
    6   12   12      0.40      0.00
    6   12   13     -0.45      0.00
   -6  -13   18      0.48      0.00
   -6  -13   17      0.29      0.00
   -6  -13   16     -0.44      0.00
   -6  -13   15      0.16      0.00
   -6  -13   14     -0.79      0.00
   -6  -13   13      0.13      0.00
   -6  -13   12     -0.16      0.00
   -6  -13   11      0.38      0.00
   -6  -13   10     -0.20      0.00
   -6  -13    9      0.09      0.00
   -6  -13    8      0.13      0.00
   -6  -13    7      0.14      0.00
   -6  -13    6      0.10      0.00
   -6  -13    5     -0.37      0.00
   -6  -13    4      0.78      0.00
   -6  -13    3     -0.74      0.00
   -6  -13    2      0.16      0.00
   -6  -13    1      0.28      0.00
    6   13    0     -0.11      0.00
    6   13    1     -0.25      0.00
    6   13    2      0.17      0.00
    6   13    3     -0.24      0.00
    6   13    4      0.09      0.00
    6   13    5      0.38      0.00
    6   13    6     -0.18      0.00
    6   13    7     -0.79      0.00
    6   13    8      0.31      0.00
    6   13    9      0.40      0.00
    6   13   10      0.18      0.00
    6   13   11     -0.32      0.00
    6   13   12     -0.15      0.00
   -6  -14   18     -0.26      0.00
   -6  -14   17      0.12      0.00
   -6  -14   16     -0.18      0.00
   -6  -14   15      0.69      0.00
   -6  -14   14      0.43      0.00
   -6  -14   13     -0.51      0.00
   -6  -14   12      0.27      0.00
   -6  -14   11     -0.46      0.00
   -6  -14   10      0.07      0.00
   -6  -14    9     -0.28      0.00
   -6  -14    8      0.21      0.00
   -6  -14    7     -0.44      0.00
   -6  -14    6      0.43      0.00
   -6  -14    5     -0.21      0.00
   -6  -14    4     -0.09      0.00
   -6  -14    3      0.61      0.00
   -6  -14    2     -0.54      0.00
   -6  -14    1      0.06      0.00
    6   14    0      0.07      0.00
    6   14    1      0.11      0.00
    6   14    2     -0.30      0.00
    6   14    3      0.70      0.00
    6   14    4     -0.47      0.00
    6   14    5     -0.23      0.00
    6   14    6      0.44      0.00
    6   14    7      0.36      0.00
    6   14    8     -0.52      0.00
    6   14    9     -0.01      0.00
    6   14   10     -0.37      0.00
    6   14   11      0.56      0.00
   -6  -15   18     -0.20      0.00
   -6  -15   17      0.30      0.00
   -6  -15   16      0.01      0.00
   -6  -15   15     -1.17      0.00
   -6  -15   14      0.56      0.00
   -6  -15   13      0.15      0.00
   -6  -15   12     -0.04      0.00
   -6  -15   11      0.33      0.00
   -6  -15   10      0.23      0.00
   -6  -15    9      0.05      0.00
   -6  -15    8     -0.31      0.00
   -6  -15    7      0.37      0.00
   -6  -15    6     -0.49      0.00
   -6  -15    5      0.38      0.00
   -6  -15    4     -0.63      0.00
   -6  -15    3      0.22      0.00
   -6  -15    2      0.20      0.00
   -6  -15    1      0.06      0.00
    6   15    0     -0.32      0.00
    6   15    1      0.39      0.00
    6   15    2     -0.24      0.00
    6   15    3     -0.51      0.00
    6   15    4      0.62      0.00
    6   15    5     -0.14      0.00
    6   15    6     -0.24      0.00
    6   15    7      0.14      0.00
    6   15    8      0.05      0.00
    6   15    9      0.30      0.00
    6   15   10     -0.06      0.00
   -6  -16   17     -0.63      0.00
   -6  -16   16      0.67      0.00
   -6  -16   15      0.55      0.00
   -6  -16   14     -0.82      0.00
   -6  -16   13      0.12      0.00
   -6  -16   12     -0.20      0.00
   -6  -16   11     -0.10      0.00
   -6  -16   10     -0.57      0.00
   -6  -16    9      0.53      0.00
   -6  -16    8      0.12      0.00
   -6  -16    7     -0.11      0.00
   -6  -16    6      0.16      0.00
   -6  -16    5      0.13      0.00
   -6  -16    4      0.36      0.00
   -6  -16    3     -0.53      0.00
   -6  -16    2     -0.04      0.00
   -6  -16    1     -0.03      0.00
    6   16    0      0.39      0.00
    6   16    1     -0.72      0.00
    6   16    2      0.87      0.00
    6   16    3     -0.15      0.00
    6   16    4     -0.18      0.00
    6   16    5      0.09      0.00
    6   16    6     -0.22      0.00
    6   16    7      0.07      0.00
    6   16    8     -0.06      0.00
   -6  -17   12     -0.05      0.00
   -6  -17   11      0.27      0.00
   -6  -17    9     -0.90      0.00
   -6  -17    8      0.16      0.00
   -6  -17    7     -0.05      0.00
   -6  -17    5     -0.54      0.00
   -6  -17    4      0.35      0.00
   -6  -17    3      0.24      0.00
   -6  -17    2      0.32      0.00
   -6  -17    1     -0.55      0.00
    6   17    0      0.20      0.00
    6   17    1      0.33      0.00
    6   17    2     -0.84      0.00
    6   17    3      0.45      0.00
    6   17    4     -0.25      0.00
    6   17    5      0.40      0.00
    6   17    6      0.11      0.00
    6   17    7     -0.21      0.00
   -6  -18   12      0.23      0.00
   -6  -18   11     -0.53      0.00
   -6  -18   10      0.21      0.00
   -6  -18    9      0.64      0.00
   -6  -18    8     -0.19      0.00
   -6  -18    6      0.23      0.00
   -6  -18    5      0.28      0.00
   -6  -18    4     -0.57      0.00
   -6  -18    3     -0.16      0.00
   -6  -18    2     -0.23      0.00
   -6  -18    1      0.88      0.00
    6   18    0     -0.90      0.00
    6   18    1      0.45      0.00
    6   18    2      0.24      0.00
    6   18    3     -0.17      0.00
    6   18    4      0.05      0.00
    6   18    5     -0.47      0.00
    6   18    6      0.21      0.00
    6   18    7     -0.14      0.00
   -6  -19   10     -0.45      0.00
   -6  -19    8      0.11      0.00
   -6  -19    6     -0.43      0.00
   -6  -19    5      0.27      0.00
   -6  -19    4      0.33      0.00
   -6  -19    3      0.34      0.00
   -6  -19    1     -0.29      0.00
    6   19    0      0.77      0.00
    6   19    1     -0.76      0.00
    6   19    2      0.19      0.00
    6   19    3     -0.05      0.00
    6   19    4      0.21      0.00
    6   19    5      0.01      0.00
   -6  -20    8     -0.15      0.00
   -6  -20    7      0.09      0.00
   -6  -20    6      0.23      0.00
   -6  -20    3     -0.23      0.00
    6   20    1      0.43      0.00
    6   20    2     -0.21      0.00
    6   20    3     -0.05      0.00
   -6  -21    4      0.01      0.00
    6   21    0     -0.36      0.00
   -7   17   14      0.88      0.00
   -7   17   13     -1.19      0.00
   -7   17   12      0.07      0.00
   -7   17   10      0.21      0.00
   -7   16   15     -1.27      0.00
   -7   16   14      0.09      0.00
   -7   16   13      1.24      0.00
   -7   16   12     -0.17      0.00
   -7   16   11      0.22      0.00
   -7   16   10     -0.74      0.00
   -7   16    9      0.55      0.00
   -7   16    8      0.07      0.00
   -7   16    5      0.06      0.00
   -7   15   17     -0.45      0.00
   -7   15   16     -0.36      0.00
   -7   15   15      1.64      0.00
   -7   15   14     -1.33      0.00
   -7   15   13     -0.46      0.00
   -7   15   12     -0.27      0.00
   -7   15   11      0.69      0.00
   -7   15   10      0.17      0.00
   -7   15    9     -0.41      0.00
   -7   15    8      0.19      0.00
   -7   15    7      0.03      0.00
   -7   15    6      0.20      0.00
   -7   15    5     -0.05      0.00
   -7   14   15     -0.53      0.00
   -7   14   14      1.22      0.00
   -7   14   13      0.19      0.00
   -7   14   12      0.03      0.00
   -7   14   11     -1.06      0.00
   -7   14   10      0.53      0.00
   -7   14    9     -0.38      0.00
   -7   14    8      0.36      0.00
   -7   14    7     -0.33      0.00
   -7   14    6      0.04      0.00
   -7   14    5     -0.07      0.00
   -7   14    4     -0.05      0.00
   -7   13   17     -0.93      0.00
   -7   13   16      1.24      0.00
   -7   13   15     -0.62      0.00
   -7   13   14     -0.15      0.00
   -7   13   13     -0.53      0.00
   -7   13   12      0.89      0.00
   -7   13   11      0.16      0.00
   -7   13   10      0.04      0.00
   -7   13    9      0.19      0.00
   -7   13    8     -0.63      0.00
   -7   13    7      0.66      0.00
   -7   13    6     -0.43      0.00
   -7   13    5      0.30      0.00
   -7   13    4     -0.26      0.00
   -7   13    3     -0.08      0.00
   -7   12   17     -0.18      0.00
   -7   12   16     -0.23      0.00
   -7   12   15      0.19      0.00
   -7   12   14     -0.17      0.00
   -7   12   13      0.39      0.00
   -7   12   12     -1.03      0.00
   -7   12   11      0.44      0.00
   -7   12   10     -0.81      0.00
   -7   12    9      0.87      0.00
   -7   12    8     -0.07      0.00
   -7   12    7     -0.23      0.00
   -7   12    6      0.36      0.00
   -7   12    5     -0.32      0.00
   -7   12    4      0.36      0.00
   -7   12    3     -0.32      0.00
   -7   12    2      0.23      0.00
   -7   11   17      0.29      0.00
   -7   11   16     -0.44      0.00
   -7   11   15      0.93      0.00
   -7   11   14     -0.43      0.00
   -7   11   13      0.29      0.00
   -7   11   12      0.24      0.00
   -7   11   11      0.08      0.00
   -7   11   10      0.29      0.00
   -7   11    9     -1.03      0.00
   -7   11    8      0.54      0.00
   -7   11    7     -0.39      0.00
   -7   11    6      0.19      0.00
   -7   11    5     -0.02      0.00
   -7   11    4     -0.03      0.00
   -7   11    3      0.23      0.00
   -7   11    2     -0.68      0.00
   -7   11    1      0.69      0.00
    7  -11   10     -0.14      0.00
    7  -11   11      0.01      0.00
   -7   10   18     -0.46      0.00
   -7   10   17      0.51      0.00
   -7   10   16     -0.33      0.00
   -7   10   15     -0.91      0.00
   -7   10   14      0.72      0.00
   -7   10   13     -0.62      0.00
   -7   10   12      0.28      0.00
   -7   10   11     -0.49      0.00
   -7   10   10      0.64      0.00
   -7   10    9      0.19      0.00
   -7   10    8      0.01      0.00
   -7   10    7      0.21      0.00
   -7   10    6     -0.45      0.00
   -7   10    5      0.37      0.00
   -7   10    4     -0.50      0.00
   -7   10    3      0.40      0.00
   -7   10    2      0.22      0.00
   -7   10    1     -0.99      0.00
    7  -10    1     -0.34      0.00
    7  -10    5      0.66      0.00
    7  -10    6     -0.60      0.00
    7  -10    7      0.48      0.00
    7  -10    8     -0.09      0.00
    7  -10    9     -0.37      0.00
    7  -10   10      0.26      0.00
    7  -10   11      0.17      0.00
    7  -10   12      0.02      0.00
    7  -10   13     -0.07      0.00
   -7    9   19      0.41      0.00
   -7    9   18      0.09      0.00
   -7    9   17     -0.49      0.00
   -7    9   16      1.11      0.00
   -7    9   15     -0.08      0.00
   -7    9   14     -0.22      0.00
   -7    9   13      0.33      0.00
   -7    9   12     -0.19      0.00
   -7    9   11      0.07      0.00
   -7    9   10     -0.63      0.00
   -7    9    9      0.18      0.00
   -7    9    8     -0.59      0.00
   -7    9    7      0.58      0.00
   -7    9    6      0.02      0.00
   -7    9    5     -0.21      0.00
   -7    9    4      0.71      0.00
   -7    9    3     -0.94      0.00
   -7    9    2      0.76      0.00
   -7    9    1      0.10      0.00
   -7    9    0     -0.68      0.00
    7   -9    2     -0.37      0.00
    7   -9    3      0.52      0.00
    7   -9    4     -0.62      0.00
    7   -9    5      0.20      0.00
    7   -9    6      0.15      0.00
    7   -9    7     -0.75      0.00
    7   -9    8      0.79      0.00
    7   -9    9     -0.10      0.00
    7   -9   10     -0.15      0.00
    7   -9   11     -0.30      0.00
    7   -9   12      0.37      0.00
    7   -9   13     -0.24      0.00
   -7    8   20      0.25      0.00
   -7    8   19     -0.56      0.00
   -7    8   18      0.34      0.00
   -7    8   17     -0.38      0.00
   -7    8   16     -0.58      0.00
   -7    8   15      0.51      0.00
   -7    8   14     -0.30      0.00
   -7    8   13      0.07      0.00
   -7    8   12      0.06      0.00
   -7    8   11      0.44      0.00
   -7    8   10      0.02      0.00
   -7    8    9      0.27      0.00
   -7    8    8      0.27      0.00
   -7    8    7     -0.95      0.00
   -7    8    6      0.64      0.00
   -7    8    5     -0.54      0.00
   -7    8    4     -0.18      0.00
   -7    8    3      0.66      0.00
   -7    8    2     -1.01      0.00
   -7    8    1      0.92      0.00
   -7    8    0     -0.34      0.00
    7   -8    1      0.13      0.00
    7   -8    2      0.00      0.00
    7   -8    3     -0.11      0.00
    7   -8    4      0.50      0.00
    7   -8    5     -0.78      0.00
    7   -8    6      0.87      0.00
    7   -8    7     -0.11      0.00
    7   -8    8     -0.60      0.00
    7   -8    9      0.26      0.00
    7   -8   10      0.08      0.00
    7   -8   11      0.23      0.00
    7   -8   12     -0.51      0.00
    7   -8   13      0.50      0.00
    7   -8   14     -0.20      0.00
    7   -8   15     -0.10      0.00
   -7    7   20      0.22      0.00
   -7    7   19      0.07      0.00
   -7    7   18      0.19      0.00
   -7    7   17      0.48      0.00
   -7    7   16     -0.31      0.00
   -7    7   15     -0.08      0.00
   -7    7   14      0.23      0.00
   -7    7   13     -0.14      0.00
   -7    7   12     -0.24      0.00
   -7    7   11     -0.43      0.00
   -7    7   10      0.23      0.00
   -7    7    9     -0.66      0.00
   -7    7    8      0.64      0.00
   -7    7    7      0.32      0.00
   -7    7    6     -0.53      0.00
   -7    7    5      1.06      0.00
   -7    7    4     -0.68      0.00
   -7    7    3      0.35      0.00
   -7    7    2     -0.08      0.00
   -7    7    1     -0.62      0.00
   -7    7    0      0.69      0.00
    7   -7    1     -0.76      0.00
    7   -7    2      0.58      0.00
    7   -7    3     -0.62      0.00
    7   -7    4      0.50      0.00
    7   -7    5      0.14      0.00
    7   -7    6     -0.90      0.00
    7   -7    7      0.83      0.00
    7   -7    8     -0.17      0.00
    7   -7    9      0.25      0.00
    7   -7   10     -0.42      0.00
    7   -7   11      0.17      0.00
    7   -7   12      0.19      0.00
    7   -7   13     -0.38      0.00
    7   -7   14      0.17      0.00
    7   -7   15      0.31      0.00
    7   -7   16      0.09      0.00
   -7    6   20     -0.08      0.00
   -7    6   19     -0.16      0.00
   -7    6   18     -0.67      0.00
   -7    6   17      0.36      0.00
   -7    6   16      0.27      0.00
   -7    6   15     -0.15      0.00
   -7    6   14     -0.02      0.00
   -7    6   13      0.03      0.00
   -7    6   12      0.55      0.00
   -7    6   11      0.03      0.00
   -7    6   10      0.07      0.00
   -7    6    9      0.23      0.00
   -7    6    8     -1.00      0.00
   -7    6    7      0.61      0.00
   -7    6    6     -0.59      0.00
   -7    6    5     -0.26      0.00
   -7    6    4      0.52      0.00
   -7    6    3     -0.65      0.00
   -7    6    2      1.28      0.00
   -7    6    1     -0.70      0.00
   -7    6    0      0.25      0.00
    7   -6    1      0.21      0.00
    7   -6    2     -0.34      0.00
    7   -6    3      0.57      0.00
    7   -6    4     -1.08      0.00
    7   -6    5      0.84      0.00
    7   -6    6     -0.13      0.00
    7   -6    7     -0.27      0.00
    7   -6    8      0.14      0.00
    7   -6    9     -0.50      0.00
    7   -6   10      0.76      0.00
    7   -6   11     -0.58      0.00
    7   -6   12      0.29      0.00
    7   -6   13      0.03      0.00
    7   -6   14     -0.01      0.00
    7   -6   15     -0.60      0.00
    7   -6   16      0.50      0.00
    7   -6   17     -0.29      0.00
   -7    5   21     -0.02      0.00
   -7    5   20     -0.09      0.00
   -7    5   19      0.83      0.00
   -7    5   18      0.01      0.00
   -7    5   17     -0.63      0.00
   -7    5   16      0.12      0.00
   -7    5   15     -0.16      0.00
   -7    5   14      0.25      0.00
   -7    5   13     -0.24      0.00
   -7    5   12     -0.53      0.00
   -7    5   11      0.25      0.00
   -7    5   10     -0.36      0.00
   -7    5    9      0.71      0.00
   -7    5    8      0.10      0.00
   -7    5    7     -0.29      0.00
   -7    5    6      1.06      0.00
   -7    5    5     -0.96      0.00
   -7    5    4      0.73      0.00
   -7    5    3     -0.71      0.00
   -7    5    2     -0.68      0.00
   -7    5    1      0.98      0.00
   -7    5    0     -0.94      0.00
    7   -5    1      0.79      0.00
    7   -5    2     -0.59      0.00
    7   -5    3      0.46      0.00
    7   -5    4      0.38      0.00
    7   -5    5     -0.66      0.00
    7   -5    6      0.53      0.00
    7   -5    7     -0.56      0.00
    7   -5    8      0.76      0.00
    7   -5    9     -0.23      0.00
    7   -5   10     -0.35      0.00
    7   -5   11      0.43      0.00
    7   -5   12     -0.35      0.00
    7   -5   13      0.08      0.00
    7   -5   14      0.10      0.00
    7   -5   15      0.40      0.00
    7   -5   16     -0.67      0.00
    7   -5   18     -0.89      0.00
   -7    4   21      0.24      0.00
   -7    4   20     -0.45      0.00
   -7    4   19     -0.70      0.00
   -7    4   18      0.82      0.00
   -7    4   17     -0.01      0.00
   -7    4   16      0.19      0.00
   -7    4   15      0.13      0.00
   -7    4   14     -0.48      0.00
   -7    4   13      0.67      0.00
   -7    4   12     -0.03      0.00
   -7    4   11     -0.01      0.00
   -7    4   10     -0.08      0.00
   -7    4    9     -0.81      0.00
   -7    4    8      0.79      0.00
   -7    4    7     -1.03      0.00
   -7    4    6      0.35      0.00
   -7    4    5      0.38      0.00
   -7    4    4     -0.75      0.00
   -7    4    3      1.72      0.00
   -7    4    2     -0.90      0.00
   -7    4    1      0.29      0.00
   -7    4    0     -0.06      0.00
    7   -4    1     -0.46      0.00
    7   -4    2      0.67      0.00
    7   -4    3     -1.02      0.00
    7   -4    4      0.57      0.00
    7   -4    5     -0.39      0.00
    7   -4    6      0.48      0.00
    7   -4    7     -0.01      0.00
    7   -4    8     -0.82      0.00
    7   -4    9      0.88      0.00
    7   -4   10     -0.42      0.00
    7   -4   11      0.23      0.00
    7   -4   12     -0.08      0.00
    7   -4   13      0.18      0.00
    7   -4   14     -0.41      0.00
    7   -4   15      0.26      0.00
    7   -4   16     -0.05      0.00
    7   -4   17     -0.50      0.00
    7   -4   18      1.45      0.00
   -7    3   21     -0.13      0.00
   -7    3   20      1.00      0.00
   -7    3   19     -0.39      0.00
   -7    3   18     -0.51      0.00
   -7    3   17      0.29      0.00
   -7    3   16     -0.70      0.00
   -7    3   15      0.47      0.00
   -7    3   14      0.06      0.00
   -7    3   13     -0.54      0.00
   -7    3   12      0.41      0.00
   -7    3   11     -0.24      0.00
   -7    3   10      0.80      0.00
   -7    3    9     -0.32      0.00
   -7    3    8      0.01      0.00
   -7    3    7      0.85      0.00
   -7    3    6     -1.39      0.00
   -7    3    5      1.16      0.00
   -7    3    4     -1.04      0.00
   -7    3    3     -0.33      0.00
   -7    3    2      0.65      0.00
   -7    3    1     -0.65      0.00
   -7    3    0      1.13      0.00
    7   -3    1     -0.77      0.00
    7   -3    2      0.49      0.00
    7   -3    3      0.06      0.00
    7   -3    4     -0.09      0.00
    7   -3    5      0.34      0.00
    7   -3    6     -1.11      0.00
    7   -3    7      1.20      0.00
    7   -3    8     -0.45      0.00
    7   -3    9     -0.19      0.00
    7   -3   10      0.33      0.00
    7   -3   11     -0.43      0.00
    7   -3   12      0.36      0.00
    7   -3   13     -0.45      0.00
    7   -3   14      0.56      0.00
    7   -3   15     -0.62      0.00
    7   -3   16      0.78      0.00
    7   -3   17     -0.67      0.00
    7   -3   18     -0.76      0.00
   -7    2   21     -0.51      0.00
   -7    2   20     -0.53      0.00
   -7    2   19      1.00      0.00
   -7    2   18     -0.33      0.00
   -7    2   17      0.27      0.00
   -7    2   16      0.43      0.00
   -7    2   15     -0.70      0.00
   -7    2   14      0.44      0.00
   -7    2   13     -0.16      0.00
   -7    2   12     -0.11      0.00
   -7    2   11     -0.26      0.00
   -7    2   10     -0.37      0.00
   -7    2    9      0.79      0.00
   -7    2    8     -1.19      0.00
   -7    2    7      1.05      0.00
   -7    2    6     -0.09      0.00
   -7    2    5     -0.50      0.00
   -7    2    4      1.44      0.00
   -7    2    3     -1.18      0.00
   -7    2    2      0.91      0.00
   -7    2    1     -0.92      0.00
   -7    2    0     -0.11      0.00
    7   -2    1      0.50      0.00
    7   -2    2     -0.77      0.00
    7   -2    3      0.85      0.00
    7   -2    4     -1.08      0.00
    7   -2    5      1.07      0.00
    7   -2    6     -0.12      0.00
    7   -2    7     -0.72      0.00
    7   -2    8      1.00      0.00
    7   -2    9     -0.81      0.00
    7   -2   10      0.53      0.00
    7   -2   11     -0.20      0.00
    7   -2   12      0.07      0.00
    7   -2   13      0.24      0.00
    7   -2   14     -0.38      0.00
    7   -2   15      0.41      0.00
    7   -2   16     -0.66      0.00
    7   -2   17      1.18      0.00
    7   -2   18     -0.29      0.00
   -7    1   21      0.89      0.00
   -7    1   20     -0.50      0.00
   -7    1   19     -0.49      0.00
   -7    1   18      0.43      0.00
   -7    1   17     -0.63      0.00
   -7    1   16      0.24      0.00
   -7    1   15      0.19      0.00
   -7    1   14     -0.16      0.00
   -7    1   13      0.35      0.00
   -7    1   12     -0.01      0.00
   -7    1   11      0.69      0.00
   -7    1   10     -0.89      0.00
   -7    1    9      0.50      0.00
   -7    1    8      0.21      0.00
   -7    1    7     -1.36      0.00
   -7    1    6      1.54      0.00
   -7    1    5     -1.48      0.00
   -7    1    4      0.64      0.00
   -7    1    3     -0.03      0.00
   -7    1    2     -0.39      0.00
   -7    1    1      1.35      0.00
   -7    1    0     -1.18      0.00
    7   -1    1      0.96      0.00
    7   -1    2     -0.67      0.00
    7   -1    3      0.09      0.00
    7   -1    4      0.66      0.00
    7   -1    5     -1.36      0.00
    7   -1    6      1.30      0.00
    7   -1    7     -0.95      0.00
    7   -1    8      0.24      0.00
    7   -1    9      0.36      0.00
    7   -1   10     -0.63      0.00
    7   -1   11      0.59      0.00
    7   -1   12     -0.65      0.00
    7   -1   13      0.32      0.00
    7   -1   14     -0.01      0.00
    7   -1   15     -0.04      0.00
    7   -1   16      0.13      0.00
    7   -1   17     -0.70      0.00
    7   -1   18      0.61      0.00
   -7    0   21     -0.47      0.00
   -7    0   20      0.87      0.00
   -7    0   19     -0.19      0.00
   -7    0   18      0.09      0.00
   -7    0   17      0.18      0.00
   -7    0   16     -0.30      0.00
   -7    0   15      0.13      0.00
   -7    0   14     -0.40      0.00
   -7    0   13      0.11      0.00
   -7    0   12     -0.58      0.00
   -7    0   11      0.14      0.00
   -7    0   10      0.86      0.00
   -7    0    9     -1.28      0.00
   -7    0    8      1.62      0.00
   -7    0    7     -0.71      0.00
   -7    0    6     -0.21      0.00
   -7    0    5      0.97      0.00
   -7    0    4     -1.30      0.00
   -7    0    3      1.39      0.00
   -7    0    2     -1.55      0.00
   -7    0    1      0.64      0.00
    7    0    0      0.07      0.00
    7    0    1     -0.71      0.00
    7    0    2      1.34      0.00
    7    0    3     -1.30      0.00
    7    0    4      0.83      0.00
    7    0    5     -0.23      0.00
    7    0    6     -0.20      0.00
    7    0    7      0.97      0.00
    7    0    8     -1.12      0.00
    7    0    9      0.66      0.00
    7    0   10     -0.18      0.00
    7    0   11     -0.11      0.00
    7    0   12      0.52      0.00
    7    0   13     -0.57      0.00
    7    0   14      0.35      0.00
    7    0   15     -0.24      0.00
    7    0   16      0.10      0.00
    7    0   17      0.19      0.00
   -7   -1   21     -0.19      0.00
   -7   -1   20     -0.44      0.00
   -7   -1   19      0.18      0.00
   -7   -1   18     -0.26      0.00
   -7   -1   17      0.41      0.00
   -7   -1   16     -0.22      0.00
   -7   -1   15      0.27      0.00
   -7   -1   14      0.23      0.00
   -7   -1   13     -0.13      0.00
   -7   -1   12      0.78      0.00
   -7   -1   11     -1.20      0.00
   -7   -1   10      0.52      0.00
   -7   -1    9     -0.08      0.00
   -7   -1    8     -1.16      0.00
   -7   -1    7      1.55      0.00
   -7   -1    6     -1.28      0.00
   -7   -1    5      1.07      0.00
   -7   -1    4     -0.77      0.00
   -7   -1    3      0.28      0.00
   -7   -1    2      0.93      0.00
   -7   -1    1     -1.48      0.00
    7    1    0      1.46      0.00
    7    1    1     -1.01      0.00
    7    1    2      0.01      0.00
    7    1    3      0.58      0.00
    7    1    4     -0.71      0.00
    7    1    5      0.91      0.00
    7    1    6     -1.32      0.00
    7    1    7      0.64      0.00
    7    1    8      0.18      0.00
    7    1    9     -0.42      0.00
    7    1   10      0.42      0.00
    7    1   11     -0.28      0.00
    7    1   12     -0.02      0.00
    7    1   13      0.31      0.00
    7    1   14     -0.42      0.00
    7    1   15      0.53      0.00
    7    1   16     -0.25      0.00
    7    1   17     -0.05      0.00
   -7   -2   21      0.37      0.00
   -7   -2   20      0.02      0.00
   -7   -2   19      0.26      0.00
   -7   -2   18     -0.25      0.00
   -7   -2   17     -0.35      0.00
   -7   -2   16      0.43      0.00
   -7   -2   15     -0.64      0.00
   -7   -2   14      0.34      0.00
   -7   -2   13     -0.44      0.00
   -7   -2   12      0.11      0.00
   -7   -2   11      0.75      0.00
   -7   -2    9      1.36      0.00
   -7   -2    8     -0.72      0.00
   -7   -2    7     -0.04      0.00
   -7   -2    6      0.06      0.00
   -7   -2    5     -0.55      0.00
   -7   -2    4      1.33      0.00
   -7   -2    3     -2.07      0.00
   -7   -2    2      1.53      0.00
   -7   -2    1     -0.44      0.00
    7    2    0     -0.49      0.00
    7    2    1      1.06      0.00
    7    2    2     -0.86      0.00
    7    2    3      0.58      0.00
    7    2    4     -0.62      0.00
    7    2    5      0.44      0.00
    7    2    6      0.65      0.00
    7    2    7     -0.96      0.00
    7    2    8      0.59      0.00
    7    2    9     -0.36      0.00
    7    2   10      0.01      0.00
    7    2   11      0.07      0.00
    7    2   12     -0.12      0.00
    7    2   13      0.08      0.00
    7    2   14      0.13      0.00
    7    2   15     -0.67      0.00
    7    2   16      0.61      0.00
    7    2   17     -0.20      0.00
   -7   -3   21     -0.14      0.00
   -7   -3   20     -0.10      0.00
   -7   -3   19     -0.39      0.00
   -7   -3   18      0.82      0.00
   -7   -3   17     -0.21      0.00
   -7   -3   16     -0.04      0.00
   -7   -3   15      0.28      0.00
   -7   -3   14     -0.27      0.00
   -7   -3   13      0.41      0.00
   -7   -3   12     -0.72      0.00
   -7   -3   11      0.39      0.00
   -7   -3   10     -0.45      0.00
   -7   -3    9     -0.53      0.00
   -7   -3    8      0.89      0.00
   -7   -3    7     -0.62      0.00
   -7   -3    6      1.31      0.00
   -7   -3    5     -1.59      0.00
   -7   -3    4      1.03      0.00
   -7   -3    3      0.48      0.00
   -7   -3    2     -1.45      0.00
   -7   -3    1      1.45      0.00
    7    3    0     -1.05      0.00
    7    3    1      0.40      0.00
    7    3    2     -0.06      0.00
    7    3    3     -0.15      0.00
    7    3    4      0.56      0.00
    7    3    5     -1.14      0.00
    7    3    6      0.70      0.00
    7    3    7     -0.22      0.00
    7    3    8      0.14      0.00
    7    3    9      0.18      0.00
    7    3   10      0.02      0.00
    7    3   11     -0.05      0.00
    7    3   12      0.17      0.00
    7    3   13     -0.45      0.00
    7    3   14      0.46      0.00
    7    3   15      0.21      0.00
    7    3   16     -0.70      0.00
   -7   -4   21      0.03      0.00
   -7   -4   20      0.40      0.00
   -7   -4   19     -0.03      0.00
   -7   -4   18     -0.80      0.00
   -7   -4   17      0.56      0.00
   -7   -4   16     -0.28      0.00
   -7   -4   15      0.25      0.00
   -7   -4   14     -0.22      0.00
   -7   -4   13      0.39      0.00
   -7   -4   12     -0.06      0.00
   -7   -4   11     -0.24      0.00
   -7   -4   10      1.04      0.00
   -7   -4    9     -0.75      0.00
   -7   -4    8      0.28      0.00
   -7   -4    7     -0.65      0.00
   -7   -4    6     -0.15      0.00
   -7   -4    5      1.25      0.00
   -7   -4    4     -2.08      0.00
   -7   -4    3      1.70      0.00
   -7   -4    2     -0.74      0.00
   -7   -4    1      0.14      0.00
    7    4    0      0.40      0.00
    7    4    1     -0.58      0.00
    7    4    2      0.57      0.00
    7    4    3     -0.44      0.00
    7    4    4      0.44      0.00
    7    4    5      0.04      0.00
    7    4    6     -0.29      0.00
    7    4    7      0.42      0.00
    7    4    8     -0.74      0.00
    7    4    9      0.25      0.00
    7    4   10     -0.18      0.00
    7    4   11      0.19      0.00
    7    4   12     -0.25      0.00
    7    4   13      0.65      0.00
    7    4   14     -0.91      0.00
    7    4   15      0.59      0.00
    7    4   16      0.11      0.00
   -7   -5   21     -0.16      0.00
   -7   -5   20     -0.47      0.00
   -7   -5   19      0.56      0.00
   -7   -5   18      0.20      0.00
   -7   -5   17     -0.36      0.00
   -7   -5   16      0.08      0.00
   -7   -5   15     -0.18      0.00
   -7   -5   14      0.06      0.00
   -7   -5   13     -0.53      0.00
   -7   -5   12      0.90      0.00
   -7   -5   11     -0.86      0.00
   -7   -5   10     -0.05      0.00
   -7   -5    9      0.53      0.00
   -7   -5    8     -0.40      0.00
   -7   -5    7      1.21      0.00
   -7   -5    6     -1.28      0.00
   -7   -5    5      0.87      0.00
   -7   -5    4      0.09      0.00
   -7   -5    3     -0.89      0.00
   -7   -5    2      0.99      0.00
   -7   -5    1     -1.15      0.00
    7    5    0      0.80      0.00
    7    5    1     -0.27      0.00
    7    5    2      0.02      0.00
    7    5    3     -0.19      0.00
    7    5    4     -0.13      0.00
    7    5    5      0.53      0.00
    7    5    6     -0.69      0.00
    7    5    7      0.60      0.00
    7    5    8      0.24      0.00
    7    5    9     -0.08      0.00
    7    5   10     -0.28      0.00
    7    5   11      0.33      0.00
    7    5   12     -0.23      0.00
    7    5   13     -0.25      0.00
    7    5   14      0.55      0.00
    7    5   15     -0.67      0.00
   -7   -6   21      0.27      0.00
   -7   -6   20      0.17      0.00
   -7   -6   19     -0.63      0.00
   -7   -6   18      0.43      0.00
   -7   -6   17     -0.06      0.00
   -7   -6   16      0.27      0.00
   -7   -6   15     -0.17      0.00
   -7   -6   14      0.52      0.00
   -7   -6   13     -0.44      0.00
   -7   -6   12     -0.33      0.00
   -7   -6   11      0.92      0.00
   -7   -6   10     -0.77      0.00
   -7   -6    9      0.27      0.00
   -7   -6    8     -0.40      0.00
   -7   -6    7     -0.15      0.00
   -7   -6    6      0.54      0.00
   -7   -6    5     -1.09      0.00
   -7   -6    4      1.41      0.00
   -7   -6    3     -0.96      0.00
   -7   -6    2      0.67      0.00
   -7   -6    1      0.07      0.00
    7    6    0     -0.41      0.00
    7    6    1      0.10      0.00
    7    6    2      0.10      0.00
    7    6    3      0.47      0.00
    7    6    4     -0.78      0.00
    7    6    5      0.31      0.00
    7    6    6      0.33      0.00
    7    6    7     -0.98      0.00
    7    6    8      0.28      0.00
    7    6    9      0.09      0.00
    7    6   10      0.45      0.00
    7    6   11     -0.82      0.00
    7    6   12      0.83      0.00
    7    6   13     -0.37      0.00
    7    6   14      0.26      0.00
    7    6   15     -0.14      0.00
   -7   -7   21     -0.21      0.00
   -7   -7   20      0.20      0.00
   -7   -7   19      0.09      0.00
   -7   -7   18     -0.50      0.00
   -7   -7   17      0.27      0.00
   -7   -7   16     -0.32      0.00
   -7   -7   15      0.16      0.00
   -7   -7   14     -0.41      0.00
   -7   -7   13      1.02      0.00
   -7   -7   12     -0.70      0.00
   -7   -7   11      0.15      0.00
   -7   -7   10      0.32      0.00
   -7   -7    9     -0.17      0.00
   -7   -7    8      0.34      0.00
   -7   -7    7     -0.46      0.00
   -7   -7    6      0.77      0.00
   -7   -7    5     -0.58      0.00
   -7   -7    4     -0.45      0.00
   -7   -7    3      0.80      0.00
   -7   -7    2     -1.13      0.00
   -7   -7    1      0.76      0.00
    7    7    0     -0.25      0.00
    7    7    1      0.49      0.00
    7    7    2     -0.85      0.00
    7    7    3      0.40      0.00
    7    7    4      0.44      0.00
    7    7    5     -0.76      0.00
    7    7    6      0.65      0.00
    7    7    7      0.38      0.00
    7    7    8     -0.35      0.00
    7    7    9     -0.45      0.00
    7    7   10      0.21      0.00
    7    7   11      0.35      0.00
    7    7   12     -0.50      0.00
    7    7   13      0.10      0.00
    7    7   14     -0.26      0.00
   -7   -8   21      0.04      0.00
   -7   -8   20     -0.27      0.00
   -7   -8   19      0.58      0.00
   -7   -8   18      0.02      0.00
   -7   -8   17     -0.12      0.00
   -7   -8   16      0.07      0.00
   -7   -8   15      0.02      0.00
   -7   -8   14     -0.27      0.00
   -7   -8   13     -0.38      0.00
   -7   -8   12      0.56      0.00
   -7   -8   11     -0.58      0.00
   -7   -8   10      0.26      0.00
   -7   -8    9     -0.26      0.00
   -7   -8    8      0.48      0.00
   -7   -8    7     -0.25      0.00
   -7   -8    6     -0.58      0.00
   -7   -8    5      1.39      0.00
   -7   -8    4     -0.84      0.00
   -7   -8    3      0.43      0.00
   -7   -8    2      0.06      0.00
   -7   -8    1     -0.21      0.00
    7    8    0     -0.18      0.00
    7    8    1     -0.07      0.00
    7    8    2      0.60      0.00
    7    8    3     -0.73      0.00
    7    8    4      0.41      0.00
    7    8    5      0.11      0.00
    7    8    6     -0.93      0.00
    7    8    7      0.36      0.00
    7    8    8      0.32      0.00
    7    8    9      0.36      0.00
    7    8   10     -0.51      0.00
    7    8   11      0.11      0.00
    7    8   12     -0.10      0.00
    7    8   13      0.67      0.00
    7    8   14     -0.56      0.00
   -7   -9   20     -0.06      0.00
   -7   -9   19     -0.71      0.00
   -7   -9   18      0.43      0.00
   -7   -9   17     -0.12      0.00
   -7   -9   16      0.35      0.00
   -7   -9   15     -0.07      0.00
   -7   -9   14      0.48      0.00
   -7   -9   13     -0.32      0.00
   -7   -9   12      0.20      0.00
   -7   -9   11     -0.08      0.00
   -7   -9   10      0.06      0.00
   -7   -9    9     -0.06      0.00
   -7   -9    8     -0.69      0.00
   -7   -9    7      0.97      0.00
   -7   -9    6     -0.45      0.00
   -7   -9    5     -0.65      0.00
   -7   -9    4      0.74      0.00
   -7   -9    3     -0.63      0.00
   -7   -9    2      0.53      0.00
   -7   -9    1     -0.32      0.00
    7    9    0      0.65      0.00
    7    9    1     -0.50      0.00
    7    9    2      0.21      0.00
    7    9    3     -0.06      0.00
    7    9    4     -0.36      0.00
    7    9    5      0.61      0.00
    7    9    6      0.49      0.00
    7    9    7     -0.77      0.00
    7    9    8     -0.09      0.00
    7    9    9     -0.14      0.00
    7    9   10      0.20      0.00
    7    9   11      0.29      0.00
    7    9   12     -0.20      0.00
    7    9   13     -0.62      0.00
   -7  -10   20      0.41      0.00
   -7  -10   19      0.25      0.00
   -7  -10   18     -0.31      0.00
   -7  -10   17     -0.08      0.00
   -7  -10   16     -0.61      0.00
   -7  -10   15      0.24      0.00
   -7  -10   14     -0.21      0.00
   -7  -10   13      0.27      0.00
   -7  -10   12     -0.23      0.00
   -7  -10   11      0.49      0.00
   -7  -10   10     -0.53      0.00
   -7  -10    9      0.75      0.00
   -7  -10    8      0.08      0.00
   -7  -10    7     -0.80      0.00
   -7  -10    6      0.79      0.00
   -7  -10    5     -0.18      0.00
   -7  -10    4     -0.05      0.00
   -7  -10    3     -0.06      0.00
   -7  -10    2     -0.10      0.00
   -7  -10    1      0.08      0.00
    7   10    0     -0.37      0.00
    7   10    1      0.23      0.00
    7   10    2     -0.12      0.00
    7   10    3      0.54      0.00
    7   10    4     -0.17      0.00
    7   10    5     -0.81      0.00
    7   10    6      0.21      0.00
    7   10    7      0.59      0.00
    7   10    8     -0.07      0.00
    7   10    9      0.25      0.00
    7   10   10     -0.24      0.00
    7   10   11     -0.60      0.00
    7   10   12      0.78      0.00
    7   10   13      0.01      0.00
   -7  -11   19      0.07      0.00
   -7  -11   18     -0.03      0.00
   -7  -11   17      0.77      0.00
   -7  -11   16      0.20      0.00
   -7  -11   15     -0.37      0.00
   -7  -11   14      0.02      0.00
   -7  -11   13     -0.12      0.00
   -7  -11   12     -0.22      0.00
   -7  -11   11     -0.13      0.00
   -7  -11   10      0.37      0.00
   -7  -11    9     -0.86      0.00
   -7  -11    8      0.45      0.00
   -7  -11    7      0.29      0.00
   -7  -11    6     -0.36      0.00
   -7  -11    5      0.21      0.00
   -7  -11    4     -0.10      0.00
   -7  -11    3      0.40      0.00
   -7  -11    2     -0.41      0.00
   -7  -11    1      0.31      0.00
    7   11    0      0.04      0.00
    7   11    1      0.16      0.00
    7   11    2     -0.48      0.00
    7   11    3     -0.18      0.00
    7   11    4      0.36      0.00
    7   11    5      0.66      0.00
    7   11    6     -0.61      0.00
    7   11    7     -0.12      0.00
    7   11    8     -0.28      0.00
    7   11    9     -0.09      0.00
    7   11   10      0.50      0.00
    7   11   11      0.33      0.00
    7   11   12     -0.77      0.00
   -7  -12   20      0.06      0.00
   -7  -12   17     -1.02      0.00
   -7  -12   16      0.55      0.00
   -7  -12   15      0.10      0.00
   -7  -12   14      0.32      0.00
   -7  -12   13      0.09      0.00
   -7  -12   12      0.29      0.00
   -7  -12   11     -0.24      0.00
   -7  -12   10     -0.03      0.00
   -7  -12    9      0.42      0.00
   -7  -12    8     -0.48      0.00
   -7  -12    7     -0.11      0.00
   -7  -12    6     -0.02      0.00
   -7  -12    5      0.13      0.00
   -7  -12    4     -0.23      0.00
   -7  -12    3      0.00      0.00
   -7  -12    2      0.35      0.00
   -7  -12    1     -0.37      0.00
    7   12    0     -0.07      0.00
    7   12    1      0.01      0.00
    7   12    2      0.48      0.00
    7   12    3     -0.08      0.00
    7   12    4     -0.29      0.00
    7   12    5     -0.39      0.00
    7   12    6      0.43      0.00
    7   12    7      0.23      0.00
    7   12    8      0.40      0.00
    7   12    9     -0.30      0.00
    7   12   10     -0.43      0.00
    7   12   11     -0.10      0.00
   -7  -13   18      0.59      0.00
   -7  -13   17      0.35      0.00
   -7  -13   16     -0.55      0.00
   -7  -13   15     -0.02      0.00
   -7  -13   14     -0.75      0.00
   -7  -13   13      0.30      0.00
   -7  -13   12     -0.24      0.00
   -7  -13   11      0.35      0.00
   -7  -13   10     -0.04      0.00
   -7  -13    9     -0.02      0.00
   -7  -13    8      0.28      0.00
   -7  -13    7      0.17      0.00
   -7  -13    6     -0.04      0.00
   -7  -13    5     -0.18      0.00
   -7  -13    4      0.32      0.00
   -7  -13    3     -0.52      0.00
   -7  -13    2      0.09      0.00
   -7  -13    1      0.22      0.00
    7   13    0      0.16      0.00
    7   13    1     -0.29      0.00
    7   13    2     -0.05      0.00
    7   13    3     -0.20      0.00
    7   13    4      0.36      0.00
    7   13    5      0.28      0.00
    7   13    6     -0.29      0.00
    7   13    7     -0.63      0.00
    7   13    8      0.14      0.00
    7   13    9      0.21      0.00
    7   13   10      0.45      0.00
   -7  -14   19     -0.02      0.00
   -7  -14   18     -0.44      0.00
   -7  -14   17      0.26      0.00
   -7  -14   16     -0.11      0.00
   -7  -14   15      0.72      0.00
   -7  -14   14      0.44      0.00
   -7  -14   13     -0.65      0.00
   -7  -14   12      0.28      0.00
   -7  -14   11     -0.45      0.00
   -7  -14   10      0.01      0.00
   -7  -14    9     -0.23      0.00
   -7  -14    8      0.01      0.00
   -7  -14    7     -0.16      0.00
   -7  -14    6      0.24      0.00
   -7  -14    5     -0.06      0.00
   -7  -14    4      0.12      0.00
   -7  -14    3      0.42      0.00
   -7  -14    2     -0.34      0.00
   -7  -14    1     -0.18      0.00
    7   14    0     -0.07      0.00
    7   14    1      0.21      0.00
    7   14    2     -0.02      0.00
    7   14    3      0.47      0.00
    7   14    4     -0.62      0.00
    7   14    5     -0.13      0.00
    7   14    6      0.50      0.00
    7   14    7      0.38      0.00
    7   14    8     -0.38      0.00
    7   14    9     -0.07      0.00
   -7  -15   16      0.21      0.00
   -7  -15   15     -1.32      0.00
   -7  -15   14      0.52      0.00
   -7  -15   13      0.40      0.00
   -7  -15   12     -0.07      0.00
   -7  -15   11      0.28      0.00
   -7  -15   10      0.19      0.00
   -7  -15    9      0.23      0.00
   -7  -15    8     -0.36      0.00
   -7  -15    7      0.10      0.00
   -7  -15    6     -0.23      0.00
   -7  -15    5      0.10      0.00
   -7  -15    4     -0.50      0.00
   -7  -15    3      0.07      0.00
   -7  -15    2      0.25      0.00
   -7  -15    1      0.38      0.00
    7   15    0     -0.24      0.00
    7   15    1      0.08      0.00
    7   15    2     -0.38      0.00
    7   15    3     -0.17      0.00
    7   15    4      0.64      0.00
    7   15    5     -0.21      0.00
    7   15    6     -0.36      0.00
    7   15    7      0.04      0.00
    7   15    8      0.10      0.00
   -7  -16   16      0.42      0.00
   -7  -16   15      0.91      0.00
   -7  -16   14     -0.96      0.00
   -7  -16   13     -0.12      0.00
   -7  -16   12     -0.15      0.00
   -7  -16   11      0.07      0.00
   -7  -16   10     -0.62      0.00
   -7  -16    9      0.29      0.00
   -7  -16    8      0.44      0.00
   -7  -16    7     -0.05      0.00
   -7  -16    6      0.06      0.00
   -7  -16    5      0.17      0.00
   -7  -16    4      0.30      0.00
   -7  -16    3     -0.22      0.00
   -7  -16    2     -0.36      0.00
   -7  -16    1     -0.35      0.00
    7   16    0      0.47      0.00
    7   16    1     -0.15      0.00
    7   16    2      0.60      0.00
    7   16    3     -0.40      0.00
    7   16    4     -0.07      0.00
    7   16    5      0.15      0.00
    7   16    6     -0.06      0.00
    7   16    7      0.11      0.00
   -7  -17   15     -0.15      0.00
   -7  -17   14      0.71      0.00
   -7  -17   12     -0.16      0.00
   -7  -17   10      0.64      0.00
   -7  -17    9     -0.86      0.00
   -7  -17    8     -0.15      0.00
   -7  -17    6      0.07      0.00
   -7  -17    5     -0.34      0.00
   -7  -17    4      0.12      0.00
   -7  -17    3      0.08      0.00
   -7  -17    2      0.75      0.00
   -7  -17    1     -0.20      0.00
    7   17    0     -0.35      0.00
    7   17    1     -0.08      0.00
    7   17    2     -0.17      0.00
    7   17    3      0.35      0.00
    7   17    4     -0.36      0.00
    7   17    5      0.41      0.00
   -7  -18   11     -0.47      0.00
   -7  -18   10      0.01      0.00
   -7  -18    9      0.73      0.00
   -7  -18    8      0.00      0.00
   -7  -18    7     -0.02      0.00
   -7  -18    6     -0.03      0.00
   -7  -18    5      0.19      0.00
   -7  -18    4     -0.22      0.00
   -7  -18    3     -0.19      0.00
   -7  -18    2     -0.74      0.00
   -7  -18    1      0.71      0.00
    7   18    0      0.11      0.00
    7   18    1      0.17      0.00
    7   18    2     -0.33      0.00
    7   18    3      0.27      0.00
    7   18    4     -0.04      0.00
    7   18    5     -0.47      0.00
   -7  -19    6     -0.16      0.00
   -7  -19    5      0.15      0.00
   -7  -19    4      0.09      0.00
   -7  -19    3      0.46      0.00
   -7  -19    2      0.16      0.00
   -7  -19    1     -0.65      0.00
    7   19    0     -0.07      0.00
    7   19    1      0.12      0.00
    7   19    2      0.17      0.00
    7   19    3     -0.40      0.00
   -7  -20    5     -0.39      0.00
   -7  -20    3     -0.40      0.00
    7   20    1     -0.34      0.00
   -8   16   15     -0.56      0.00
   -8   16   14     -0.20      0.00
   -8   16   13      0.70      0.00
   -8   16   11      0.30      0.00
   -8   15   16     -0.81      0.00
   -8   15   15      1.09      0.00
   -8   15   14     -0.63      0.00
   -8   15   13     -0.32      0.00
   -8   15    9      0.26      0.00
   -8   15    6      0.32      0.00
   -8   14   16     -0.20      0.00
   -8   14   15     -0.45      0.00
   -8   14   14      0.50      0.00
   -8   14   12      0.11      0.00
   -8   14   11     -0.82      0.00
   -8   14   10      0.34      0.00
   -8   14    8      0.76      0.00
   -8   14    7      0.02      0.00
   -8   14    6     -0.08      0.00
   -8   14    5     -0.18      0.00
   -8   13   17     -1.06      0.00
   -8   13   16      0.77      0.00
   -8   13   15     -0.32      0.00
   -8   13   14      0.19      0.00
   -8   13   13     -0.72      0.00
   -8   13   12      0.90      0.00
   -8   13   11     -0.22      0.00
   -8   13   10      0.50      0.00
   -8   13    9      0.38      0.00
   -8   13    8     -1.00      0.00
   -8   13    7      0.33      0.00
   -8   13    6     -0.26      0.00
   -8   13    5      0.47      0.00
   -8   13    4     -0.41      0.00
   -8   13    3     -0.18      0.00
   -8   13    2      0.57      0.00
   -8   12   18      0.71      0.00
   -8   12   16      0.01      0.00
   -8   12   15     -0.16      0.00
   -8   12   14     -0.22      0.00
   -8   12   13      0.28      0.00
   -8   12   12     -0.74      0.00
   -8   12   11      0.62      0.00
   -8   12   10     -1.20      0.00
   -8   12    9      0.89      0.00
   -8   12    8      0.16      0.00
   -8   12    7      0.16      0.00
   -8   12    6     -0.04      0.00
   -8   12    5     -0.43      0.00
   -8   12    4      0.53      0.00
   -8   12    3     -0.28      0.00
   -8   12    2     -0.02      0.00
   -8   11   18     -0.19      0.00
   -8   11   17      0.26      0.00
   -8   11   16     -0.62      0.00
   -8   11   15      1.14      0.00
   -8   11   14     -0.26      0.00
   -8   11   13      0.34      0.00
   -8   11   12     -0.30      0.00
   -8   11   11      0.28      0.00
   -8   11   10      0.27      0.00
   -8   11    9     -0.84      0.00
   -8   11    8      0.20      0.00
   -8   11    7     -0.64      0.00
   -8   11    6      0.73      0.00
   -8   11    5     -0.06      0.00
   -8   11    4     -0.08      0.00
   -8   11    3      0.17      0.00
   -8   11    1      0.73      0.00
   -8   11    0     -0.30      0.00
   -8   10   19      0.31      0.00
   -8   10   18     -0.63      0.00
   -8   10   17      0.62      0.00
   -8   10   16     -0.10      0.00
   -8   10   15     -1.17      0.00
   -8   10   14      0.36      0.00
   -8   10   13     -0.10      0.00
   -8   10   12      0.45      0.00
   -8   10   11     -0.63      0.00
   -8   10   10      0.80      0.00
   -8   10    9     -0.23      0.00
   -8   10    8      0.58      0.00
   -8   10    7      0.02      0.00
   -8   10    6     -0.77      0.00
   -8   10    5      0.32      0.00
   -8   10    4     -0.45      0.00
   -8   10    3      0.55      0.00
   -8   10    2     -0.03      0.00
   -8   10    1     -0.89      0.00
   -8   10    0      0.93      0.00
    8  -10    1     -0.18      0.00
    8  -10    4      0.15      0.00
    8  -10    5      0.76      0.00
    8  -10    6     -0.93      0.00
    8  -10    7      0.38      0.00
    8  -10    8      0.23      0.00
    8  -10    9     -0.23      0.00
    8  -10   10     -0.25      0.00
   -8    9   19      0.46      0.00
   -8    9   18      0.31      0.00
   -8    9   17     -0.87      0.00
   -8    9   16      0.96      0.00
   -8    9   15      0.51      0.00
   -8    9   14     -0.24      0.00
   -8    9   13     -0.42      0.00
   -8    9   12      0.20      0.00
   -8    9   11     -0.27      0.00
   -8    9   10     -0.35      0.00
   -8    9    9      0.33      0.00
   -8    9    8     -0.98      0.00
   -8    9    7      0.96      0.00
   -8    9    6      0.09      0.00
   -8    9    5      0.07      0.00
   -8    9    4      0.33      0.00
   -8    9    3     -0.96      0.00
   -8    9    2      0.85      0.00
   -8    9    1      0.04      0.00
   -8    9    0     -0.60      0.00
    8   -9    1      0.13      0.00
    8   -9    2     -0.16      0.00
    8   -9    3      0.87      0.00
    8   -9    4     -1.00      0.00
    8   -9    5      0.25      0.00
    8   -9    6      0.44      0.00
    8   -9    7     -0.61      0.00
    8   -9    8      0.11      0.00
    8   -9    9      0.24      0.00
    8   -9   10      0.14      0.00
    8   -9   11     -0.68      0.00
    8   -9   12      0.35      0.00
    8   -9   13     -0.09      0.00
   -8    8   19     -0.74      0.00
   -8    8   18      0.39      0.00
   -8    8   17      0.13      0.00
   -8    8   16     -0.80      0.00
   -8    8   15     -0.15      0.00
   -8    8   14      0.42      0.00
   -8    8   13      0.25      0.00
   -8    8   12     -0.21      0.00
   -8    8   11      0.80      0.00
   -8    8   10     -0.52      0.00
   -8    8    9      0.54      0.00
   -8    8    8      0.11      0.00
   -8    8    7     -1.00      0.00
   -8    8    6      0.40      0.00
   -8    8    5     -0.62      0.00
   -8    8    4      0.33      0.00
   -8    8    3      0.52      0.00
   -8    8    2     -0.85      0.00
   -8    8    1      0.64      0.00
   -8    8    0     -0.16      0.00
    8   -8    1      0.47      0.00
    8   -8    2     -0.49      0.00
    8   -8    3     -0.16      0.00
    8   -8    4      0.73      0.00
    8   -8    5     -0.76      0.00
    8   -8    6      0.45      0.00
    8   -8    7      0.04      0.00
    8   -8    8      0.02      0.00
    8   -8    9     -0.38      0.00
    8   -8   10      0.08      0.00
    8   -8   11      0.45      0.00
    8   -8   12     -0.32      0.00
    8   -8   13      0.18      0.00
   -8    7   20      0.38      0.00
   -8    7   19      0.14      0.00
   -8    7   18     -0.17      0.00
   -8    7   17      0.18      0.00
   -8    7   16      0.31      0.00
   -8    7   15      0.02      0.00
   -8    7   14     -0.56      0.00
   -8    7   13      0.23      0.00
   -8    7   12     -0.41      0.00
   -8    7   11     -0.24      0.00
   -8    7   10      0.33      0.00
   -8    7    9     -0.73      0.00
   -8    7    8      0.93      0.00
   -8    7    7      0.19      0.00
   -8    7    6     -0.14      0.00
   -8    7    5      0.67      0.00
   -8    7    4     -0.83      0.00
   -8    7    3      0.21      0.00
   -8    7    2     -0.07      0.00
   -8    7    1     -0.25      0.00
   -8    7    0      0.24      0.00
    8   -7    1     -0.63      0.00
    8   -7    2      0.82      0.00
    8   -7    3     -0.58      0.00
    8   -7    4      0.33      0.00
    8   -7    5      0.04      0.00
    8   -7    6     -0.39      0.00
    8   -7    7      0.31      0.00
    8   -7    8     -0.35      0.00
    8   -7    9      0.73      0.00
    8   -7   10     -0.39      0.00
    8   -7   11     -0.12      0.00
    8   -7   12     -0.04      0.00
    8   -7   13      0.08      0.00
    8   -7   14      0.03      0.00
   -8    6   20     -0.20      0.00
   -8    6   19      0.05      0.00
   -8    6   18     -0.30      0.00
   -8    6   17      0.23      0.00
   -8    6   16     -0.30      0.00
   -8    6   15      0.34      0.00
   -8    6   14      0.17      0.00
   -8    6   13     -0.18      0.00
   -8    6   12      0.59      0.00
   -8    6   11     -0.27      0.00
   -8    6   10      0.35      0.00
   -8    6    9     -0.12      0.00
   -8    6    8     -0.98      0.00
   -8    6    7      0.49      0.00
   -8    6    6     -0.53      0.00
   -8    6    5      0.04      0.00
   -8    6    4      0.56      0.00
   -8    6    3     -0.26      0.00
   -8    6    2      0.77      0.00
   -8    6    1     -0.65      0.00
   -8    6    0      0.38      0.00
    8   -6    1      0.04      0.00
    8   -6    2     -0.31      0.00
    8   -6    3      0.28      0.00
    8   -6    4     -0.65      0.00
    8   -6    5      0.72      0.00
    8   -6    6     -0.41      0.00
    8   -6    7      0.24      0.00
    8   -6    8      0.03      0.00
    8   -6    9     -0.77      0.00
    8   -6   10      0.56      0.00
    8   -6   11      0.00      0.00
    8   -6   12      0.27      0.00
    8   -6   13     -0.42      0.00
    8   -6   14      0.20      0.00
    8   -6   15     -0.56      0.00
   -8    5   20     -0.21      0.00
   -8    5   19      0.48      0.00
   -8    5   18     -0.08      0.00
   -8    5   17     -0.25      0.00
   -8    5   16      0.21      0.00
   -8    5   15     -0.57      0.00
   -8    5   14      0.40      0.00
   -8    5   13     -0.26      0.00
   -8    5   12     -0.19      0.00
   -8    5   11      0.09      0.00
   -8    5   10     -0.38      0.00
   -8    5    9      0.94      0.00
   -8    5    8      0.15      0.00
   -8    5    7     -0.26      0.00
   -8    5    6      0.64      0.00
   -8    5    5     -0.78      0.00
   -8    5    4      0.23      0.00
   -8    5    3     -0.63      0.00
   -8    5    2     -0.25      0.00
   -8    5    1      0.78      0.00
   -8    5    0     -0.65      0.00
    8   -5    1      0.47      0.00
    8   -5    2     -0.33      0.00
    8   -5    3      0.60      0.00
    8   -5    4     -0.12      0.00
    8   -5    5     -0.35      0.00
    8   -5    6      0.49      0.00
    8   -5    7     -0.74      0.00
    8   -5    8      0.76      0.00
    8   -5    9      0.15      0.00
    8   -5   10     -0.33      0.00
    8   -5   11     -0.27      0.00
    8   -5   12      0.00      0.00
    8   -5   13      0.38      0.00
    8   -5   14     -0.19      0.00
    8   -5   15      0.56      0.00
   -8    4   20     -0.13      0.00
   -8    4   19     -0.53      0.00
   -8    4   18      0.62      0.00
   -8    4   17     -0.26      0.00
   -8    4   16      0.37      0.00
   -8    4   15      0.17      0.00
   -8    4   14     -0.50      0.00
   -8    4   13      0.48      0.00
   -8    4   12     -0.17      0.00
   -8    4   11      0.25      0.00
   -8    4   10     -0.23      0.00
   -8    4    9     -0.81      0.00
   -8    4    8      0.47      0.00
   -8    4    7     -0.48      0.00
   -8    4    6      0.33      0.00
   -8    4    5      0.38      0.00
   -8    4    4     -0.23      0.00
   -8    4    3      1.16      0.00
   -8    4    2     -0.81      0.00
   -8    4    1     -0.02      0.00
   -8    4    0     -0.01      0.00
    8   -4    1     -0.11      0.00
    8   -4    2      0.13      0.00
    8   -4    3     -0.74      0.00
    8   -4    4      0.73      0.00
    8   -4    5     -0.49      0.00
    8   -4    6      0.46      0.00
    8   -4    7      0.08      0.00
    8   -4    8     -0.79      0.00
    8   -4    9      0.37      0.00
    8   -4   10     -0.03      0.00
    8   -4   11      0.62      0.00
    8   -4   12     -0.58      0.00
    8   -4   13      0.16      0.00
    8   -4   14     -0.20      0.00
    8   -4   15     -0.11      0.00
   -8    3   20      0.70      0.00
   -8    3   19     -0.23      0.00
   -8    3   18     -0.35      0.00
   -8    3   17      0.33      0.00
   -8    3   16     -0.75      0.00
   -8    3   15      0.49      0.00
   -8    3   14      0.10      0.00
   -8    3   13     -0.26      0.00
   -8    3   12      0.16      0.00
   -8    3   11     -0.16      0.00
   -8    3   10      0.63      0.00
   -8    3    9     -0.05      0.00
   -8    3    8     -0.01      0.00
   -8    3    7      0.30      0.00
   -8    3    6     -0.98      0.00
   -8    3    5      0.60      0.00
   -8    3    4     -0.82      0.00
   -8    3    3     -0.15      0.00
   -8    3    2      0.73      0.00
   -8    3    1     -0.23      0.00
   -8    3    0      0.56      0.00
    8   -3    1     -0.54      0.00
    8   -3    2      0.63      0.00
    8   -3    3     -0.16      0.00
    8   -3    4     -0.13      0.00
    8   -3    5      0.24      0.00
    8   -3    6     -0.85      0.00
    8   -3    7      0.92      0.00
    8   -3    8     -0.21      0.00
    8   -3    9      0.02      0.00
    8   -3   10     -0.16      0.00
    8   -3   11     -0.41      0.00
    8   -3   12      0.72      0.00
    8   -3   13     -0.67      0.00
    8   -3   14      0.68      0.00
    8   -3   15     -0.44      0.00
    8   -3   16      0.17      0.00
   -8    2   21     -0.18      0.00
   -8    2   20     -0.54      0.00
   -8    2   19      0.74      0.00
   -8    2   18     -0.27      0.00
   -8    2   17      0.15      0.00
   -8    2   16      0.42      0.00
   -8    2   15     -0.63      0.00
   -8    2   14      0.20      0.00
   -8    2   13     -0.08      0.00
   -8    2   12      0.02      0.00
   -8    2   11     -0.31      0.00
   -8    2   10     -0.12      0.00
   -8    2    9      0.36      0.00
   -8    2    8     -0.67      0.00
   -8    2    7      0.88      0.00
   -8    2    6      0.03      0.00
   -8    2    5     -0.25      0.00
   -8    2    4      0.97      0.00
   -8    2    3     -0.93      0.00
   -8    2    2      0.24      0.00
   -8    2    1     -0.57      0.00
   -8    2    0      0.08      0.00
    8   -2    1      0.21      0.00
    8   -2    2     -0.58      0.00
    8   -2    3      0.74      0.00
    8   -2    4     -0.72      0.00
    8   -2    5      0.88      0.00
    8   -2    6     -0.25      0.00
    8   -2    7     -0.51      0.00
    8   -2    8      0.65      0.00
    8   -2    9     -0.62      0.00
    8   -2   10      0.71      0.00
    8   -2   11     -0.34      0.00
    8   -2   12      0.00      0.00
    8   -2   13      0.41      0.00
    8   -2   14     -0.77      0.00
    8   -2   15      0.71      0.00
   -8    1   21      0.65      0.00
   -8    1   20     -0.14      0.00
   -8    1   19     -0.50      0.00
   -8    1   18      0.38      0.00
   -8    1   17     -0.40      0.00
   -8    1   16      0.10      0.00
   -8    1   15      0.24      0.00
   -8    1   14     -0.01      0.00
   -8    1   13      0.08      0.00
   -8    1   12      0.08      0.00
   -8    1   11      0.46      0.00
   -8    1   10     -0.77      0.00
   -8    1    9      0.43      0.00
   -8    1    8      0.05      0.00
   -8    1    7     -1.01      0.00
   -8    1    6      0.92      0.00
   -8    1    5     -0.91      0.00
   -8    1    4      0.44      0.00
   -8    1    3      0.27      0.00
   -8    1    2     -0.07      0.00
   -8    1    1      0.70      0.00
   -8    1    0     -0.76      0.00
    8   -1    1      0.67      0.00
    8   -1    2     -0.51      0.00
    8   -1    3      0.01      0.00
    8   -1    4      0.29      0.00
    8   -1    5     -0.90      0.00
    8   -1    6      1.11      0.00
    8   -1    7     -0.84      0.00
    8   -1    8      0.27      0.00
    8   -1    9      0.27      0.00
    8   -1   10     -0.61      0.00
    8   -1   11      0.61      0.00
    8   -1   12     -0.76      0.00
    8   -1   13      0.46      0.00
    8   -1   14      0.20      0.00
    8   -1   15     -0.53      0.00
   -8    0   21     -0.54      0.00
   -8    0   20      0.51      0.00
   -8    0   19      0.08      0.00
   -8    0   18     -0.11      0.00
   -8    0   17      0.13      0.00
   -8    0   16     -0.16      0.00
   -8    0   15      0.03      0.00
   -8    0   14     -0.34      0.00
   -8    0   13      0.21      0.00
   -8    0   12     -0.53      0.00
   -8    0   11      0.23      0.00
   -8    0   10      0.75      0.00
   -8    0    9     -0.92      0.00
   -8    0    8      1.04      0.00
   -8    0    7     -0.33      0.00
   -8    0    6     -0.12      0.00
   -8    0    5      0.46      0.00
   -8    0    4     -0.88      0.00
   -8    0    3      0.61      0.00
   -8    0    2     -0.91      0.00
   -8    0    1      0.49      0.00
    8    0    0      0.05      0.00
    8    0    1     -0.42      0.00
    8    0    2      0.92      0.00
    8    0    3     -0.78      0.00
    8    0    4      0.72      0.00
    8    0    5     -0.48      0.00
    8    0    6     -0.07      0.00
    8    0    7      0.86      0.00
    8    0    8     -0.98      0.00
    8    0    9      0.45      0.00
    8    0   10     -0.01      0.00
    8    0   11     -0.04      0.00
    8    0   12      0.53      0.00
    8    0   13     -0.89      0.00
    8    0   14      0.54      0.00
    8    0   15      0.00      0.00
    8    0   16     -0.21      0.00
   -8   -1   21      0.15      0.00
   -8   -1   20     -0.40      0.00
   -8   -1   19      0.02      0.00
   -8   -1   18     -0.05      0.00
   -8   -1   17      0.28      0.00
   -8   -1   16     -0.19      0.00
   -8   -1   15      0.19      0.00
   -8   -1   14      0.22      0.00
   -8   -1   13     -0.20      0.00
   -8   -1   12      0.65      0.00
   -8   -1   11     -1.04      0.00
   -8   -1   10      0.21      0.00
   -8   -1    9      0.11      0.00
   -8   -1    8     -0.69      0.00
   -8   -1    7      0.82      0.00
   -8   -1    6     -0.66      0.00
   -8   -1    5      0.87      0.00
   -8   -1    4     -0.50      0.00
   -8   -1    3      0.33      0.00
   -8   -1    2      0.41      0.00
   -8   -1    1     -0.90      0.00
    8    1    0      0.78      0.00
    8    1    1     -0.60      0.00
    8    1    2     -0.05      0.00
    8    1    3      0.24      0.00
    8    1    4     -0.39      0.00
    8    1    5      0.91      0.00
    8    1    6     -1.29      0.00
    8    1    7      0.48      0.00
    8    1    8      0.40      0.00
    8    1    9     -0.35      0.00
    8    1   10      0.08      0.00
    8    1   11     -0.27      0.00
    8    1   12      0.19      0.00
    8    1   13      0.43      0.00
    8    1   14     -0.72      0.00
    8    1   15      0.53      0.00
    8    1   16      0.00      0.00
   -8   -2   21      0.09      0.00
   -8   -2   20      0.13      0.00
   -8   -2   19      0.18      0.00
   -8   -2   18     -0.11      0.00
   -8   -2   17     -0.38      0.00
   -8   -2   16      0.42      0.00
   -8   -2   15     -0.48      0.00
   -8   -2   14      0.24      0.00
   -8   -2   13     -0.28      0.00
   -8   -2   12      0.02      0.00
   -8   -2   11      0.80      0.00
   -8   -2   10     -0.60      0.00
   -8   -2    9      0.71      0.00
   -8   -2    8     -0.44      0.00
   -8   -2    7      0.14      0.00
   -8   -2    6     -0.38      0.00
   -8   -2    5     -0.30      0.00
   -8   -2    4      0.86      0.00
   -8   -2    3     -1.26      0.00
   -8   -2    2      0.97      0.00
   -8   -2    1     -0.17      0.00
    8    2    0     -0.18      0.00
    8    2    1      0.53      0.00
    8    2    2     -0.42      0.00
    8    2    3      0.42      0.00
    8    2    4     -0.69      0.00
    8    2    5      0.37      0.00
    8    2    6      0.76      0.00
    8    2    7     -0.92      0.00
    8    2    8      0.17      0.00
    8    2    9      0.03      0.00
    8    2   10      0.19      0.00
    8    2   11     -0.10      0.00
    8    2   12     -0.38      0.00
    8    2   13      0.25      0.00
    8    2   14      0.27      0.00
    8    2   15     -0.68      0.00
   -8   -3   21     -0.09      0.00
   -8   -3   20      0.01      0.00
   -8   -3   19     -0.46      0.00
   -8   -3   18      0.54      0.00
   -8   -3   17      0.10      0.00
   -8   -3   16     -0.22      0.00
   -8   -3   15      0.23      0.00
   -8   -3   14     -0.25      0.00
   -8   -3   13      0.43      0.00
   -8   -3   12     -0.69      0.00
   -8   -3   11      0.18      0.00
   -8   -3   10     -0.10      0.00
   -8   -3    9     -0.30      0.00
   -8   -3    8      0.41      0.00
   -8   -3    7     -0.28      0.00
   -8   -3    6      1.22      0.00
   -8   -3    5     -1.30      0.00
   -8   -3    4      0.65      0.00
   -8   -3    3      0.20      0.00
   -8   -3    2     -0.72      0.00
   -8   -3    1      0.49      0.00
    8    3    0     -0.46      0.00
    8    3    1      0.23      0.00
    8    3    2     -0.07      0.00
    8    3    3      0.00      0.00
    8    3    4      0.47      0.00
    8    3    5     -1.06      0.00
    8    3    6      0.49      0.00
    8    3    7      0.13      0.00
    8    3    8      0.15      0.00
    8    3    9     -0.30      0.00
    8    3   10      0.16      0.00
    8    3   11      0.16      0.00
    8    3   12      0.22      0.00
    8    3   13     -0.59      0.00
    8    3   14      0.35      0.00
    8    3   15      0.31      0.00
   -8   -4   20      0.17      0.00
   -8   -4   19      0.43      0.00
   -8   -4   18     -0.82      0.00
   -8   -4   17      0.23      0.00
   -8   -4   16     -0.05      0.00
   -8   -4   15      0.31      0.00
   -8   -4   14     -0.29      0.00
   -8   -4   13      0.21      0.00
   -8   -4   12      0.28      0.00
   -8   -4   11     -0.48      0.00
   -8   -4   10      0.65      0.00
   -8   -4    9     -0.36      0.00
   -8   -4    8      0.30      0.00
   -8   -4    7     -0.84      0.00
   -8   -4    6     -0.08      0.00
   -8   -4    5      1.01      0.00
   -8   -4    4     -1.17      0.00
   -8   -4    3      0.89      0.00
   -8   -4    2     -0.40      0.00
   -8   -4    1      0.42      0.00
    8    4    0     -0.13      0.00
    8    4    1     -0.12      0.00
    8    4    2      0.06      0.00
    8    4    3     -0.23      0.00
    8    4    4      0.45      0.00
    8    4    5      0.11      0.00
    8    4    6     -0.41      0.00
    8    4    7      0.13      0.00
    8    4    8     -0.27      0.00
    8    4    9      0.32      0.00
    8    4   10     -0.44      0.00
    8    4   11      0.14      0.00
    8    4   12     -0.20      0.00
    8    4   13      0.65      0.00
    8    4   14     -0.67      0.00
   -8   -5   20     -0.53      0.00
   -8   -5   19      0.07      0.00
   -8   -5   18      0.54      0.00
   -8   -5   17     -0.19      0.00
   -8   -5   16     -0.14      0.00
   -8   -5   15     -0.31      0.00
   -8   -5   14      0.42      0.00
   -8   -5   13     -0.66      0.00
   -8   -5   12      0.67      0.00
   -8   -5   11     -0.21      0.00
   -8   -5   10     -0.29      0.00
   -8   -5    9      0.19      0.00
   -8   -5    8     -0.12      0.00
   -8   -5    7      1.10      0.00
   -8   -5    6     -1.04      0.00
   -8   -5    5      0.48      0.00
   -8   -5    4     -0.13      0.00
   -8   -5    3     -0.15      0.00
   -8   -5    2      0.08      0.00
   -8   -5    1     -0.44      0.00
    8    5    0      0.43      0.00
    8    5    1     -0.15      0.00
    8    5    2      0.38      0.00
    8    5    3     -0.54      0.00
    8    5    4     -0.20      0.00
    8    5    5      0.61      0.00
    8    5    6     -0.34      0.00
    8    5    7      0.33      0.00
    8    5    8     -0.13      0.00
    8    5    9      0.28      0.00
    8    5   10     -0.21      0.00
    8    5   11      0.20      0.00
    8    5   12     -0.11      0.00
    8    5   13     -0.35      0.00
    8    5   14      0.43      0.00
   -8   -6   20      0.57      0.00
   -8   -6   19     -0.51      0.00
   -8   -6   18      0.06      0.00
   -8   -6   17     -0.13      0.00
   -8   -6   16      0.56      0.00
   -8   -6   15     -0.21      0.00
   -8   -6   14      0.18      0.00
   -8   -6   13     -0.04      0.00
   -8   -6   12     -0.66      0.00
   -8   -6   11      0.66      0.00
   -8   -6   10     -0.21      0.00
   -8   -6    9      0.20      0.00
   -8   -6    8     -0.49      0.00
   -8   -6    7     -0.12      0.00
   -8   -6    6      0.42      0.00
   -8   -6    5     -0.54      0.00
   -8   -6    4      0.80      0.00
   -8   -6    3     -0.63      0.00
   -8   -6    2      0.78      0.00
   -8   -6    1     -0.49      0.00
    8    6    0      0.31      0.00
    8    6    1     -0.56      0.00
    8    6    2      0.16      0.00
    8    6    3      0.77      0.00
    8    6    4     -0.66      0.00
    8    6    5     -0.16      0.00
    8    6    6      0.31      0.00
    8    6    7     -0.40      0.00
    8    6    8      0.14      0.00
    8    6    9     -0.27      0.00
    8    6   10      0.62      0.00
    8    6   11     -0.73      0.00
    8    6   12      0.61      0.00
    8    6   13     -0.09      0.00
   -8   -7   20     -0.11      0.00
   -8   -7   19      0.26      0.00
   -8   -7   18     -0.27      0.00
   -8   -7   17      0.24      0.00
   -8   -7   16     -0.58      0.00
   -8   -7   15      0.37      0.00
   -8   -7   14     -0.40      0.00
   -8   -7   13      0.92      0.00
   -8   -7   12     -0.30      0.00
   -8   -7   11     -0.20      0.00
   -8   -7   10      0.12      0.00
   -8   -7    9     -0.07      0.00
   -8   -7    8      0.32      0.00
   -8   -7    7     -0.35      0.00
   -8   -7    6      0.56      0.00
   -8   -7    5     -0.52      0.00
   -8   -7    4     -0.12      0.00
   -8   -7    3      0.07      0.00
   -8   -7    2     -0.31      0.00
   -8   -7    1      0.40      0.00
    8    7    0     -0.41      0.00
    8    7    1      0.99      0.00
    8    7    2     -1.05      0.00
    8    7    3      0.06      0.00
    8    7    4      0.59      0.00
    8    7    5     -0.27      0.00
    8    7    6      0.19      0.00
    8    7    7      0.07      0.00
    8    7    8      0.07      0.00
    8    7    9     -0.36      0.00
    8    7   10      0.01      0.00
    8    7   11      0.38      0.00
    8    7   12     -0.45      0.00
    8    7   13      0.00      0.00
   -8   -8   20     -0.29      0.00
   -8   -8   19      0.42      0.00
   -8   -8   18     -0.10      0.00
   -8   -8   17     -0.01      0.00
   -8   -8   16      0.16      0.00
   -8   -8   15     -0.03      0.00
   -8   -8   14     -0.28      0.00
   -8   -8   13     -0.59      0.00
   -8   -8   12      0.71      0.00
   -8   -8   11     -0.31      0.00
   -8   -8   10      0.16      0.00
   -8   -8    9     -0.13      0.00
   -8   -8    8      0.31      0.00
   -8   -8    7     -0.21      0.00
   -8   -8    6     -0.47      0.00
   -8   -8    5      0.92      0.00
   -8   -8    4     -0.34      0.00
   -8   -8    3      0.43      0.00
   -8   -8    2     -0.56      0.00
   -8   -8    1      0.49      0.00
    8    8    0     -0.52      0.00
    8    8    1     -0.16      0.00
    8    8    2      0.71      0.00
    8    8    3     -0.42      0.00
    8    8    4     -0.04      0.00
    8    8    5      0.04      0.00
    8    8    6     -0.44      0.00
    8    8    7      0.25      0.00
    8    8    8      0.09      0.00
    8    8    9      0.37      0.00
    8    8   10     -0.44      0.00
    8    8   11      0.18      0.00
    8    8   12     -0.08      0.00
   -8   -9   19     -0.68      0.00
   -8   -9   18      0.47      0.00
   -8   -9   17     -0.19      0.00
   -8   -9   16      0.26      0.00
   -8   -9   15     -0.13      0.00
   -8   -9   14      0.79      0.00
   -8   -9   13     -0.42      0.00
   -8   -9   12     -0.14      0.00
   -8   -9   11      0.10      0.00
   -8   -9   10     -0.05      0.00
   -8   -9    9     -0.13      0.00
   -8   -9    8     -0.43      0.00
   -8   -9    7      0.75      0.00
   -8   -9    6     -0.10      0.00
   -8   -9    5     -0.59      0.00
   -8   -9    4      0.13      0.00
   -8   -9    3     -0.01      0.00
   -8   -9    2      0.37      0.00
   -8   -9    1     -0.53      0.00
    8    9    0      0.85      0.00
    8    9    1     -0.53      0.00
    8    9    2      0.13      0.00
    8    9    3     -0.14      0.00
    8    9    4     -0.03      0.00
    8    9    5      0.37      0.00
    8    9    6      0.34      0.00
    8    9    7     -0.63      0.00
    8    9    8     -0.11      0.00
    8    9    9      0.10      0.00
    8    9   10      0.03      0.00
    8    9   11      0.06      0.00
    8    9   12      0.00      0.00
   -8  -10   19      0.29      0.00
   -8  -10   18     -0.33      0.00
   -8  -10   17     -0.06      0.00
   -8  -10   16     -0.38      0.00
   -8  -10   15      0.02      0.00
   -8  -10   14     -0.39      0.00
   -8  -10   13      0.72      0.00
   -8  -10   12     -0.29      0.00
   -8  -10   11      0.28      0.00
   -8  -10   10     -0.20      0.00
   -8  -10    9      0.52      0.00
   -8  -10    8      0.03      0.00
   -8  -10    7     -0.76      0.00
   -8  -10    6      0.39      0.00
   -8  -10    5      0.28      0.00
   -8  -10    4     -0.06      0.00
   -8  -10    3     -0.36      0.00
   -8  -10    2      0.25      0.00
   -8  -10    1     -0.13      0.00
    8   10    0     -0.25      0.00
    8   10    1      0.16      0.00
    8   10    2     -0.07      0.00
    8   10    3      0.45      0.00
    8   10    4     -0.18      0.00
    8   10    5     -0.69      0.00
    8   10    6      0.16      0.00
    8   10    7      0.72      0.00
    8   10    8     -0.18      0.00
    8   10    9     -0.08      0.00
    8   10   10      0.19      0.00
    8   10   11     -0.44      0.00
   -8  -11   19      0.07      0.00
   -8  -11   18      0.01      0.00
   -8  -11   17      0.64      0.00
   -8  -11   16      0.10      0.00
   -8  -11   15      0.00      0.00
   -8  -11   14     -0.29      0.00
   -8  -11   13     -0.30      0.00
   -8  -11   12      0.10      0.00
   -8  -11   11     -0.19      0.00
   -8  -11   10      0.17      0.00
   -8  -11    9     -0.53      0.00
   -8  -11    8      0.32      0.00
   -8  -11    7      0.54      0.00
   -8  -11    6     -0.41      0.00
   -8  -11    5     -0.07      0.00
   -8  -11    4      0.17      0.00
   -8  -11    3      0.15      0.00
   -8  -11    2     -0.36      0.00
   -8  -11    1      0.43      0.00
    8   11    0     -0.12      0.00
    8   11    1      0.24      0.00
    8   11    2     -0.42      0.00
    8   11    3     -0.19      0.00
    8   11    4      0.28      0.00
    8   11    5      0.73      0.00
    8   11    6     -0.65      0.00
    8   11    7     -0.33      0.00
    8   11    8      0.12      0.00
    8   11    9     -0.05      0.00
    8   11   10      0.03      0.00
   -8  -12   17     -0.88      0.00
   -8  -12   16      0.39      0.00
   -8  -12   15      0.07      0.00
   -8  -12   14      0.64      0.00
   -8  -12   13     -0.12      0.00
   -8  -12   12      0.13      0.00
   -8  -12   11     -0.06      0.00
   -8  -12   10     -0.05      0.00
   -8  -12    9      0.25      0.00
   -8  -12    8     -0.42      0.00
   -8  -12    7     -0.30      0.00
   -8  -12    6      0.29      0.00
   -8  -12    5     -0.06      0.00
   -8  -12    4     -0.11      0.00
   -8  -12    3      0.22      0.00
   -8  -12    2      0.10      0.00
   -8  -12    1     -0.35      0.00
    8   12    0      0.03      0.00
    8   12    1     -0.04      0.00
    8   12    2      0.36      0.00
    8   12    3      0.07      0.00
    8   12    4     -0.34      0.00
    8   12    5     -0.45      0.00
    8   12    6      0.58      0.00
    8   12    7      0.24      0.00
    8   12    8      0.06      0.00
    8   12    9     -0.12      0.00
   -8  -13   18      0.59      0.00
   -8  -13   16     -0.48      0.00
   -8  -13   15     -0.21      0.00
   -8  -13   14     -0.71      0.00
   -8  -13   13      0.44      0.00
   -8  -13   12     -0.17      0.00
   -8  -13   11      0.19      0.00
   -8  -13   10      0.08      0.00
   -8  -13    9     -0.01      0.00
   -8  -13    8      0.36      0.00
   -8  -13    7      0.08      0.00
   -8  -13    6     -0.11      0.00
   -8  -13    5      0.01      0.00
   -8  -13    4     -0.06      0.00
   -8  -13    3     -0.42      0.00
   -8  -13    2      0.22      0.00
   -8  -13    1      0.27      0.00
    8   13    0      0.00      0.00
    8   13    1     -0.16      0.00
    8   13    2     -0.02      0.00
    8   13    3     -0.29      0.00
    8   13    4      0.42      0.00
    8   13    5      0.27      0.00
    8   13    6     -0.37      0.00
    8   13    7     -0.55      0.00
    8   13    8      0.21      0.00
   -8  -14   17      0.31      0.00
   -8  -14   15      0.65      0.00
   -8  -14   14      0.36      0.00
   -8  -14   13     -0.65      0.00
   -8  -14   12      0.19      0.00
   -8  -14   11     -0.30      0.00
   -8  -14   10     -0.11      0.00
   -8  -14    9     -0.15      0.00
   -8  -14    8     -0.11      0.00
   -8  -14    7      0.05      0.00
   -8  -14    6      0.07      0.00
   -8  -14    5      0.09      0.00
   -8  -14    4      0.26      0.00
   -8  -14    3      0.32      0.00
   -8  -14    2     -0.44      0.00
   -8  -14    1     -0.22      0.00
    8   14    0      0.09      0.00
    8   14    1      0.02      0.00
    8   14    2      0.07      0.00
    8   14    3      0.46      0.00
    8   14    4     -0.60      0.00
    8   14    5     -0.20      0.00
    8   14    6      0.53      0.00
    8   14    7      0.43      0.00
   -8  -15   16      0.23      0.00
   -8  -15   15     -1.08      0.00
   -8  -15   14      0.35      0.00
   -8  -15   13      0.52      0.00
   -8  -15   12     -0.05      0.00
   -8  -15   11      0.23      0.00
   -8  -15   10      0.17      0.00
   -8  -15    9      0.18      0.00
   -8  -15    8     -0.25      0.00
   -8  -15    6     -0.14      0.00
   -8  -15    5     -0.12      0.00
   -8  -15    4     -0.35      0.00
   -8  -15    3      0.01      0.00
   -8  -15    2      0.41      0.00
   -8  -15    1      0.26      0.00
    8   15    0     -0.14      0.00
    8   15    1      0.08      0.00
    8   15    2     -0.48      0.00
    8   15    3     -0.15      0.00
    8   15    4      0.66      0.00
    8   15    5     -0.09      0.00
    8   15    6     -0.52      0.00
   -8  -16   16      0.10      0.00
   -8  -16   15      0.89      0.00
   -8  -16   14     -0.77      0.00
   -8  -16   13     -0.30      0.00
   -8  -16   12     -0.10      0.00
   -8  -16   11      0.06      0.00
   -8  -16   10     -0.42      0.00
   -8  -16    9      0.16      0.00
   -8  -16    8      0.39      0.00
   -8  -16    7      0.05      0.00
   -8  -16    6      0.14      0.00
   -8  -16    5      0.14      0.00
   -8  -16    4      0.16      0.00
   -8  -16    3     -0.15      0.00
   -8  -16    2     -0.38      0.00
   -8  -16    1     -0.33      0.00
    8   16    0      0.20      0.00
    8   16    1      0.18      0.00
    8   16    2      0.58      0.00
    8   16    3     -0.45      0.00
    8   16    4     -0.23      0.00
    8   16    5      0.21      0.00
   -8  -17   14      0.67      0.00
   -8  -17   12     -0.14      0.00
   -8  -17   11     -0.07      0.00
   -8  -17   10      0.47      0.00
   -8  -17    9     -0.60      0.00
   -8  -17    7     -0.15      0.00
   -8  -17    6      0.00      0.00
   -8  -17    5     -0.10      0.00
   -8  -17    4      0.14      0.00
   -8  -17    3      0.00      0.00
   -8  -17    2      0.56      0.00
   -8  -17    1      0.21      0.00
    8   17    0     -0.36      0.00
    8   17    1     -0.55      0.00
    8   17    2      0.02      0.00
    8   17    3      0.50      0.00
   -8  -18   10     -0.01      0.00
   -8  -18    8      0.11      0.00
   -8  -18    7      0.11      0.00
   -8  -18    6     -0.11      0.00
   -8  -18    5     -0.05      0.00
   -8  -18    4     -0.18      0.00
   -8  -18    3      0.05      0.00
   -8  -18    1      0.08      0.00
    8   18    0      0.62      0.00
    8   18    2     -0.65      0.00
   -8  -19    5      0.26      0.00
   -8  -19    3      0.11      0.00
   -8  -19    2      0.46      0.00
   -8  -19    1     -0.30      0.00
   -9   16   10     -0.25      0.00
   -9   16    8     -0.63      0.00
   -9   16    7      0.41      0.00
   -9   15   15      0.23      0.00
   -9   15   14     -0.35      0.00
   -9   15   12     -0.54      0.00
   -9   15   10     -0.27      0.00
   -9   15    6     -0.09      0.00
   -9   14   16     -0.01      0.00
   -9   14   15      0.07      0.00
   -9   14   14     -0.04      0.00
   -9   14    6      0.17      0.00
   -9   14    5     -0.50      0.00
   -9   14    4      0.12      0.00
   -9   13   16      0.27      0.00
   -9   13   15     -0.25      0.00
   -9   13   14      0.43      0.00
   -9   13   11     -0.66      0.00
   -9   13   10      0.42      0.00
   -9   13    9      0.66      0.00
   -9   13    8     -0.68      0.00
   -9   13    7     -0.39      0.00
   -9   13    6     -0.14      0.00
   -9   13    5      0.67      0.00
   -9   13    4     -0.37      0.00
   -9   12   15     -0.30      0.00
   -9   12   14     -0.22      0.00
   -9   12   13     -0.07      0.00
   -9   12   12     -0.37      0.00
   -9   12   11      0.86      0.00
   -9   12   10     -1.00      0.00
   -9   12    9      0.39      0.00
   -9   12    8      0.12      0.00
   -9   12    7      0.77      0.00
   -9   12    6     -0.36      0.00
   -9   12    5     -0.50      0.00
   -9   12    4      0.34      0.00
   -9   12    3     -0.08      0.00
   -9   12    2     -0.01      0.00
   -9   12    1     -0.13      0.00
   -9   11   17      0.37      0.00
   -9   11   16     -0.65      0.00
   -9   11   15      0.90      0.00
   -9   11   14      0.05      0.00
   -9   11   13      0.47      0.00
   -9   11   12     -0.82      0.00
   -9   11   11      0.18      0.00
   -9   11   10      0.07      0.00
   -9   11    9     -0.12      0.00
   -9   11    8     -0.10      0.00
   -9   11    7     -0.87      0.00
   -9   11    6      0.94      0.00
   -9   11    5      0.08      0.00
   -9   11    4      0.03      0.00
   -9   11    3     -0.12      0.00
   -9   11    2     -0.25      0.00
   -9   11    1      0.70      0.00
    9  -11    1     -0.35      0.00
    9  -11    2     -0.03      0.00
   -9   10   17      0.36      0.00
   -9   10   16      0.23      0.00
   -9   10   15     -0.92      0.00
   -9   10   14     -0.35      0.00
   -9   10   13      0.36      0.00
   -9   10   12      0.71      0.00
   -9   10   11     -0.42      0.00
   -9   10   10      0.70      0.00
   -9   10    9     -0.86      0.00
   -9   10    8      0.96      0.00
   -9   10    7     -0.02      0.00
   -9   10    6     -0.79      0.00
   -9   10    5      0.02      0.00
   -9   10    4     -0.27      0.00
   -9   10    3      0.68      0.00
   -9   10    2     -0.14      0.00
   -9   10    1     -0.73      0.00
   -9   10    0      0.63      0.00
    9  -10    1      0.09      0.00
    9  -10    2      0.41      0.00
    9  -10    3     -0.95      0.00
    9  -10    4      0.15      0.00
    9  -10    5      0.85      0.00
    9  -10    6     -0.75      0.00
    9  -10    7     -0.05      0.00
   -9    9   18      0.65      0.00
   -9    9   17     -0.79      0.00
   -9    9   16      0.22      0.00
   -9    9   15      0.86      0.00
   -9    9   14      0.24      0.00
   -9    9   13     -1.18      0.00
   -9    9   12      0.24      0.00
   -9    9   11     -0.58      0.00
   -9    9   10      0.18      0.00
   -9    9    9      0.60      0.00
   -9    9    8     -1.15      0.00
   -9    9    7      0.92      0.00
   -9    9    6      0.14      0.00
   -9    9    5      0.33      0.00
   -9    9    4     -0.06      0.00
   -9    9    3     -0.83      0.00
   -9    9    2      0.65      0.00
   -9    9    1      0.10      0.00
   -9    9    0     -0.30      0.00
    9   -9    1     -0.34      0.00
    9   -9    2     -0.16      0.00
    9   -9    3      1.18      0.00
    9   -9    4     -0.93      0.00
    9   -9    5     -0.05      0.00
    9   -9    6      0.37      0.00
    9   -9    7      0.04      0.00
    9   -9    8     -0.39      0.00
    9   -9    9      0.04      0.00
    9   -9   10      0.43      0.00
   -9    8   18     -0.02      0.00
   -9    8   17      0.57      0.00
   -9    8   16     -0.24      0.00
   -9    8   15     -1.03      0.00
   -9    8   14      0.62      0.00
   -9    8   13      0.73      0.00
   -9    8   12     -0.20      0.00
   -9    8   11      0.83      0.00
   -9    8   10     -1.17      0.00
   -9    8    9      0.56      0.00
   -9    8    8      0.11      0.00
   -9    8    7     -0.79      0.00
   -9    8    6      0.14      0.00
   -9    8    5     -0.53      0.00
   -9    8    4      0.59      0.00
   -9    8    3      0.38      0.00
   -9    8    2     -0.49      0.00
   -9    8    1      0.22      0.00
   -9    8    0     -0.17      0.00
    9   -8    1      0.82      0.00
    9   -8    2     -0.57      0.00
    9   -8    3     -0.46      0.00
    9   -8    4      0.66      0.00
    9   -8    5     -0.20      0.00
    9   -8    6      0.07      0.00
    9   -8    7     -0.32      0.00
    9   -8    8      0.62      0.00
    9   -8    9     -0.41      0.00
    9   -8   10     -0.17      0.00
    9   -8   12      0.14      0.00
   -9    7   19      0.36      0.00
   -9    7   18     -0.10      0.00
   -9    7   17     -0.55      0.00
   -9    7   16      0.44      0.00
   -9    7   15      0.74      0.00
   -9    7   14     -1.11      0.00
   -9    7   13      0.08      0.00
   -9    7   12     -0.56      0.00
   -9    7   11      0.20      0.00
   -9    7   10      0.67      0.00
   -9    7    9     -0.79      0.00
   -9    7    8      0.83      0.00
   -9    7    7      0.08      0.00
   -9    7    6      0.09      0.00
   -9    7    5      0.25      0.00
   -9    7    4     -0.73      0.00
   -9    7    3      0.05      0.00
   -9    7    2     -0.14      0.00
   -9    7    1      0.18      0.00
   -9    7    0      0.05      0.00
    9   -7    1     -0.74      0.00
    9   -7    2      0.77      0.00
    9   -7    3     -0.13      0.00
    9   -7    4      0.11      0.00
    9   -7    5     -0.38      0.00
    9   -7    6      0.19      0.00
    9   -7    7      0.23      0.00
    9   -7    8     -0.65      0.00
    9   -7    9      0.64      0.00
    9   -7   10      0.04      0.00
    9   -7   11     -0.08      0.00
    9   -7   12     -0.62      0.00
    9   -7   13      0.35      0.00
   -9    6   19     -0.10      0.00
   -9    6   18      0.05      0.00
   -9    6   17      0.69      0.00
   -9    6   16     -0.90      0.00
   -9    6   15      0.15      0.00
   -9    6   14      0.54      0.00
   -9    6   13     -0.02      0.00
   -9    6   12      0.51      0.00
   -9    6   11     -0.84      0.00
   -9    6   10      0.34      0.00
   -9    6    9     -0.04      0.00
   -9    6    8     -0.78      0.00
   -9    6    7      0.33      0.00
   -9    6    6     -0.36      0.00
   -9    6    5      0.29      0.00
   -9    6    4      0.41      0.00
   -9    6    3      0.05      0.00
   -9    6    2      0.42      0.00
   -9    6    1     -0.71      0.00
   -9    6    0      0.35      0.00
    9   -6    1      0.23      0.00
    9   -6    2     -0.29      0.00
    9   -6    3     -0.17      0.00
    9   -6    4     -0.21      0.00
    9   -6    5      0.74      0.00
    9   -6    6     -0.66      0.00
    9   -6    7      0.28      0.00
    9   -6    8      0.22      0.00
    9   -6    9     -0.59      0.00
    9   -6   10     -0.12      0.00
    9   -6   11      0.35      0.00
    9   -6   12      0.76      0.00
    9   -6   13     -0.88      0.00
   -9    5   19      0.31      0.00
   -9    5   18     -0.49      0.00
   -9    5   17     -0.22      0.00
   -9    5   16      0.77      0.00
   -9    5   15     -0.64      0.00
   -9    5   14      0.19      0.00
   -9    5   13     -0.44      0.00
   -9    5   12      0.22      0.00
   -9    5   11      0.38      0.00
   -9    5   10     -0.48      0.00
   -9    5    9      0.67      0.00
   -9    5    8      0.20      0.00
   -9    5    7     -0.17      0.00
   -9    5    6      0.22      0.00
   -9    5    5     -0.68      0.00
   -9    5    4      0.11      0.00
   -9    5    3     -0.58      0.00
   -9    5    2      0.02      0.00
   -9    5    1      0.73      0.00
   -9    5    0     -0.43      0.00
    9   -5    1      0.03      0.00
    9   -5    2     -0.07      0.00
    9   -5    3      0.72      0.00
    9   -5    4     -0.31      0.00
    9   -5    5     -0.38      0.00
    9   -5    6      0.48      0.00
    9   -5    7     -0.48      0.00
    9   -5    8      0.30      0.00
    9   -5    9      0.29      0.00
    9   -5   10      0.24      0.00
    9   -5   11     -0.93      0.00
    9   -5   12     -0.20      0.00
    9   -5   13      1.01      0.00
    9   -5   14     -0.28      0.00
   -9    4   19     -0.23      0.00
   -9    4   18      0.81      0.00
   -9    4   17     -0.56      0.00
   -9    4   16      0.02      0.00
   -9    4   15      0.25      0.00
   -9    4   14     -0.26      0.00
   -9    4   13      0.42      0.00
   -9    4   12     -0.53      0.00
   -9    4   11      0.18      0.00
   -9    4   10      0.03      0.00
   -9    4    9     -0.56      0.00
   -9    4    8      0.16      0.00
   -9    4    7     -0.22      0.00
   -9    4    6      0.49      0.00
   -9    4    5      0.32      0.00
   -9    4    4     -0.15      0.00
   -9    4    3      0.84      0.00
   -9    4    2     -0.73      0.00
   -9    4    1     -0.27      0.00
   -9    4    0      0.09      0.00
    9   -4    1      0.18      0.00
    9   -4    2     -0.09      0.00
    9   -4    3     -0.76      0.00
    9   -4    4      0.60      0.00
    9   -4    5      0.01      0.00
    9   -4    6      0.14      0.00
    9   -4    7     -0.06      0.00
    9   -4    8     -0.30      0.00
    9   -4    9     -0.11      0.00
    9   -4   10     -0.12      0.00
    9   -4   11      1.22      0.00
    9   -4   12     -0.74      0.00
    9   -4   13     -0.38      0.00
    9   -4   14      0.28      0.00
    9   -4   15     -0.16      0.00
   -9    3   19     -0.35      0.00
   -9    3   18     -0.38      0.00
   -9    3   17      0.68      0.00
   -9    3   16     -0.51      0.00
   -9    3   15      0.33      0.00
   -9    3   14     -0.09      0.00
   -9    3   13     -0.03      0.00
   -9    3   12      0.27      0.00
   -9    3   11     -0.18      0.00
   -9    3   10      0.18      0.00
   -9    3    9      0.06      0.00
   -9    3    8      0.09      0.00
   -9    3    7      0.06      0.00
   -9    3    6     -0.97      0.00
   -9    3    5      0.52      0.00
   -9    3    4     -0.57      0.00
   -9    3    3     -0.14      0.00
   -9    3    2      0.81      0.00
   -9    3    1      0.00      0.00
   -9    3    0      0.18      0.00
    9   -3    1     -0.48      0.00
    9   -3    2      0.51      0.00
    9   -3    3      0.30      0.00
    9   -3    4     -0.39      0.00
    9   -3    5     -0.28      0.00
    9   -3    6     -0.21      0.00
    9   -3    7      0.65      0.00
    9   -3    8     -0.23      0.00
    9   -3    9      0.31      0.00
    9   -3   10     -0.38      0.00
    9   -3   11     -0.68      0.00
    9   -3   12      1.10      0.00
    9   -3   13     -0.54      0.00
    9   -3   14      0.23      0.00
    9   -3   15     -0.02      0.00
   -9    2   20     -0.36      0.00
   -9    2   19      0.68      0.00
   -9    2   18     -0.24      0.00
   -9    2   17     -0.24      0.00
   -9    2   16      0.30      0.00
   -9    2   15     -0.37      0.00
   -9    2   14      0.23      0.00
   -9    2   13     -0.23      0.00
   -9    2   12      0.01      0.00
   -9    2   11     -0.08      0.00
   -9    2   10      0.11      0.00
   -9    2    9      0.13      0.00
   -9    2    8     -0.52      0.00
   -9    2    7      0.79      0.00
   -9    2    6      0.22      0.00
   -9    2    5     -0.46      0.00
   -9    2    4      0.86      0.00
   -9    2    3     -0.82      0.00
   -9    2    2     -0.17      0.00
   -9    2    1     -0.27      0.00
   -9    2    0      0.12      0.00
    9   -2    1      0.33      0.00
    9   -2    2     -0.60      0.00
    9   -2    3      0.09      0.00
    9   -2    4      0.20      0.00
    9   -2    5      0.75      0.00
    9   -2    6     -0.57      0.00
    9   -2    7     -0.36      0.00
    9   -2    8      0.47      0.00
    9   -2    9     -0.48      0.00
    9   -2   10      0.78      0.00
    9   -2   11     -0.33      0.00
    9   -2   12     -0.30      0.00
    9   -2   13      0.67      0.00
    9   -2   14     -0.73      0.00
   -9    1   20      0.03      0.00
   -9    1   19     -0.51      0.00
   -9    1   18      0.42      0.00
   -9    1   17     -0.02      0.00
   -9    1   16      0.07      0.00
   -9    1   15     -0.03      0.00
   -9    1   14      0.02      0.00
   -9    1   13      0.16      0.00
   -9    1   12     -0.04      0.00
   -9    1   11      0.19      0.00
   -9    1   10     -0.62      0.00
   -9    1    9      0.31      0.00
   -9    1    8      0.17      0.00
   -9    1    7     -0.95      0.00
   -9    1    6      0.75      0.00
   -9    1    5     -0.52      0.00
   -9    1    4      0.12      0.00
   -9    1    3      0.66      0.00
   -9    1    2     -0.07      0.00
   -9    1    1      0.34      0.00
   -9    1    0     -0.55      0.00
    9   -1    1      0.22      0.00
    9   -1    2      0.17      0.00
    9   -1    3     -0.06      0.00
    9   -1    4     -0.51      0.00
    9   -1    5     -0.41      0.00
    9   -1    6      1.09      0.00
    9   -1    7     -0.54      0.00
    9   -1    8      0.01      0.00
    9   -1    9      0.18      0.00
    9   -1   10     -0.49      0.00
    9   -1   11      0.67      0.00
    9   -1   12     -0.75      0.00
    9   -1   13      0.19      0.00
    9   -1   14      0.49      0.00
    9   -1   15     -0.50      0.00
   -9    0   20      0.19      0.00
   -9    0   19      0.24      0.00
   -9    0   18     -0.28      0.00
   -9    0   17     -0.08      0.00
   -9    0   16     -0.06      0.00
   -9    0   15      0.31      0.00
   -9    0   14     -0.41      0.00
   -9    0   13      0.19      0.00
   -9    0   12     -0.25      0.00
   -9    0   11      0.15      0.00
   -9    0   10      0.69      0.00
   -9    0    9     -0.69      0.00
   -9    0    8      0.55      0.00
   -9    0    7     -0.11      0.00
   -9    0    6     -0.31      0.00
   -9    0    5      0.54      0.00
   -9    0    4     -0.81      0.00
   -9    0    3      0.12      0.00
   -9    0    2     -0.34      0.00
   -9    0    1      0.30      0.00
    9    0    0      0.27      0.00
    9    0    1     -0.39      0.00
    9    0    2      0.21      0.00
    9    0    3     -0.03      0.00
    9    0    4      0.83      0.00
    9    0    5     -0.67      0.00
    9    0    6     -0.36      0.00
    9    0    7      0.77      0.00
    9    0    8     -0.49      0.00
    9    0    9      0.15      0.00
    9    0   10     -0.05      0.00
    9    0   11     -0.03      0.00
    9    0   12      0.72      0.00
    9    0   13     -0.90      0.00
    9    0   14      0.25      0.00
    9    0   15      0.16      0.00
   -9   -1   20     -0.25      0.00
   -9   -1   19     -0.05      0.00
   -9   -1   18      0.10      0.00
   -9   -1   17      0.31      0.00
   -9   -1   16     -0.30      0.00
   -9   -1   15     -0.09      0.00
   -9   -1   14      0.38      0.00
   -9   -1   13     -0.39      0.00
   -9   -1   12      0.60      0.00
   -9   -1   11     -0.76      0.00
   -9   -1   10     -0.13      0.00
   -9   -1    9      0.29      0.00
   -9   -1    8     -0.32      0.00
   -9   -1    7      0.63      0.00
   -9   -1    6     -0.51      0.00
   -9   -1    5      0.50      0.00
   -9   -1    4      0.05      0.00
   -9   -1    3      0.05      0.00
   -9   -1    2      0.19      0.00
   -9   -1    1     -0.67      0.00
    9    1    0      0.33      0.00
    9    1    1      0.01      0.00
    9    1    2     -0.09      0.00
    9    1    3     -0.29      0.00
    9    1    4     -0.34      0.00
    9    1    5      1.10      0.00
    9    1    6     -0.76      0.00
    9    1    7     -0.10      0.00
    9    1    8      0.42      0.00
    9    1    9     -0.06      0.00
    9    1   10     -0.02      0.00
    9    1   11     -0.41      0.00
    9    1   12      0.12      0.00
    9    1   13      0.60      0.00
    9    1   14     -0.58      0.00
   -9   -2   20      0.14      0.00
   -9   -2   19      0.04      0.00
   -9   -2   18      0.00      0.00
   -9   -2   17     -0.41      0.00
   -9   -2   16      0.56      0.00
   -9   -2   15     -0.37      0.00
   -9   -2   14      0.21      0.00
   -9   -2   13     -0.09      0.00
   -9   -2   12     -0.36      0.00
   -9   -2   11      0.93      0.00
   -9   -2   10     -0.34      0.00
   -9   -2    9      0.17      0.00
   -9   -2    8     -0.48      0.00
   -9   -2    7      0.17      0.00
   -9   -2    6     -0.10      0.00
   -9   -2    5     -0.45      0.00
   -9   -2    4      0.56      0.00
   -9   -2    3     -0.58      0.00
   -9   -2    2      0.50      0.00
   -9   -2    1      0.21      0.00
    9    2    0     -0.31      0.00
    9    2    1      0.13      0.00
    9    2    2     -0.03      0.00
    9    2    3      0.58      0.00
    9    2    4     -0.60      0.00
    9    2    5     -0.28      0.00
    9    2    6      0.85      0.00
    9    2    7     -0.37      0.00
    9    2    8     -0.33      0.00
    9    2    9      0.11      0.00
    9    2   10      0.33      0.00
    9    2   11      0.04      0.00
    9    2   12     -0.52      0.00
    9    2   13      0.15      0.00
    9    2   14      0.23      0.00
   -9   -3   20      0.15      0.00
   -9   -3   19     -0.33      0.00
   -9   -3   18      0.19      0.00
   -9   -3   17      0.20      0.00
   -9   -3   16     -0.30      0.00
   -9   -3   15      0.26      0.00
   -9   -3   14     -0.54      0.00
   -9   -3   13      0.76      0.00
   -9   -3   12     -0.42      0.00
   -9   -3   11     -0.33      0.00
   -9   -3   10      0.18      0.00
   -9   -3    9      0.06      0.00
   -9   -3    8      0.31      0.00
   -9   -3    7     -0.44      0.00
   -9   -3    6      0.96      0.00
   -9   -3    5     -0.72      0.00
   -9   -3    4      0.09      0.00
   -9   -3    3      0.20      0.00
   -9   -3    2     -0.44      0.00
   -9   -3    1      0.03      0.00
    9    3    0      0.12      0.00
    9    3    1      0.03      0.00
    9    3    2     -0.16      0.00
    9    3    3     -0.28      0.00
    9    3    4      0.75      0.00
    9    3    5     -0.52      0.00
    9    3    6     -0.19      0.00
    9    3    7      0.31      0.00
    9    3    8      0.40      0.00
    9    3    9     -0.57      0.00
    9    3   10      0.04      0.00
    9    3   11      0.25      0.00
    9    3   12      0.30      0.00
    9    3   13     -0.49      0.00
   -9   -4   20     -0.23      0.00
   -9   -4   19      0.60      0.00
   -9   -4   18     -0.50      0.00
   -9   -4   17      0.07      0.00
   -9   -4   16     -0.17      0.00
   -9   -4   15      0.50      0.00
   -9   -4   14     -0.08      0.00
   -9   -4   13     -0.56      0.00
   -9   -4   12      0.68      0.00
   -9   -4   11     -0.29      0.00
   -9   -4   10      0.16      0.00
   -9   -4    9     -0.35      0.00
   -9   -4    8      0.46      0.00
   -9   -4    7     -0.54      0.00
   -9   -4    6     -0.34      0.00
   -9   -4    5      0.86      0.00
   -9   -4    4     -0.48      0.00
   -9   -4    3      0.23      0.00
   -9   -4    2      0.02      0.00
   -9   -4    1      0.25      0.00
    9    4    0     -0.36      0.00
    9    4    1      0.11      0.00
    9    4    2      0.13      0.00
    9    4    3     -0.03      0.00
    9    4    4     -0.19      0.00
    9    4    5      0.32      0.00
    9    4    6     -0.08      0.00
    9    4    7     -0.34      0.00
    9    4    8     -0.03      0.00
    9    4    9      0.49      0.00
    9    4   10     -0.47      0.00
    9    4   11     -0.02      0.00
    9    4   12     -0.11      0.00
    9    4   13      0.44      0.00
   -9   -5   19     -0.34      0.00
   -9   -5   18      0.40      0.00
   -9   -5   17      0.05      0.00
   -9   -5   16      0.05      0.00
   -9   -5   15     -0.80      0.00
   -9   -5   14      0.77      0.00
   -9   -5   13     -0.24      0.00
   -9   -5   12      0.03      0.00
   -9   -5   11      0.15      0.00
   -9   -5   10     -0.14      0.00
   -9   -5    9      0.03      0.00
   -9   -5    8     -0.38      0.00
   -9   -5    7      1.04      0.00
   -9   -5    6     -0.60      0.00
   -9   -5    5     -0.04      0.00
   -9   -5    4     -0.08      0.00
   -9   -5    3      0.23      0.00
   -9   -5    2     -0.45      0.00
   -9   -5    1      0.11      0.00
    9    5    0      0.27      0.00
    9    5    1     -0.21      0.00
    9    5    2      0.09      0.00
    9    5    3     -0.16      0.00
    9    5    4     -0.01      0.00
    9    5    5      0.16      0.00
    9    5    6     -0.03      0.00
    9    5    7      0.37      0.00
    9    5    8     -0.49      0.00
    9    5    9      0.30      0.00
    9    5   10      0.02      0.00
    9    5   11      0.08      0.00
    9    5   12     -0.05      0.00
   -9   -6   19     -0.17      0.00
   -9   -6   18      0.04      0.00
   -9   -6   17     -0.44      0.00
   -9   -6   16      0.57      0.00
   -9   -6   15      0.17      0.00
   -9   -6   14     -0.41      0.00
   -9   -6   13      0.18      0.00
   -9   -6   12     -0.55      0.00
   -9   -6   11      0.39      0.00
   -9   -6   10     -0.07      0.00
   -9   -6    9      0.36      0.00
   -9   -6    8     -0.26      0.00
   -9   -6    7     -0.44      0.00
   -9   -6    6      0.36      0.00
   -9   -6    5     -0.04      0.00
   -9   -6    4      0.18      0.00
   -9   -6    3     -0.31      0.00
   -9   -6    2      0.85      0.00
   -9   -6    1     -0.89      0.00
    9    6    0      0.45      0.00
    9    6    1     -0.27      0.00
    9    6    2      0.15      0.00
    9    6    3      0.25      0.00
    9    6    4     -0.25      0.00
    9    6    5     -0.21      0.00
    9    6    6      0.01      0.00
    9    6    7     -0.04      0.00
    9    6    8      0.28      0.00
    9    6    9     -0.49      0.00
    9    6   10      0.48      0.00
    9    6   11     -0.45      0.00
    9    6   12      0.33      0.00
   -9   -7   19      0.14      0.00
   -9   -7   18     -0.19      0.00
   -9   -7   17      0.49      0.00
   -9   -7   16     -0.73      0.00
   -9   -7   15      0.29      0.00
   -9   -7   14     -0.20      0.00
   -9   -7   13      0.75      0.00
   -9   -7   12     -0.05      0.00
   -9   -7   11     -0.46      0.00
   -9   -7   10      0.15      0.00
   -9   -7    9     -0.32      0.00
   -9   -7    8      0.33      0.00
   -9   -7    7      0.06      0.00
   -9   -7    6      0.23      0.00
   -9   -7    5     -0.45      0.00
   -9   -7    4      0.28      0.00
   -9   -7    3     -0.56      0.00
   -9   -7    2      0.06      0.00
   -9   -7    1      0.59      0.00
    9    7    0     -0.59      0.00
    9    7    1      0.54      0.00
    9    7    2     -0.50      0.00
    9    7    3      0.08      0.00
    9    7    4      0.29      0.00
    9    7    5      0.08      0.00
    9    7    6      0.07      0.00
    9    7    7     -0.25      0.00
    9    7    8      0.18      0.00
    9    7    9     -0.13      0.00
    9    7   10     -0.10      0.00
    9    7   11      0.32      0.00
   -9   -8   18     -0.16      0.00
   -9   -8   17     -0.15      0.00
   -9   -8   16      0.24      0.00
   -9   -8   15      0.10      0.00
   -9   -8   14     -0.26      0.00
   -9   -8   13     -0.90      0.00
   -9   -8   12      0.88      0.00
   -9   -8   11     -0.01      0.00
   -9   -8   10     -0.08      0.00
   -9   -8    9      0.24      0.00
   -9   -8    8     -0.01      0.00
   -9   -8    7     -0.37      0.00
   -9   -8    6     -0.20      0.00
   -9   -8    5      0.48      0.00
   -9   -8    4     -0.10      0.00
   -9   -8    3      0.76      0.00
   -9   -8    2     -1.02      0.00
   -9   -8    1      0.41      0.00
    9    8    0     -0.14      0.00
    9    8    1     -0.02      0.00
    9    8    2      0.17      0.00
    9    8    3     -0.15      0.00
    9    8    4     -0.11      0.00
    9    8    5     -0.06      0.00
    9    8    6     -0.13      0.00
    9    8    7      0.28      0.00
    9    8    8     -0.07      0.00
    9    8    9      0.29      0.00
    9    8   10     -0.37      0.00
    9    8   11      0.11      0.00
   -9   -9   18      0.46      0.00
   -9   -9   17     -0.04      0.00
   -9   -9   16      0.10      0.00
   -9   -9   15     -0.41      0.00
   -9   -9   14      1.09      0.00
   -9   -9   13     -0.18      0.00
   -9   -9   12     -0.75      0.00
   -9   -9   11      0.31      0.00
   -9   -9   10      0.00      0.00
   -9   -9    9     -0.38      0.00
   -9   -9    8     -0.01      0.00
   -9   -9    7      0.67      0.00
   -9   -9    6     -0.03      0.00
   -9   -9    5     -0.41      0.00
   -9   -9    4     -0.39      0.00
   -9   -9    3      0.15      0.00
   -9   -9    2      0.63      0.00
   -9   -9    1     -0.54      0.00
    9    9    0      0.45      0.00
    9    9    1     -0.37      0.00
    9    9    2      0.35      0.00
    9    9    3     -0.19      0.00
    9    9    4      0.03      0.00
    9    9    5      0.20      0.00
    9    9    6      0.17      0.00
    9    9    7     -0.46      0.00
    9    9    8     -0.15      0.00
    9    9    9      0.17      0.00
    9    9   10      0.16      0.00
   -9  -10   18     -0.36      0.00
   -9  -10   17     -0.17      0.00
   -9  -10   16      0.03      0.00
   -9  -10   15      0.00      0.00
   -9  -10   14     -0.84      0.00
   -9  -10   13      0.98      0.00
   -9  -10   12      0.07      0.00
   -9  -10   11     -0.21      0.00
   -9  -10   10      0.06      0.00
   -9  -10    9      0.49      0.00
   -9  -10    8     -0.20      0.00
   -9  -10    7     -0.78      0.00
   -9  -10    6      0.23      0.00
   -9  -10    5      0.58      0.00
   -9  -10    4      0.13      0.00
   -9  -10    3     -0.65      0.00
   -9  -10    2      0.22      0.00
   -9  -10    1     -0.10      0.00
    9   10    0     -0.01      0.00
    9   10    1      0.03      0.00
    9   10    2     -0.22      0.00
    9   10    3      0.36      0.00
    9   10    4     -0.03      0.00
    9   10    5     -0.50      0.00
    9   10    6      0.09      0.00
    9   10    7      0.61      0.00
    9   10    8     -0.05      0.00
    9   10    9     -0.33      0.00
   -9  -11   17      0.47      0.00
   -9  -11   16     -0.23      0.00
   -9  -11   15      0.40      0.00
   -9  -11   14     -0.22      0.00
   -9  -11   13     -0.66      0.00
   -9  -11   12      0.21      0.00
   -9  -11   11      0.10      0.00
   -9  -11   10     -0.13      0.00
   -9  -11    9     -0.40      0.00
   -9  -11    8      0.42      0.00
   -9  -11    7      0.76      0.00
   -9  -11    6     -0.61      0.00
   -9  -11    5     -0.38      0.00
   -9  -11    4      0.37      0.00
   -9  -11    3      0.20      0.00
   -9  -11    2     -0.38      0.00
   -9  -11    1      0.42      0.00
    9   11    0     -0.24      0.00
    9   11    1      0.25      0.00
    9   11    2     -0.20      0.00
    9   11    3     -0.20      0.00
    9   11    4      0.12      0.00
    9   11    5      0.60      0.00
    9   11    6     -0.49      0.00
    9   11    7     -0.39      0.00
    9   11    8      0.16      0.00
   -9  -12   15     -0.18      0.00
   -9  -12   14      0.80      0.00
   -9  -12   13     -0.01      0.00
   -9  -12   12     -0.11      0.00
   -9  -12   11     -0.12      0.00
   -9  -12   10      0.18      0.00
   -9  -12    9      0.19      0.00
   -9  -12    8     -0.64      0.00
   -9  -12    7     -0.37      0.00
   -9  -12    6      0.74      0.00
   -9  -12    5     -0.14      0.00
   -9  -12    4     -0.27      0.00
   -9  -12    3      0.30      0.00
   -9  -12    2      0.10      0.00
   -9  -12    1     -0.40      0.00
    9   12    0      0.11      0.00
    9   12    1     -0.01      0.00
    9   12    2      0.19      0.00
    9   12    3      0.07      0.00
    9   12    4     -0.22      0.00
    9   12    5     -0.32      0.00
    9   12    6      0.46      0.00
    9   12    7      0.23      0.00
   -9  -13   14     -0.65      0.00
   -9  -13   13      0.36      0.00
   -9  -13   12      0.08      0.00
   -9  -13   11      0.09      0.00
   -9  -13   10     -0.10      0.00
   -9  -13    9      0.08      0.00
   -9  -13    8      0.62      0.00
   -9  -13    7     -0.20      0.00
   -9  -13    6     -0.30      0.00
   -9  -13    5      0.22      0.00
   -9  -13    4     -0.08      0.00
   -9  -13    3     -0.45      0.00
   -9  -13    2      0.17      0.00
   -9  -13    1      0.44      0.00
    9   13    0     -0.14      0.00
    9   13    1     -0.23      0.00
    9   13    2      0.11      0.00
    9   13    3     -0.15      0.00
    9   13    4      0.21      0.00
    9   13    5      0.13      0.00
    9   13    6     -0.22      0.00
   -9  -14   15      0.55      0.00
   -9  -14   14      0.26      0.00
   -9  -14   13     -0.51      0.00
   -9  -14   12     -0.09      0.00
   -9  -14   11     -0.01      0.00
   -9  -14   10     -0.08      0.00
   -9  -14    9     -0.27      0.00
   -9  -14    8     -0.19      0.00
   -9  -14    7      0.34      0.00
   -9  -14    6     -0.06      0.00
   -9  -14    5      0.09      0.00
   -9  -14    4      0.20      0.00
   -9  -14    3      0.42      0.00
   -9  -14    2     -0.46      0.00
   -9  -14    1     -0.41      0.00
    9   14    0      0.32      0.00
    9   14    1      0.09      0.00
    9   14    2     -0.17      0.00
    9   14    3      0.31      0.00
    9   14    4     -0.22      0.00
    9   14    5     -0.17      0.00
   -9  -15   13      0.56      0.00
   -9  -15   12      0.01      0.00
   -9  -15   11     -0.01      0.00
   -9  -15    9      0.17      0.00
   -9  -15    8     -0.26      0.00
   -9  -15    7     -0.10      0.00
   -9  -15    6     -0.05      0.00
   -9  -15    5     -0.19      0.00
   -9  -15    4     -0.21      0.00
   -9  -15    3     -0.17      0.00
   -9  -15    2      0.61      0.00
   -9  -15    1      0.22      0.00
    9   15    0     -0.32      0.00
    9   15    1      0.08      0.00
    9   15    2     -0.13      0.00
    9   15    3     -0.24      0.00
   -9  -16   12      0.09      0.00
   -9  -16   11      0.00      0.00
   -9  -16   10     -0.36      0.00
   -9  -16    9      0.20      0.00
   -9  -16    8      0.32      0.00
   -9  -16    7      0.01      0.00
   -9  -16    6      0.20      0.00
   -9  -16    4      0.13      0.00
   -9  -16    3     -0.14      0.00
   -9  -16    2     -0.45      0.00
   -9  -16    1     -0.14      0.00
    9   16    0      0.17      0.00
    9   16    1      0.10      0.00
   -9  -17    9     -0.45      0.00
   -9  -17    8     -0.14      0.00
   -9  -17    6     -0.07      0.00
   -9  -17    5     -0.02      0.00
   -9  -17    4      0.14      0.00
   -9  -17    3      0.14      0.00
   -9  -17    2      0.27      0.00
   -9  -17    1      0.20      0.00
   -9  -18    6     -0.06      0.00
  -10   14   12     -0.29      0.00
  -10   14    9     -0.69      0.00
  -10   14    7      0.42      0.00
  -10   14    5     -0.61      0.00
  -10   13   14      0.31      0.00
  -10   13   13     -0.50      0.00
  -10   13   12      0.82      0.00
  -10   13    8      0.07      0.00
  -10   13    7     -0.73      0.00
  -10   13    6     -0.20      0.00
  -10   13    5      0.71      0.00
  -10   12   15     -0.50      0.00
  -10   12   13     -0.18      0.00
  -10   12   12     -0.09      0.00
  -10   12   11      0.51      0.00
  -10   12   10     -0.26      0.00
  -10   12    9      0.17      0.00
  -10   12    8     -0.35      0.00
  -10   12    7      1.10      0.00
  -10   12    6     -0.53      0.00
  -10   12    5     -0.36      0.00
  -10   12    4      0.14      0.00
  -10   12    3     -0.03      0.00
  -10   12    2      0.04      0.00
  -10   11   16     -0.15      0.00
  -10   11   15      0.53      0.00
  -10   11   14      0.04      0.00
  -10   11   13      0.32      0.00
  -10   11   12     -0.84      0.00
  -10   11   11      0.29      0.00
  -10   11   10     -0.62      0.00
  -10   11    9      0.55      0.00
  -10   11    8     -0.08      0.00
  -10   11    7     -0.78      0.00
  -10   11    6      0.90      0.00
  -10   11    5      0.00      0.00
  -10   11    4      0.14      0.00
  -10   11    3     -0.27      0.00
  -10   11    2     -0.03      0.00
  -10   11    0     -0.23      0.00
   10  -11    1     -0.04      0.00
  -10   10   16      0.05      0.00
  -10   10   15     -0.30      0.00
  -10   10   14     -0.61      0.00
  -10   10   13      0.71      0.00
  -10   10   12      0.42      0.00
  -10   10   11     -0.06      0.00
  -10   10   10      0.77      0.00
  -10   10    9     -1.37      0.00
  -10   10    8      0.94      0.00
  -10   10    7     -0.23      0.00
  -10   10    6     -0.49      0.00
  -10   10    5     -0.10      0.00
  -10   10    4     -0.02      0.00
  -10   10    3      0.49      0.00
  -10   10    2     -0.30      0.00
  -10   10    1     -0.18      0.00
  -10   10    0      0.24      0.00
   10  -10    1     -0.07      0.00
   10  -10    2      0.73      0.00
   10  -10    3     -0.90      0.00
   10  -10    5      0.57      0.00
   10  -10    6     -0.35      0.00
   10  -10    8     -0.02      0.00
  -10    9   17     -0.09      0.00
  -10    9   16     -0.27      0.00
  -10    9   15      0.59      0.00
  -10    9   14      0.44      0.00
  -10    9   13     -1.37      0.00
  -10    9   12      0.40      0.00
  -10    9   11     -0.99      0.00
  -10    9   10      0.58      0.00
  -10    9    9      0.78      0.00
  -10    9    8     -0.85      0.00
  -10    9    7      0.78      0.00
  -10    9    6     -0.03      0.00
  -10    9    5      0.30      0.00
  -10    9    4     -0.44      0.00
  -10    9    3     -0.18      0.00
  -10    9    2      0.34      0.00
  -10    9    1     -0.26      0.00
  -10    9    0      0.26      0.00
   10   -9    1     -0.37      0.00
   10   -9    2     -0.45      0.00
   10   -9    3      1.08      0.00
   10   -9    4     -0.53      0.00
   10   -9    5     -0.06      0.00
   10   -9    6     -0.08      0.00
  -10    8   17      0.24      0.00
  -10    8   16      0.50      0.00
  -10    8   15     -1.16      0.00
  -10    8   14      0.55      0.00
  -10    8   13      0.67      0.00
  -10    8   12      0.00      0.00
  -10    8   11      0.84      0.00
  -10    8   10     -1.55      0.00
  -10    8    9      0.36      0.00
  -10    8    8     -0.09      0.00
  -10    8    7     -0.37      0.00
  -10    8    6      0.03      0.00
  -10    8    5     -0.06      0.00
  -10    8    4      0.54      0.00
  -10    8    3     -0.25      0.00
  -10    8    2      0.17      0.00
  -10    8    1      0.14      0.00
  -10    8    0     -0.57      0.00
   10   -8    1      0.85      0.00
   10   -8    2     -0.17      0.00
   10   -8    3     -0.54      0.00
   10   -8    4      0.21      0.00
   10   -8    5      0.16      0.00
   10   -8    6      0.23      0.00
   10   -8    7     -0.64      0.00
   10   -8    8      0.52      0.00
   10   -8    9     -0.12      0.00
  -10    7   18      0.37      0.00
  -10    7   17     -0.74      0.00
  -10    7   16     -0.03      0.00
  -10    7   15      1.00      0.00
  -10    7   14     -0.96      0.00
  -10    7   13      0.07      0.00
  -10    7   12     -0.83      0.00
  -10    7   11      0.50      0.00
  -10    7   10      0.92      0.00
  -10    7    9     -0.49      0.00
  -10    7    8      0.56      0.00
  -10    7    7     -0.15      0.00
  -10    7    6      0.11      0.00
  -10    7    5     -0.33      0.00
  -10    7    4     -0.15      0.00
  -10    7    3      0.13      0.00
  -10    7    2     -0.55      0.00
  -10    7    1      0.42      0.00
  -10    7    0      0.29      0.00
   10   -7    1     -0.80      0.00
   10   -7    2      0.33      0.00
   10   -7    3      0.23      0.00
   10   -7    4      0.24      0.00
   10   -7    5     -0.68      0.00
   10   -7    6      0.24      0.00
   10   -7    7      0.38      0.00
   10   -7    8     -0.48      0.00
   10   -7    9      0.22      0.00
   10   -7   10      0.04      0.00
  -10    6   18     -0.16      0.00
  -10    6   17      1.06      0.00
  -10    6   16     -0.77      0.00
  -10    6   15     -0.15      0.00
  -10    6   14      0.33      0.00
  -10    6   13      0.20      0.00
  -10    6   12      0.58      0.00
  -10    6   11     -1.13      0.00
  -10    6   10      0.02      0.00
  -10    6    9     -0.05      0.00
  -10    6    8     -0.28      0.00
  -10    6    7      0.25      0.00
  -10    6    6     -0.07      0.00
  -10    6    5      0.44      0.00
  -10    6    4     -0.11      0.00
  -10    6    3      0.28      0.00
  -10    6    2      0.33      0.00
  -10    6    1     -0.69      0.00
  -10    6    0      0.09      0.00
   10   -6    1      0.46      0.00
   10   -6    2     -0.12      0.00
   10   -6    3     -0.43      0.00
   10   -6    4     -0.12      0.00
   10   -6    5      0.69      0.00
   10   -6    6     -0.53      0.00
   10   -6    7      0.11      0.00
   10   -6    8      0.04      0.00
   10   -6    9     -0.02      0.00
   10   -6   10     -0.32      0.00
   10   -6   11     -0.11      0.00
   10   -6   12      1.10      0.00
  -10    5   18     -0.51      0.00
  -10    5   17     -0.50      0.00
  -10    5   16      0.88      0.00
  -10    5   15     -0.28      0.00
  -10    5   14      0.25      0.00
  -10    5   13     -0.70      0.00
  -10    5   12      0.27      0.00
  -10    5   11      0.65      0.00
  -10    5   10     -0.19      0.00
  -10    5    9      0.24      0.00
  -10    5    8     -0.09      0.00
  -10    5    7     -0.09      0.00
  -10    5    6     -0.03      0.00
  -10    5    5     -0.46      0.00
  -10    5    4      0.15      0.00
  -10    5    3     -0.47      0.00
  -10    5    2      0.12      0.00
  -10    5    1      0.54      0.00
  -10    5    0     -0.18      0.00
   10   -5    1     -0.23      0.00
   10   -5    2      0.03      0.00
   10   -5    3      0.54      0.00
   10   -5    4     -0.05      0.00
   10   -5    5     -0.31      0.00
   10   -5    6      0.09      0.00
   10   -5    7     -0.07      0.00
   10   -5    8      0.26      0.00
   10   -5    9     -0.22      0.00
   10   -5   10      0.65      0.00
   10   -5   11     -0.62      0.00
   10   -5   12     -0.81      0.00
   10   -5   13      1.05      0.00
  -10    4   18      0.92      0.00
  -10    4   17     -0.42      0.00
  -10    4   16     -0.29      0.00
  -10    4   15     -0.06      0.00
  -10    4   14     -0.10      0.00
  -10    4   13      0.57      0.00
  -10    4   12     -0.55      0.00
  -10    4   11     -0.17      0.00
  -10    4   10      0.09      0.00
  -10    4    9     -0.09      0.00
  -10    4    8      0.25      0.00
  -10    4    7     -0.25      0.00
  -10    4    6      0.42      0.00
  -10    4    5      0.31      0.00
  -10    4    4     -0.13      0.00
  -10    4    3      0.40      0.00
  -10    4    2     -0.46      0.00
  -10    4    1     -0.25      0.00
  -10    4    0      0.08      0.00
   10   -4    1      0.07      0.00
   10   -4    2      0.07      0.00
   10   -4    3     -0.52      0.00
   10   -4    4     -0.11      0.00
   10   -4    5      0.43      0.00
   10   -4    6      0.37      0.00
   10   -4    7     -0.47      0.00
   10   -4    8     -0.08      0.00
   10   -4    9      0.11      0.00
   10   -4   10     -0.52      0.00
   10   -4   11      1.21      0.00
   10   -4   12     -0.18      0.00
   10   -4   13     -0.87      0.00
  -10    3   19     -0.31      0.00
  -10    3   18     -0.53      0.00
  -10    3   17      0.73      0.00
  -10    3   16     -0.09      0.00
  -10    3   15      0.44      0.00
  -10    3   14     -0.34      0.00
  -10    3   13     -0.14      0.00
  -10    3   12      0.38      0.00
  -10    3   11      0.01      0.00
  -10    3   10     -0.13      0.00
  -10    3    9     -0.15      0.00
  -10    3    8     -0.02      0.00
  -10    3    7      0.33      0.00
  -10    3    6     -0.94      0.00
  -10    3    5      0.33      0.00
  -10    3    4     -0.21      0.00
  -10    3    3      0.01      0.00
  -10    3    2      0.52      0.00
  -10    3    1     -0.01      0.00
  -10    3    0      0.14      0.00
   10   -3    1     -0.10      0.00
   10   -3    2     -0.23      0.00
   10   -3    3      0.75      0.00
   10   -3    4      0.05      0.00
   10   -3    5     -0.96      0.00
   10   -3    6     -0.14      0.00
   10   -3    7      0.83      0.00
   10   -3    8     -0.27      0.00
   10   -3    9      0.21      0.00
   10   -3   10     -0.17      0.00
   10   -3   11     -0.85      0.00
   10   -3   12      0.93      0.00
   10   -3   13     -0.02      0.00
  -10    2   19      0.60      0.00
  -10    2   18     -0.08      0.00
  -10    2   17     -0.45      0.00
  -10    2   16     -0.10      0.00
  -10    2   15     -0.27      0.00
  -10    2   14      0.55      0.00
  -10    2   13     -0.20      0.00
  -10    2   12     -0.17      0.00
  -10    2   11      0.09      0.00
  -10    2   10      0.22      0.00
  -10    2    9      0.29      0.00
  -10    2    8     -0.53      0.00
  -10    2    7      0.39      0.00
  -10    2    6      0.49      0.00
  -10    2    5     -0.59      0.00
  -10    2    4      0.58      0.00
  -10    2    3     -0.66      0.00
  -10    2    2     -0.17      0.00
  -10    2    1      0.03      0.00
  -10    2    0     -0.28      0.00
   10   -2    1      0.40      0.00
   10   -2    2      0.02      0.00
   10   -2    3     -0.86      0.00
   10   -2    4      0.53      0.00
   10   -2    5      1.06      0.00
   10   -2    6     -0.53      0.00
   10   -2    7     -0.60      0.00
   10   -2    8      0.30      0.00
   10   -2    9     -0.21      0.00
   10   -2   10      0.69      0.00
   10   -2   11     -0.23      0.00
   10   -2   12     -0.50      0.00
   10   -2   13      0.55      0.00
  -10    1   19     -0.47      0.00
  -10    1   18      0.31      0.00
  -10    1   17      0.25      0.00
  -10    1   16      0.39      0.00
  -10    1   15     -0.35      0.00
  -10    1   14     -0.32      0.00
  -10    1   13      0.36      0.00
  -10    1   12     -0.10      0.00
  -10    1   11     -0.06      0.00
  -10    1   10     -0.42      0.00
  -10    1    9      0.02      0.00
  -10    1    8      0.49      0.00
  -10    1    7     -0.86      0.00
  -10    1    6      0.66      0.00
  -10    1    5     -0.24      0.00
  -10    1    4     -0.08      0.00
  -10    1    3      0.75      0.00
  -10    1    2     -0.21      0.00
  -10    1    1      0.14      0.00
  -10    1    0      0.05      0.00
   10   -1    1     -0.47      0.00
   10   -1    2      0.42      0.00
   10   -1    3      0.40      0.00
   10   -1    4     -1.00      0.00
   10   -1    5     -0.50      0.00
   10   -1    6      0.88      0.00
   10   -1    7      0.12      0.00
   10   -1    8     -0.09      0.00
   10   -1    9     -0.17      0.00
   10   -1   10     -0.37      0.00
   10   -1   11      0.77      0.00
   10   -1   12     -0.53      0.00
   10   -1   13     -0.12      0.00
  -10    0   18     -0.24      0.00
  -10    0   17     -0.36      0.00
  -10    0   16     -0.25      0.00
  -10    0   15      0.86      0.00
  -10    0   14     -0.30      0.00
  -10    0   13     -0.06      0.00
  -10    0   12      0.11      0.00
  -10    0   11      0.00      0.00
  -10    0   10      0.56      0.00
  -10    0    9     -0.46      0.00
  -10    0    8      0.24      0.00
  -10    0    7     -0.05      0.00
  -10    0    6     -0.63      0.00
  -10    0    5      0.78      0.00
  -10    0    4     -0.72      0.00
  -10    0    3     -0.09      0.00
  -10    0    2      0.06      0.00
  -10    0    1     -0.01      0.00
   10    0    0      0.22      0.00
   10    0    1      0.06      0.00
   10    0    2     -0.41      0.00
   10    0    3      0.21      0.00
   10    0    4      0.92      0.00
   10    0    5     -0.27      0.00
   10    0    6     -0.65      0.00
   10    0    7      0.15      0.00
   10    0    8      0.02      0.00
   10    0    9      0.32      0.00
   10    0   10     -0.27      0.00
   10    0   11     -0.22      0.00
   10    0   12      0.78      0.00
   10    0   13     -0.51      0.00
  -10   -1   19     -0.08      0.00
  -10   -1   18      0.09      0.00
  -10   -1   17      0.56      0.00
  -10   -1   16     -0.36      0.00
  -10   -1   15     -0.63      0.00
  -10   -1   14      0.61      0.00
  -10   -1   13     -0.47      0.00
  -10   -1   12      0.40      0.00
  -10   -1   11     -0.31      0.00
  -10   -1   10     -0.28      0.00
  -10   -1    9      0.25      0.00
  -10   -1    8     -0.22      0.00
  -10   -1    7      0.93      0.00
  -10   -1    6     -0.49      0.00
  -10   -1    5     -0.02      0.00
  -10   -1    4      0.41      0.00
  -10   -1    3     -0.19      0.00
  -10   -1    2      0.15      0.00
  -10   -1    1     -0.37      0.00
   10    1    0     -0.03      0.00
   10    1    1      0.21      0.00
   10    1    2      0.04      0.00
   10    1    3     -0.44      0.00
   10    1    4     -0.50      0.00
   10    1    5      0.73      0.00
   10    1    6      0.14      0.00
   10    1    7     -0.20      0.00
   10    1    8     -0.02      0.00
   10    1    9     -0.02      0.00
   10    1   10      0.25      0.00
   10    1   11     -0.39      0.00
   10    1   12     -0.13      0.00
  -10   -2   19     -0.03      0.00
  -10   -2   18      0.00      0.00
  -10   -2   17     -0.55      0.00
  -10   -2   16      0.87      0.00
  -10   -2   15     -0.22      0.00
  -10   -2   14      0.02      0.00
  -10   -2   13      0.23      0.00
  -10   -2   12     -0.71      0.00
  -10   -2   11      0.69      0.00
  -10   -2   10     -0.06      0.00
  -10   -2    9      0.19      0.00
  -10   -2    8     -0.71      0.00
  -10   -2    7     -0.24      0.00
  -10   -2    6      0.55      0.00
  -10   -2    5     -0.49      0.00
  -10   -2    4      0.41      0.00
  -10   -2    3     -0.24      0.00
  -10   -2    2      0.09      0.00
  -10   -2    1      0.40      0.00
   10    2    0     -0.30      0.00
   10    2    1     -0.01      0.00
   10    2    2      0.07      0.00
   10    2    3      0.48      0.00
   10    2    4      0.01      0.00
   10    2    5     -0.73      0.00
   10    2    6      0.26      0.00
   10    2    7      0.18      0.00
   10    2    8     -0.25      0.00
   10    2    9     -0.04      0.00
   10    2   10      0.16      0.00
   10    2   11      0.23      0.00
   10    2   12     -0.35      0.00
  -10   -3   18      0.13      0.00
  -10   -3   17      0.13      0.00
  -10   -3   16     -0.56      0.00
  -10   -3   15      0.51      0.00
  -10   -3   14     -0.80      0.00
  -10   -3   13      0.77      0.00
  -10   -3   12      0.16      0.00
  -10   -3   11     -0.52      0.00
  -10   -3   10     -0.05      0.00
  -10   -3    9      0.11      0.00
  -10   -3    8      0.79      0.00
  -10   -3    7     -0.62      0.00
  -10   -3    6      0.41      0.00
  -10   -3    5     -0.25      0.00
  -10   -3    4     -0.36      0.00
  -10   -3    3      0.43      0.00
  -10   -3    2     -0.29      0.00
  -10   -3    1     -0.17      0.00
   10    3    0      0.31      0.00
   10    3    1     -0.16      0.00
   10    3    2      0.07      0.00
   10    3    3     -0.57      0.00
   10    3    4      0.43      0.00
   10    3    5      0.41      0.00
   10    3    6     -0.44      0.00
   10    3    7      0.02      0.00
   10    3    8      0.45      0.00
   10    3    9     -0.39      0.00
   10    3   10     -0.07      0.00
   10    3   11      0.13      0.00
   10    3   12      0.22      0.00
  -10   -4   18     -0.33      0.00
  -10   -4   17      0.30      0.00
  -10   -4   16     -0.27      0.00
  -10   -4   15      0.29      0.00
  -10   -4   14      0.40      0.00
  -10   -4   13     -1.13      0.00
  -10   -4   12      0.47      0.00
  -10   -4   11      0.06      0.00
  -10   -4   10      0.29      0.00
  -10   -4    9     -0.62      0.00
  -10   -4    8      0.19      0.00
  -10   -4    7      0.07      0.00
  -10   -4    6     -0.48      0.00
  -10   -4    5      0.79      0.00
  -10   -4    4     -0.09      0.00
  -10   -4    3     -0.34      0.00
  -10   -4    2      0.25      0.00
  -10   -4    1      0.12      0.00
   10    4    0     -0.19      0.00
   10    4    1      0.03      0.00
   10    4    2      0.01      0.00
   10    4    3      0.52      0.00
   10    4    4     -0.65      0.00
   10    4    5     -0.09      0.00
   10    4    6      0.40      0.00
   10    4    7     -0.36      0.00
   10    4    8     -0.07      0.00
   10    4    9      0.45      0.00
   10    4   10     -0.31      0.00
   10    4   11     -0.07      0.00
  -10   -5   18      0.17      0.00
  -10   -5   17     -0.16      0.00
  -10   -5   16      0.48      0.00
  -10   -5   15     -0.96      0.00
  -10   -5   14      0.60      0.00
  -10   -5   13      0.36      0.00
  -10   -5   12     -0.18      0.00
  -10   -5   11     -0.06      0.00
  -10   -5   10     -0.20      0.00
  -10   -5    9      0.37      0.00
  -10   -5    8     -0.59      0.00
  -10   -5    7      0.73      0.00
  -10   -5    6     -0.21      0.00
  -10   -5    5     -0.46      0.00
  -10   -5    4      0.09      0.00
  -10   -5    3      0.54      0.00
  -10   -5    2     -0.61      0.00
  -10   -5    1      0.10      0.00
   10    5    0      0.12      0.00
   10    5    1      0.13      0.00
   10    5    2     -0.33      0.00
   10    5    3     -0.17      0.00
   10    5    4      0.57      0.00
   10    5    5     -0.04      0.00
   10    5    6     -0.18      0.00
   10    5    7      0.38      0.00
   10    5    8     -0.46      0.00
   10    5    9      0.16      0.00
   10    5   10      0.14      0.00
  -10   -6   18      0.26      0.00
  -10   -6   17     -0.38      0.00
  -10   -6   16      0.14      0.00
  -10   -6   15      0.47      0.00
  -10   -6   14     -0.60      0.00
  -10   -6   13      0.09      0.00
  -10   -6   12     -0.47      0.00
  -10   -6   11      0.56      0.00
  -10   -6   10     -0.04      0.00
  -10   -6    9      0.18      0.00
  -10   -6    8      0.07      0.00
  -10   -6    7     -0.59      0.00
  -10   -6    6      0.26      0.00
  -10   -6    5      0.35      0.00
  -10   -6    4     -0.28      0.00
  -10   -6    3     -0.34      0.00
  -10   -6    2      0.95      0.00
  -10   -6    1     -0.63      0.00
   10    6    0      0.08      0.00
   10    6    1     -0.13      0.00
   10    6    2      0.50      0.00
   10    6    3     -0.24      0.00
   10    6    4     -0.34      0.00
   10    6    5      0.00      0.00
   10    6    6     -0.01      0.00
   10    6    7      0.05      0.00
   10    6    8      0.31      0.00
   10    6    9     -0.47      0.00
   10    6   10      0.29      0.00
  -10   -7   17      0.52      0.00
  -10   -7   16     -0.44      0.00
  -10   -7   15      0.17      0.00
  -10   -7   14     -0.21      0.00
  -10   -7   13      0.64      0.00
  -10   -7   12      0.23      0.00
  -10   -7   11     -0.88      0.00
  -10   -7   10      0.22      0.00
  -10   -7    9     -0.30      0.00
  -10   -7    8      0.20      0.00
  -10   -7    7      0.33      0.00
  -10   -7    6      0.05      0.00
  -10   -7    5     -0.53      0.00
  -10   -7    4      0.71      0.00
  -10   -7    3     -0.68      0.00
  -10   -7    1      0.67      0.00
   10    7    0     -0.18      0.00
   10    7    1     -0.07      0.00
   10    7    2     -0.29      0.00
   10    7    3      0.42      0.00
   10    7    4      0.16      0.00
   10    7    5      0.02      0.00
   10    7    6     -0.02      0.00
   10    7    7     -0.35      0.00
   10    7    8      0.19      0.00
   10    7    9      0.07      0.00
  -10   -8   17     -0.22      0.00
  -10   -8   16     -0.03      0.00
  -10   -8   15      0.21      0.00
  -10   -8   14      0.13      0.00
  -10   -8   13     -1.22      0.00
  -10   -8   12      0.73      0.00
  -10   -8   11      0.57      0.00
  -10   -8   10     -0.33      0.00
  -10   -8    9      0.27      0.00
  -10   -8    8     -0.08      0.00
  -10   -8    7     -0.52      0.00
  -10   -8    6      0.05      0.00
  -10   -8    5      0.28      0.00
  -10   -8    4     -0.29      0.00
  -10   -8    3      1.06      0.00
  -10   -8    2     -0.82      0.00
  -10   -8    1     -0.07      0.00
   10    8    0     -0.02      0.00
   10    8    2     -0.20      0.00
   10    8    3     -0.29      0.00
   10    8    4     -0.04      0.00
   10    8    5      0.04      0.00
   10    8    6      0.07      0.00
   10    8    7      0.28      0.00
   10    8    8     -0.25      0.00
  -10   -9   16      0.27      0.00
  -10   -9   15     -0.77      0.00
  -10   -9   14      0.84      0.00
  -10   -9   13      0.49      0.00
  -10   -9   12     -1.12      0.00
  -10   -9   11      0.01      0.00
  -10   -9   10      0.30      0.00
  -10   -9    9     -0.39      0.00
  -10   -9    8      0.10      0.00
  -10   -9    7      0.66      0.00
  -10   -9    6     -0.12      0.00
  -10   -9    5     -0.15      0.00
  -10   -9    4     -0.58      0.00
  -10   -9    3     -0.09      0.00
  -10   -9    2      0.78      0.00
  -10   -9    1     -0.19      0.00
   10    9    0      0.08      0.00
   10    9    1     -0.47      0.00
   10    9    2      0.57      0.00
   10    9    3      0.01      0.00
   10    9    4     -0.11      0.00
   10    9    5      0.02      0.00
   10    9    6     -0.04      0.00
   10    9    7     -0.19      0.00
  -10  -10   16      0.16      0.00
  -10  -10   15      0.34      0.00
  -10  -10   14     -1.04      0.00
  -10  -10   13      0.56      0.00
  -10  -10   12      0.63      0.00
  -10  -10   11     -0.31      0.00
  -10  -10   10     -0.13      0.00
  -10  -10    9      0.45      0.00
  -10  -10    8     -0.17      0.00
  -10  -10    7     -0.76      0.00
  -10  -10    6      0.11      0.00
  -10  -10    5      0.63      0.00
  -10  -10    4      0.45      0.00
  -10  -10    3     -0.75      0.00
  -10  -10    2      0.00      0.00
  -10  -10    1     -0.15      0.00
   10   10    0      0.24      0.00
   10   10    1      0.12      0.00
   10   10    2     -0.48      0.00
   10   10    3      0.21      0.00
   10   10    4      0.17      0.00
   10   10    5     -0.25      0.00
   10   10    6      0.13      0.00
  -10  -11   15      0.40      0.00
  -10  -11   14      0.11      0.00
  -10  -11   13     -0.65      0.00
  -10  -11   12     -0.12      0.00
  -10  -11   11      0.32      0.00
  -10  -11   10      0.00      0.00
  -10  -11    9     -0.46      0.00
  -10  -11    8      0.30      0.00
  -10  -11    7      0.95      0.00
  -10  -11    6     -0.58      0.00
  -10  -11    5     -0.74      0.00
  -10  -11    4      0.33      0.00
  -10  -11    3      0.47      0.00
  -10  -11    2     -0.30      0.00
  -10  -11    1      0.35      0.00
   10   11    0     -0.40      0.00
   10   11    1      0.22      0.00
   10   11    2      0.11      0.00
   10   11    3     -0.24      0.00
   10   11    4      0.00      0.00
   10   11    5      0.30      0.00
  -10  -12   14      0.57      0.00
  -10  -12   13      0.14      0.00
  -10  -12   12      0.00      0.00
  -10  -12   11     -0.34      0.00
  -10  -12   10      0.13      0.00
  -10  -12    9      0.46      0.00
  -10  -12    8     -0.72      0.00
  -10  -12    7     -0.62      0.00
  -10  -12    6      1.00      0.00
  -10  -12    5      0.11      0.00
  -10  -12    4     -0.49      0.00
  -10  -12    3      0.07      0.00
  -10  -12    2      0.16      0.00
  -10  -12    1     -0.26      0.00
   10   12    0      0.17      0.00
   10   12    1     -0.10      0.00
   10   12    2      0.12      0.00
   10   12    3      0.06      0.00
   10   12    4     -0.17      0.00
  -10  -13   13      0.09      0.00
  -10  -13   12      0.15      0.00
  -10  -13    9     -0.16      0.00
  -10  -13    8      0.94      0.00
  -10  -13    7     -0.21      0.00
  -10  -13    6     -0.58      0.00
  -10  -13    5      0.21      0.00
  -10  -13    4      0.17      0.00
  -10  -13    3     -0.27      0.00
  -10  -13    2     -0.06      0.00
  -10  -13    1      0.32      0.00
   10   13    0     -0.01      0.00
   10   13    1     -0.24      0.00
   10   13    2      0.02      0.00
   10   13    3      0.11      0.00
  -10  -14   12     -0.36      0.00
  -10  -14   10      0.22      0.00
  -10  -14    9     -0.30      0.00
  -10  -14    8     -0.44      0.00
  -10  -14    7      0.53      0.00
  -10  -14    6      0.00      0.00
  -10  -14    5      0.07      0.00
  -10  -14    4     -0.08      0.00
  -10  -14    3      0.37      0.00
  -10  -14    2     -0.12      0.00
  -10  -14    1     -0.46      0.00
   10   14    0      0.15      0.00
   10   14    1      0.34      0.00
  -10  -15   10      0.13      0.00
  -10  -15    9      0.31      0.00
  -10  -15    8     -0.20      0.00
  -10  -15    7     -0.18      0.00
  -10  -15    5     -0.16      0.00
  -10  -15    2      0.40      0.00
  -10  -15    1      0.37      0.00
  -11   13   10      0.33      0.00
  -11   13    9     -0.52      0.00
  -11   13    8      0.36      0.00
  -11   12   13      0.02      0.00
  -11   12   11     -0.31      0.00
  -11   12   10      0.11      0.00
  -11   12    9      0.52      0.00
  -11   12    8     -0.64      0.00
  -11   12    7      0.88      0.00
  -11   12    6     -0.63      0.00
  -11   12    5     -0.17      0.00
  -11   12    4      0.15      0.00
  -11   11   13     -0.31      0.00
  -11   11   12     -0.83      0.00
  -11   11   11      0.92      0.00
  -11   11   10     -1.13      0.00
  -11   11    9      0.59      0.00
  -11   11    7     -0.38      0.00
  -11   11    6      0.88      0.00
  -11   11    5     -0.13      0.00
  -11   11    4     -0.05      0.00
  -11   10   16     -0.31      0.00
  -11   10   13      1.37      0.00
  -11   10   12     -0.14      0.00
  -11   10   11     -0.15      0.00
  -11   10   10      0.88      0.00
  -11   10    9     -1.30      0.00
  -11   10    8      0.78      0.00
  -11   10    7     -0.64      0.00
  -11   10    6     -0.34      0.00
  -11   10    5     -0.02      0.00
  -11   10    4      0.57      0.00
  -11   10    3      0.27      0.00
  -11   10    2     -0.93      0.00
  -11   10    1      0.33      0.00
  -11   10    0      0.43      0.00
   11  -10    2      0.62      0.00
  -11    9   16     -0.22      0.00
  -11    9   15      0.43      0.00
  -11    9   14      0.03      0.00
  -11    9   13     -1.45      0.00
  -11    9   12      0.87      0.00
  -11    9   11     -1.02      0.00
  -11    9   10      0.68      0.00
  -11    9    9      0.52      0.00
  -11    9    8     -0.42      0.00
  -11    9    7      0.85      0.00
  -11    9    6     -0.04      0.00
  -11    9    5     -0.04      0.00
  -11    9    4     -1.22      0.00
  -11    9    3      0.72      0.00
  -11    9    2      0.77      0.00
  -11    9    1     -1.10      0.00
  -11    9    0      0.27      0.00
   11   -9    1      0.28      0.00
   11   -9    2     -0.59      0.00
   11   -9    3      0.56      0.00
   11   -9    5      0.19      0.00
   11   -9    6     -0.22      0.00
  -11    8   16      0.55      0.00
  -11    8   15     -0.88      0.00
  -11    8   14      0.90      0.00
  -11    8   13      0.28      0.00
  -11    8   12     -0.12      0.00
  -11    8   11      0.65      0.00
  -11    8   10     -1.40      0.00
  -11    8    9      0.38      0.00
  -11    8    8     -0.45      0.00
  -11    8    7     -0.21      0.00
  -11    8    6     -0.14      0.00
  -11    8    5      0.84      0.00
  -11    8    3     -1.55      0.00
  -11    8    2      0.31      0.00
  -11    8    1      1.01      0.00
  -11    8    0     -0.92      0.00
   11   -8    1      0.22      0.00
   11   -8    2      0.34      0.00
   11   -8    3     -0.24      0.00
   11   -8    4     -0.10      0.00
   11   -8    5     -0.01      0.00
   11   -8    6      0.43      0.00
  -11    7   17     -0.39      0.00
  -11    7   16     -0.12      0.00
  -11    7   15      0.54      0.00
  -11    7   14     -0.85      0.00
  -11    7   13      0.40      0.00
  -11    7   12     -0.74      0.00
  -11    7   11      0.61      0.00
  -11    7   10      0.65      0.00
  -11    7    9     -0.17      0.00
  -11    7    8      0.49      0.00
  -11    7    7     -0.14      0.00
  -11    7    6      0.05      0.00
  -11    7    5     -1.39      0.00
  -11    7    4      0.46      0.00
  -11    7    3      1.09      0.00
  -11    7    2     -1.08      0.00
  -11    7    1     -0.18      0.00
   11   -7    1     -0.52      0.00
   11   -7    2     -0.21      0.00
   11   -7    3      0.18      0.00
   11   -7    4      0.43      0.00
   11   -7    5     -0.50      0.00
   11   -7    7      0.32      0.00
   11   -7    8     -0.16      0.00
   11   -7    9      0.18      0.00
  -11    6   17      0.75      0.00
  -11    6   16     -0.48      0.00
  -11    6   15      0.12      0.00
  -11    6   14     -0.02      0.00
  -11    6   13      0.04      0.00
  -11    6   12      0.40      0.00
  -11    6   11     -0.87      0.00
  -11    6   10     -0.02      0.00
  -11    6    9     -0.28      0.00
  -11    6    8      0.01      0.00
  -11    6    7      0.10      0.00
  -11    6    6      0.44      0.00
  -11    6    5      0.85      0.00
  -11    6    4     -1.03      0.00
  -11    6    3      0.00      0.00
  -11    6    2      0.76      0.00
  -11    6    1     -0.36      0.00
  -11    6    0     -0.44      0.00
   11   -6    1      0.53      0.00
   11   -6    2      0.09      0.00
   11   -6    3     -0.35      0.00
   11   -6    4     -0.22      0.00
   11   -6    5      0.44      0.00
   11   -6    6     -0.33      0.00
   11   -6    7      0.21      0.00
   11   -6    8     -0.28      0.00
   11   -6    9      0.03      0.00
   11   -6   10      0.21      0.00
  -11    5   16      0.52      0.00
  -11    5   15     -0.20      0.00
  -11    5   14      0.49      0.00
  -11    5   13     -0.48      0.00
  -11    5   12      0.19      0.00
  -11    5   11      0.34      0.00
  -11    5   10      0.10      0.00
  -11    5    9      0.18      0.00
  -11    5    8     -0.27      0.00
  -11    5    7     -0.17      0.00
  -11    5    6     -0.46      0.00
  -11    5    5     -0.12      0.00
  -11    5    4      0.52      0.00
  -11    5    3     -0.35      0.00
  -11    5    2     -0.12      0.00
  -11    5    1      0.33      0.00
  -11    5    0      0.06      0.00
   11   -5    1     -0.30      0.00
   11   -5    2      0.12      0.00
   11   -5    3      0.19      0.00
   11   -5    4      0.14      0.00
   11   -5    5      0.02      0.00
   11   -5    6     -0.18      0.00
   11   -5    7     -0.25      0.00
   11   -5    8      0.69      0.00
   11   -5    9     -0.48      0.00
   11   -5   11      0.12      0.00
  -11    4   17     -0.32      0.00
  -11    4   16     -0.13      0.00
  -11    4   15     -0.26      0.00
  -11    4   14     -0.26      0.00
  -11    4   13      0.39      0.00
  -11    4   12     -0.15      0.00
  -11    4   11     -0.14      0.00
  -11    4   10     -0.08      0.00
  -11    4    9     -0.01      0.00
  -11    4    8      0.47      0.00
  -11    4    7     -0.02      0.00
  -11    4    6      0.23      0.00
  -11    4    5      0.03      0.00
  -11    4    4     -0.04      0.00
  -11    4    3      0.04      0.00
  -11    4    2     -0.12      0.00
  -11    4    1     -0.16      0.00
  -11    4    0      0.17      0.00
   11   -4    1     -0.25      0.00
   11   -4    2      0.09      0.00
   11   -4    3     -0.01      0.00
   11   -4    4     -0.52      0.00
   11   -4    5      0.12      0.00
   11   -4    6      0.80      0.00
   11   -4    7     -0.37      0.00
   11   -4    8     -0.49      0.00
   11   -4    9      0.54      0.00
   11   -4   11      0.48      0.00
  -11    3   17      0.54      0.00
  -11    3   16     -0.02      0.00
  -11    3   15      0.60      0.00
  -11    3   14     -0.18      0.00
  -11    3   13     -0.29      0.00
  -11    3   12      0.08      0.00
  -11    3   11      0.09      0.00
  -11    3   10     -0.08      0.00
  -11    3    9     -0.13      0.00
  -11    3    8     -0.45      0.00
  -11    3    7      0.47      0.00
  -11    3    6     -0.50      0.00
  -11    3    5      0.09      0.00
  -11    3    4     -0.07      0.00
  -11    3    3      0.24      0.00
  -11    3    2      0.19      0.00
  -11    3    1     -0.11      0.00
  -11    3    0     -0.02      0.00
   11   -3    1      0.60      0.00
   11   -3    2     -0.71      0.00
   11   -3    3      0.47      0.00
   11   -3    4      0.53      0.00
   11   -3    5     -0.79      0.00
   11   -3    6     -0.64      0.00
   11   -3    7      0.82      0.00
   11   -3    8      0.06      0.00
   11   -3    9     -0.11      0.00
   11   -3   10     -0.03      0.00
   11   -3   11     -0.53      0.00
  -11    2   17     -0.30      0.00
  -11    2   16     -0.27      0.00
  -11    2   15     -0.45      0.00
  -11    2   14      0.60      0.00
  -11    2   13      0.13      0.00
  -11    2   12     -0.18      0.00
  -11    2   11      0.21      0.00
  -11    2   10      0.01      0.00
  -11    2    9      0.42      0.00
  -11    2    8     -0.24      0.00
  -11    2    7     -0.10      0.00
  -11    2    6      0.44      0.00
  -11    2    5     -0.37      0.00
  -11    2    4      0.25      0.00
  -11    2    3     -0.47      0.00
  -11    2    2     -0.16      0.00
  -11    2    1      0.41      0.00
  -11    2    0     -0.53      0.00
   11   -2    1     -0.11      0.00
   11   -2    2      0.70      0.00
   11   -2    3     -0.96      0.00
   11   -2    4      0.23      0.00
   11   -2    5      0.95      0.00
   11   -2    6      0.04      0.00
   11   -2    7     -0.65      0.00
   11   -2    8     -0.08      0.00
   11   -2    9     -0.04      0.00
   11   -2   10      0.63      0.00
   11   -2   11     -0.22      0.00
   11   -2   12     -0.38      0.00
  -11    1   17      0.12      0.00
  -11    1   16      0.66      0.00
  -11    1   15     -0.23      0.00
  -11    1   14     -0.71      0.00
  -11    1   13      0.28      0.00
  -11    1   12     -0.05      0.00
  -11    1   11     -0.26      0.00
  -11    1   10     -0.07      0.00
  -11    1    9     -0.23      0.00
  -11    1    8      0.58      0.00
  -11    1    7     -0.63      0.00
  -11    1    6      0.57      0.00
  -11    1    5     -0.11      0.00
  -11    1    4     -0.13      0.00
  -11    1    3      0.59      0.00
  -11    1    2     -0.11      0.00
  -11    1    1     -0.31      0.00
  -11    1    0      0.69      0.00
   11   -1    1     -0.57      0.00
   11   -1    2      0.11      0.00
   11   -1    3      0.45      0.00
   11   -1    4     -0.74      0.00
   11   -1    5     -0.45      0.00
   11   -1    6      0.23      0.00
   11   -1    7      0.40      0.00
   11   -1    8      0.37      0.00
   11   -1    9     -0.43      0.00
   11   -1   10     -0.49      0.00
   11   -1   11      0.77      0.00
  -11    0   17     -0.29      0.00
  -11    0   16     -0.62      0.00
  -11    0   15      1.04      0.00
  -11    0   14      0.13      0.00
  -11    0   13     -0.30      0.00
  -11    0   12      0.29      0.00
  -11    0   11      0.00      0.00
  -11    0   10      0.25      0.00
  -11    0    9     -0.36      0.00
  -11    0    8      0.20      0.00
  -11    0    7      0.00      0.00
  -11    0    6     -0.90      0.00
  -11    0    5      0.83      0.00
  -11    0    4     -0.40      0.00
  -11    0    3     -0.23      0.00
  -11    0    2      0.19      0.00
  -11    0    1      0.03      0.00
   11    0    0     -0.19      0.00
   11    0    1      0.36      0.00
   11    0    2     -0.43      0.00
   11    0    3      0.42      0.00
   11    0    4      0.42      0.00
   11    0    5      0.04      0.00
   11    0    6     -0.20      0.00
   11    0    7     -0.42      0.00
   11    0    8     -0.28      0.00
   11    0    9      0.77      0.00
   11    0   11     -0.45      0.00
  -11   -1   17      0.65      0.00
  -11   -1   16     -0.10      0.00
  -11   -1   15     -1.07      0.00
  -11   -1   14      0.52      0.00
  -11   -1   13     -0.25      0.00
  -11   -1   12      0.11      0.00
  -11   -1   11     -0.04      0.00
  -11   -1   10     -0.02      0.00
  -11   -1    9      0.17      0.00
  -11   -1    8     -0.54      0.00
  -11   -1    7      1.26      0.00
  -11   -1    6     -0.23      0.00
  -11   -1    5     -0.45      0.00
  -11   -1    4      0.32      0.00
  -11   -1    3     -0.10      0.00
  -11   -1    2      0.08      0.00
  -11   -1    1     -0.15      0.00
   11    1    0     -0.07      0.00
   11    1    1      0.23      0.00
   11    1    2     -0.19      0.00
   11    1    3     -0.42      0.00
   11    1    4     -0.07      0.00
   11    1    5      0.09      0.00
   11    1    6      0.23      0.00
   11    1    7      0.36      0.00
   11    1    8     -0.07      0.00
   11    1   10      0.40      0.00
  -11   -2   17     -0.72      0.00
  -11   -2   16      0.91      0.00
  -11   -2   15      0.13      0.00
  -11   -2   14     -0.19      0.00
  -11   -2   13      0.32      0.00
  -11   -2   12     -0.63      0.00
  -11   -2   11      0.26      0.00
  -11   -2   10     -0.19      0.00
  -11   -2    9      0.61      0.00
  -11   -2    8     -0.57      0.00
  -11   -2    7     -0.93      0.00
  -11   -2    6      0.87      0.00
  -11   -2    5     -0.23      0.00
  -11   -2    4      0.43      0.00
  -11   -2    3     -0.24      0.00
  -11   -2    2     -0.12      0.00
  -11   -2    1      0.40      0.00
   11    2    0     -0.28      0.00
   11    2    1     -0.02      0.00
   11    2    2      0.47      0.00
   11    2    3     -0.06      0.00
   11    2    4      0.18      0.00
   11    2    5     -0.35      0.00
   11    2    6     -0.17      0.00
   11    2    7     -0.09      0.00
   11    2    8      0.09      0.00
   11    2    9      0.14      0.00
   11    2   10     -0.09      0.00
  -11   -3   17      0.21      0.00
  -11   -3   16     -0.82      0.00
  -11   -3   15      0.56      0.00
  -11   -3   14     -0.67      0.00
  -11   -3   13      0.53      0.00
  -11   -3   12      0.44      0.00
  -11   -3   11     -0.16      0.00
  -11   -3   10     -0.28      0.00
  -11   -3    9     -0.41      0.00
  -11   -3    8      1.27      0.00
  -11   -3    7     -0.34      0.00
  -11   -3    6     -0.11      0.00
  -11   -3    5     -0.18      0.00
  -11   -3    4     -0.60      0.00
  -11   -3    3      0.70      0.00
  -11   -3    2     -0.13      0.00
  -11   -3    1     -0.25      0.00
   11    3    0      0.37      0.00
   11    3    1     -0.52      0.00
   11    3    2      0.15      0.00
   11    3    3     -0.12      0.00
   11    3    4     -0.13      0.00
   11    3    5      0.59      0.00
   11    3    6     -0.13      0.00
   11    3    7     -0.01      0.00
   11    3    8      0.12      0.00
   11    3    9     -0.22      0.00
  -11   -4   17      0.42      0.00
  -11   -4   16     -0.07      0.00
  -11   -4   15     -0.05      0.00
  -11   -4   14      0.60      0.00
  -11   -4   13     -1.10      0.00
  -11   -4   12      0.05      0.00
  -11   -4   11      0.01      0.00
  -11   -4   10      0.80      0.00
  -11   -4    9     -0.52      0.00
  -11   -4    8     -0.42      0.00
  -11   -4    7      0.36      0.00
  -11   -4    6     -0.35      0.00
  -11   -4    5      0.86      0.00
  -11   -4    4      0.08      0.00
  -11   -4    3     -0.76      0.00
  -11   -4    2      0.26      0.00
  -11   -4    1      0.04      0.00
   11    4    0      0.09      0.00
   11    4    1      0.27      0.00
   11    4    2     -0.50      0.00
   11    4    3      0.60      0.00
   11    4    4     -0.36      0.00
   11    4    5     -0.42      0.00
   11    4    6      0.32      0.00
   11    4    7     -0.17      0.00
   11    4    8     -0.01      0.00
   11    4    9      0.31      0.00
  -11   -5   16      0.54      0.00
  -11   -5   15     -0.68      0.00
  -11   -5   14      0.34      0.00
  -11   -5   13      0.57      0.00
  -11   -5   12      0.03      0.00
  -11   -5   11     -0.25      0.00
  -11   -5   10     -0.61      0.00
  -11   -5    9      0.64      0.00
  -11   -5    8     -0.34      0.00
  -11   -5    7      0.43      0.00
  -11   -5    6     -0.11      0.00
  -11   -5    5     -0.76      0.00
  -11   -5    4      0.23      0.00
  -11   -5    3      0.78      0.00
  -11   -5    2     -0.46      0.00
  -11   -5    1     -0.10      0.00
   11    5    0     -0.29      0.00
   11    5    1      0.39      0.00
   11    5    2     -0.03      0.00
   11    5    3     -0.44      0.00
   11    5    4      0.62      0.00
   11    5    5      0.09      0.00
   11    5    6     -0.21      0.00
   11    5    7      0.21      0.00
   11    5    8     -0.31      0.00
  -11   -6   16     -0.11      0.00
  -11   -6   15      0.38      0.00
  -11   -6   14     -0.57      0.00
  -11   -6   13      0.07      0.00
  -11   -6   12     -0.51      0.00
  -11   -6   11      0.70      0.00
  -11   -6   10      0.19      0.00
  -11   -6    9     -0.08      0.00
  -11   -6    8      0.02      0.00
  -11   -6    7     -0.52      0.00
  -11   -6    6      0.27      0.00
  -11   -6    5      0.60      0.00
  -11   -6    4     -0.50      0.00
  -11   -6    3     -0.59      0.00
  -11   -6    2      0.83      0.00
  -11   -6    1     -0.01      0.00
   11    6    0     -0.01      0.00
   11    6    1     -0.44      0.00
   11    6    2      0.50      0.00
   11    6    3     -0.16      0.00
   11    6    4     -0.40      0.00
   11    6    5      0.03      0.00
   11    6    6      0.03      0.00
   11    6    7      0.08      0.00
  -11   -7   15      0.31      0.00
  -11   -7   14     -0.21      0.00
  -11   -7   13      0.28      0.00
  -11   -7   12      0.51      0.00
  -11   -7   11     -0.99      0.00
  -11   -7   10     -0.02      0.00
  -11   -7    9     -0.06      0.00
  -11   -7    8      0.30      0.00
  -11   -7    7      0.32      0.00
  -11   -7    6     -0.09      0.00
  -11   -7    5     -0.69      0.00
  -11   -7    4      0.97      0.00
  -11   -7    3     -0.32      0.00
  -11   -7    2     -0.63      0.00
  -11   -7    1      0.27      0.00
   11    7    0      0.27      0.00
   11    7    1     -0.06      0.00
   11    7    2     -0.29      0.00
   11    7    3      0.43      0.00
   11    7    4      0.13      0.00
   11    7    5     -0.02      0.00
   11    7    6     -0.02      0.00
   11    7    7     -0.36      0.00
  -11   -8   14      0.55      0.00
  -11   -8   13     -0.97      0.00
  -11   -8   12      0.16      0.00
  -11   -8   11      0.90      0.00
  -11   -8   10     -0.13      0.00
  -11   -8    9     -0.06      0.00
  -11   -8    8     -0.18      0.00
  -11   -8    7     -0.50      0.00
  -11   -8    6      0.32      0.00
  -11   -8    5      0.29      0.00
  -11   -8    4     -0.68      0.00
  -11   -8    3      1.01      0.00
  -11   -8    2     -0.21      0.00
  -11   -8    1     -0.25      0.00
   11    8    0     -0.28      0.00
   11    8    1      0.44      0.00
   11    8    2     -0.17      0.00
   11    8    3     -0.33      0.00
   11    8    4      0.04      0.00
   11    8    5      0.04      0.00
   11    8    6      0.10      0.00
  -11   -9   14      0.11      0.00
  -11   -9   13      0.80      0.00
  -11   -9   12     -0.72      0.00
  -11   -9   11     -0.46      0.00
  -11   -9   10      0.26      0.00
  -11   -9    9     -0.02      0.00
  -11   -9    8      0.17      0.00
  -11   -9    7      0.50      0.00
  -11   -9    6     -0.43      0.00
  -11   -9    5      0.16      0.00
  -11   -9    4     -0.37      0.00
  -11   -9    3     -0.39      0.00
  -11   -9    2      0.55      0.00
  -11   -9    1      0.13      0.00
   11    9    0      0.13      0.00
   11    9    1     -0.51      0.00
   11    9    2      0.47      0.00
   11    9    3      0.15      0.00
   11    9    4     -0.24      0.00
  -11  -10   13     -0.04      0.00
  -11  -10   12      0.60      0.00
  -11  -10   11      0.07      0.00
  -11  -10   10     -0.21      0.00
  -11  -10    9      0.07      0.00
  -11  -10    8     -0.14      0.00
  -11  -10    7     -0.38      0.00
  -11  -10    6      0.10      0.00
  -11  -10    5      0.26      0.00
  -11  -10    4      0.65      0.00
  -11  -10    3     -0.56      0.00
  -11  -10    2     -0.12      0.00
  -11  -10    1     -0.28      0.00
   11   10    0      0.21      0.00
   11   10    1      0.30      0.00
   11   10    2     -0.54      0.00
   11   10    3      0.12      0.00
  -11  -11   12     -0.26      0.00
  -11  -11   11      0.04      0.00
  -11  -11   10      0.21      0.00
  -11  -11    9     -0.16      0.00
  -11  -11    8      0.00      0.00
  -11  -11    7      0.65      0.00
  -11  -11    6     -0.22      0.00
  -11  -11    5     -0.73      0.00
  -11  -11    4      0.07      0.00
  -11  -11    3      0.58      0.00
  -11  -11    2     -0.15      0.00
  -11  -11    1      0.35      0.00
   11   11    0     -0.48      0.00
   11   11    1      0.06      0.00
   11   11    2      0.32      0.00
  -11  -12    9      0.48      0.00
  -11  -12    8     -0.32      0.00
  -11  -12    7     -0.68      0.00
  -11  -12    6      0.71      0.00
  -11  -12    5      0.36      0.00
  -11  -12    4     -0.44      0.00
  -11  -12    3     -0.15      0.00
  -11  -12    2      0.05      0.00
  -11  -12    1     -0.09      0.00
  -11  -13    8      0.81      0.00
  -11  -13    7      0.01      0.00
  -11  -13    3      0.01      0.00
  -12   12   12      1.05      0.00
  -12   12    9      0.72      0.00
  -12   12    6     -0.65      0.00
  -12   11   13     -0.63      0.00
  -12   11   12     -1.08      0.00
  -12   11   11      1.25      0.00
  -12   11   10     -0.91      0.00
  -12   11    9      0.34      0.00
  -12   11    8     -0.10      0.00
  -12   11    7     -0.01      0.00
  -12   11    6      0.79      0.00
  -12   11    5     -0.05      0.00
  -12   11    4     -0.24      0.00
  -12   11    2      0.49      0.00
  -12   10   13      1.77      0.00
  -12   10   12     -0.22      0.00
  -12   10   11     -0.41      0.00
  -12   10   10      0.61      0.00
  -12   10    9     -0.92      0.00
  -12   10    8      0.69      0.00
  -12   10    7     -0.78      0.00
  -12   10    6     -0.36      0.00
  -12   10    5     -0.18      0.00
  -12   10    4      1.05      0.00
  -12   10    3      0.57      0.00
  -12   10    2     -1.46      0.00
  -12   10    1      0.05      0.00
  -12    9   14     -0.19      0.00
  -12    9   13     -1.54      0.00
  -12    9   11     -0.65      0.00
  -12    9   10      0.79      0.00
  -12    9    9      0.13      0.00
  -12    9    8     -0.25      0.00
  -12    9    7      0.78      0.00
  -12    9    6      0.26      0.00
  -12    9    5     -0.01      0.00
  -12    9    4     -2.09      0.00
  -12    9    3      0.69      0.00
  -12    9    2      1.87      0.00
  -12    9    1     -1.25      0.00
   12   -9    2     -0.28      0.00
  -12    8   14      1.17      0.00
  -12    8   13      0.17      0.00
  -12    8   12     -0.22      0.00
  -12    8   11      0.16      0.00
  -12    8   10     -1.14      0.00
  -12    8    9      0.57      0.00
  -12    8    8     -0.48      0.00
  -12    8    7     -0.17      0.00
  -12    8    6     -0.67      0.00
  -12    8    5      1.27      0.00
  -12    8    4      1.81      0.00
  -12    8    3     -2.27      0.00
  -12    8    2     -0.88      0.00
  -12    8    1      2.00      0.00
  -12    8    0     -0.33      0.00
   12   -8    1     -0.72      0.00
   12   -8    2      0.43      0.00
   12   -8    3      0.12      0.00
   12   -8    4      0.01      0.00
  -12    7   15      0.22      0.00
  -12    7   14     -0.89      0.00
  -12    7   13      0.44      0.00
  -12    7   12     -0.37      0.00
  -12    7   11      0.84      0.00
  -12    7   10      0.21      0.00
  -12    7    9     -0.19      0.00
  -12    7    8      0.35      0.00
  -12    7    7      0.10      0.00
  -12    7    6      0.43      0.00
  -12    7    5     -2.32      0.00
  -12    7    4     -0.01      0.00
  -12    7    3      2.40      0.00
  -12    7    2     -0.56      0.00
  -12    7    1     -1.54      0.00
  -12    7    0      0.98      0.00
   12   -7    1      0.18      0.00
   12   -7    2     -0.38      0.00
   12   -7    3     -0.16      0.00
   12   -7    4      0.34      0.00
  -12    6   14     -0.01      0.00
  -12    6   13     -0.04      0.00
  -12    6   12     -0.14      0.00
  -12    6   11     -0.63      0.00
  -12    6   10      0.31      0.00
  -12    6    9     -0.27      0.00
  -12    6    8      0.05      0.00
  -12    6    7     -0.32      0.00
  -12    6    6      0.61      0.00
  -12    6    5      1.67      0.00
  -12    6    4     -1.31      0.00
  -12    6    3     -1.15      0.00
  -12    6    2      1.00      0.00
  -12    6    1      0.64      0.00
  -12    6    0     -0.84      0.00
   12   -6    1      0.17      0.00
   12   -6    2      0.14      0.00
   12   -6    3      0.08      0.00
   12   -6    5      0.20      0.00
  -12    5   15     -0.28      0.00
  -12    5   14      0.31      0.00
  -12    5   13     -0.06      0.00
  -12    5   12      0.45      0.00
  -12    5   11     -0.14      0.00
  -12    5   10     -0.09      0.00
  -12    5    9      0.22      0.00
  -12    5    8     -0.06      0.00
  -12    5    7     -0.04      0.00
  -12    5    6     -0.94      0.00
  -12    5    5     -0.25      0.00
  -12    5    4      0.95      0.00
  -12    5    3      0.28      0.00
  -12    5    2     -0.63      0.00
  -12    5    1     -0.15      0.00
  -12    5    0      0.32      0.00
   12   -5    1     -0.01      0.00
   12   -5    2      0.04      0.00
   12   -5    3     -0.10      0.00
   12   -5    4      0.21      0.00
   12   -5    5      0.15      0.00
   12   -5    6      0.08      0.00
   12   -5    7     -0.68      0.00
   12   -5    8      0.71      0.00
  -12    4   15     -0.11      0.00
  -12    4   14     -0.18      0.00
  -12    4   13     -0.16      0.00
  -12    4   12      0.02      0.00
  -12    4   11      0.27      0.00
  -12    4   10      0.06      0.00
  -12    4    9     -0.29      0.00
  -12    4    8      0.28      0.00
  -12    4    7      0.30      0.00
  -12    4    6      0.30      0.00
  -12    4    5     -0.18      0.00
  -12    4    4     -0.15      0.00
  -12    4    3     -0.36      0.00
  -12    4    2      0.39      0.00
  -12    4    1      0.00      0.00
  -12    4    0      0.08      0.00
   12   -4    1     -0.53      0.00
   12   -4    2      0.16      0.00
   12   -4    3      0.13      0.00
   12   -4    4     -0.31      0.00
   12   -4    5     -0.29      0.00
   12   -4    6      0.66      0.00
   12   -4    7      0.22      0.00
   12   -4    8     -0.82      0.00
  -12    3   16     -0.06      0.00
  -12    3   15      0.34      0.00
  -12    3   14      0.08      0.00
  -12    3   13     -0.05      0.00
  -12    3   12     -0.23      0.00
  -12    3   11     -0.23      0.00
  -12    3   10     -0.06      0.00
  -12    3    9      0.32      0.00
  -12    3    8     -0.62      0.00
  -12    3    7      0.19      0.00
  -12    3    6     -0.08      0.00
  -12    3    5     -0.09      0.00
  -12    3    4      0.10      0.00
  -12    3    3      0.41      0.00
  -12    3    2     -0.23      0.00
  -12    3    1     -0.07      0.00
  -12    3    0     -0.07      0.00
   12   -3    1      0.85      0.00
   12   -3    2     -0.65      0.00
   12   -3    3      0.22      0.00
   12   -3    4      0.29      0.00
   12   -3    6     -0.81      0.00
   12   -3    7      0.42      0.00
   12   -3    8      0.33      0.00
  -12    2   15     -0.37      0.00
  -12    2   14      0.25      0.00
  -12    2   13      0.29      0.00
  -12    2   12     -0.02      0.00
  -12    2   11      0.48      0.00
  -12    2   10     -0.26      0.00
  -12    2    9      0.14      0.00
  -12    2    8      0.10      0.00
  -12    2    7     -0.25      0.00
  -12    2    6      0.25      0.00
  -12    2    5     -0.01      0.00
  -12    2    4     -0.23      0.00
  -12    2    3     -0.15      0.00
  -12    2    2     -0.12      0.00
  -12    2    1      0.41      0.00
  -12    2    0     -0.43      0.00
   12   -2    1     -0.37      0.00
   12   -2    2      0.61      0.00
   12   -2    3     -0.54      0.00
   12   -2    4      0.26      0.00
   12   -2    5      0.43      0.00
   12   -2    6      0.24      0.00
   12   -2    7     -0.32      0.00
  -12    1   15      0.02      0.00
  -12    1   14     -0.66      0.00
  -12    1   13      0.03      0.00
  -12    1   12     -0.05      0.00
  -12    1   11     -0.44      0.00
  -12    1   10      0.27      0.00
  -12    1    9     -0.17      0.00
  -12    1    8      0.50      0.00
  -12    1    7     -0.46      0.00
  -12    1    6      0.29      0.00
  -12    1    5      0.05      0.00
  -12    1    4      0.08      0.00
  -12    1    3      0.09      0.00
  -12    1    2      0.23      0.00
  -12    1    1     -0.52      0.00
  -12    1    0      0.72      0.00
   12   -1    1     -0.41      0.00
   12   -1    2      0.20      0.00
   12   -1    3      0.02      0.00
   12   -1    4     -0.67      0.00
   12   -1    5     -0.01      0.00
   12   -1    6      0.09      0.00
   12   -1    7     -0.10      0.00
   12   -1    8      0.68      0.00
  -12    0   15      0.68      0.00
  -12    0   14      0.44      0.00
  -12    0   13     -0.28      0.00
  -12    0   12      0.26      0.00
  -12    0   11      0.12      0.00
  -12    0   10      0.00      0.00
  -12    0    9     -0.52      0.00
  -12    0    8      0.21      0.00
  -12    0    7      0.25      0.00
  -12    0    6     -0.81      0.00
  -12    0    5      0.34      0.00
  -12    0    4     -0.01      0.00
  -12    0    3     -0.13      0.00
  -12    0    2     -0.07      0.00
  -12    0    1      0.19      0.00
   12    0    0     -0.22      0.00
   12    0    1      0.28      0.00
   12    0    2     -0.58      0.00
   12    0    3      0.90      0.00
   12    0    4      0.25      0.00
   12    0    5     -0.43      0.00
   12    0    6      0.16      0.00
   12    0    7      0.00      0.00
   12    0    8     -0.90      0.00
  -12   -1   15     -0.94      0.00
  -12   -1   14      0.17      0.00
  -12   -1   13     -0.02      0.00
  -12   -1   12     -0.01      0.00
  -12   -1   11     -0.11      0.00
  -12   -1   10      0.30      0.00
  -12   -1    9      0.39      0.00
  -12   -1    8     -0.93      0.00
  -12   -1    7      1.01      0.00
  -12   -1    6      0.15      0.00
  -12   -1    5     -0.33      0.00
  -12   -1    4     -0.13      0.00
  -12   -1    3      0.06      0.00
  -12   -1    2      0.14      0.00
  -12   -1    1     -0.08      0.00
   12    1    0     -0.30      0.00
   12    1    1      0.49      0.00
   12    1    2     -0.22      0.00
   12    1    3     -0.86      0.00
   12    1    4      0.35      0.00
   12    1    5      0.37      0.00
   12    1    6     -0.35      0.00
   12    1    7      0.40      0.00
   12    1    8      0.47      0.00
  -12   -2   15      0.29      0.00
  -12   -2   14     -0.15      0.00
  -12   -2   13      0.15      0.00
  -12   -2   12     -0.36      0.00
  -12   -2   11      0.11      0.00
  -12   -2   10     -0.62      0.00
  -12   -2    9      0.74      0.00
  -12   -2    8     -0.01      0.00
  -12   -2    7     -1.18      0.00
  -12   -2    6      0.58      0.00
  -12   -2    5     -0.04      0.00
  -12   -2    4      0.62      0.00
  -12   -2    3     -0.28      0.00
  -12   -2    2     -0.33      0.00
  -12   -2    1      0.42      0.00
   12    2    0     -0.02      0.00
   12    2    1     -0.42      0.00
   12    2    2      0.86      0.00
   12    2    3     -0.03      0.00
   12    2    4     -0.28      0.00
   12    2    5     -0.22      0.00
   12    2    6      0.23      0.00
  -12   -3   14     -0.45      0.00
  -12   -3   13      0.35      0.00
  -12   -3   12      0.32      0.00
  -12   -3   11      0.22      0.00
  -12   -3   10     -0.10      0.00
  -12   -3    9     -0.94      0.00
  -12   -3    8      1.15      0.00
  -12   -3    7      0.09      0.00
  -12   -3    6     -0.18      0.00
  -12   -3    5     -0.24      0.00
  -12   -3    4     -0.79      0.00
  -12   -3    3      0.75      0.00
  -12   -3    2      0.19      0.00
  -12   -3    1     -0.50      0.00
   12    3    0      0.40      0.00
   12    3    1     -0.44      0.00
   12    3    2     -0.21      0.00
   12    3    3      0.31      0.00
   12    3    4     -0.02      0.00
   12    3    5      0.28      0.00
   12    3    7      0.25      0.00
  -12   -4   14      0.52      0.00
  -12   -4   13     -0.79      0.00
  -12   -4   12     -0.17      0.00
  -12   -4   11     -0.26      0.00
  -12   -4   10      1.01      0.00
  -12   -4    9     -0.11      0.00
  -12   -4    8     -0.75      0.00
  -12   -4    7      0.25      0.00
  -12   -4    6     -0.26      0.00
  -12   -4    5      0.87      0.00
  -12   -4    4      0.32      0.00
  -12   -4    3     -0.98      0.00
  -12   -4    2      0.09      0.00
  -12   -4    1      0.23      0.00
   12    4    0      0.03      0.00
   12    4    1      0.55      0.00
   12    4    2     -0.62      0.00
   12    4    3      0.19      0.00
   12    4    4     -0.13      0.00
  -12   -5   14      0.14      0.00
  -12   -5   13      0.54      0.00
  -12   -5   12      0.25      0.00
  -12   -5   11     -0.27      0.00
  -12   -5   10     -0.88      0.00
  -12   -5    9      0.56      0.00
  -12   -5    8      0.01      0.00
  -12   -5    7      0.31      0.00
  -12   -5    6     -0.06      0.00
  -12   -5    5     -0.92      0.00
  -12   -5    4      0.12      0.00
  -12   -5    3      0.99      0.00
  -12   -5    2     -0.29      0.00
  -12   -5    1     -0.24      0.00
   12    5    0     -0.49      0.00
   12    5    1      0.27      0.00
   12    5    2      0.43      0.00
   12    5    3     -0.36      0.00
   12    5    4      0.34      0.00
  -12   -6   13     -0.05      0.00
  -12   -6   12     -0.39      0.00
  -12   -6   11      0.70      0.00
  -12   -6   10      0.32      0.00
  -12   -6    9     -0.13      0.00
  -12   -6    8     -0.18      0.00
  -12   -6    7     -0.42      0.00
  -12   -6    6      0.23      0.00
  -12   -6    5      0.80      0.00
  -12   -6    4     -0.46      0.00
  -12   -6    3     -0.84      0.00
  -12   -6    2      0.60      0.00
  -12   -6    1      0.41      0.00
   12    6    0      0.15      0.00
   12    6    1     -0.66      0.00
   12    6    2      0.15      0.00
   12    6    3     -0.03      0.00
   12    6    4     -0.20      0.00
  -12   -7   12      0.35      0.00
  -12   -7   11     -0.73      0.00
  -12   -7   10     -0.21      0.00
  -12   -7    9      0.03      0.00
  -12   -7    8      0.43      0.00
  -12   -7    7      0.28      0.00
  -12   -7    6     -0.14      0.00
  -12   -7    5     -0.89      0.00
  -12   -7    4      0.96      0.00
  -12   -7    3      0.16      0.00
  -12   -7    2     -0.73      0.00
  -12   -7    1     -0.22      0.00
   12    7    0      0.41      0.00
   12    7    1      0.25      0.00
   12    7    2     -0.17      0.00
   12    7    3      0.28      0.00
  -12   -8   11      0.63      0.00
  -12   -8   10      0.17      0.00
  -12   -8    9     -0.23      0.00
  -12   -8    8     -0.25      0.00
  -12   -8    7     -0.52      0.00
  -12   -8    6      0.52      0.00
  -12   -8    5      0.48      0.00
  -12   -8    4     -0.93      0.00
  -12   -8    3      0.58      0.00
  -12   -8    2      0.29      0.00
  -12   -8    1     -0.09      0.00
   12    8    0     -0.52      0.00
   12    8    1      0.19      0.00
   12    8    2     -0.11      0.00
  -12   -9   10      0.00      0.00
  -12   -9    9      0.14      0.00
  -12   -9    8      0.29      0.00
  -12   -9    7      0.48      0.00
  -12   -9    6     -0.83      0.00
  -12   -9    5      0.23      0.00
  -12   -9    4      0.06      0.00
  -12   -9    3     -0.42      0.00
  -12   -9    2      0.13      0.00
  -12   -9    1      0.21      0.00
   12    9    0      0.32      0.00
  -12  -10    8     -0.38      0.00
  -12  -10    7     -0.03      0.00
  -12  -10    6      0.40      0.00
  -12  -10    5     -0.15      0.00
  -12  -10    4      0.45      0.00
  -12  -10    3     -0.30      0.00
  -13   10    7     -0.58      0.00
  -13    9   13     -1.09      0.00
  -13    9   10      0.81      0.00
  -13    9    8     -0.11      0.00
  -13    9    7      0.38      0.00
  -13    9    6      0.24      0.00
  -13    9    5      0.41      0.00
  -13    9    4     -1.90      0.00
  -13    9    2      2.14      0.00
  -13    9    1     -0.29      0.00
  -13    8   13      0.04      0.00
  -13    8   11     -0.07      0.00
  -13    8   10     -1.00      0.00
  -13    8    9      0.44      0.00
  -13    8    8     -0.30      0.00
  -13    8    7      0.13      0.00
  -13    8    6     -0.85      0.00
  -13    8    5      0.63      0.00
  -13    8    4      2.29      0.00
  -13    8    3     -1.28      0.00
  -13    8    2     -2.17      0.00
  -13    8    1      1.69      0.00
   13   -8    1     -0.99      0.00
  -13    7   11      0.91      0.00
  -13    7   10      0.13      0.00
  -13    7    9     -0.22      0.00
  -13    7    8      0.08      0.00
  -13    7    7      0.04      0.00
  -13    7    6      0.83      0.00
  -13    7    5     -1.92      0.00
  -13    7    4     -1.10      0.00
  -13    7    3      2.33      0.00
  -13    7    2      0.90      0.00
  -13    7    1     -2.12      0.00
  -13    7    0      0.26      0.00
   13   -7    2      0.02      0.00
   13   -7    3     -0.33      0.00
  -13    6   10      0.42      0.00
  -13    6    9     -0.03      0.00
  -13    6    8      0.11      0.00
  -13    6    7     -0.50      0.00
  -13    6    6      0.25      0.00
  -13    6    5      1.78      0.00
  -13    6    4     -0.40      0.00
  -13    6    3     -1.88      0.00
  -13    6    2      0.26      0.00
  -13    6    1      1.43      0.00
  -13    6    0     -0.43      0.00
   13   -6    1     -0.27      0.00
   13   -6    2     -0.29      0.00
   13   -6    3      0.57      0.00
   13   -6    4     -0.26      0.00
   13   -6    5      0.02      0.00
  -13    5   13     -0.07      0.00
  -13    5   12      0.67      0.00
  -13    5   11     -0.15      0.00
  -13    5   10     -0.43      0.00
  -13    5    9      0.05      0.00
  -13    5    7      0.14      0.00
  -13    5    6     -0.89      0.00
  -13    5    5     -0.50      0.00
  -13    5    4      0.57      0.00
  -13    5    3      1.06      0.00
  -13    5    2     -0.50      0.00
  -13    5    1     -0.74      0.00
  -13    5    0      0.05      0.00
   13   -5    1      0.64      0.00
   13   -5    2      0.09      0.00
   13   -5    3     -0.49      0.00
   13   -5    6      0.41      0.00
  -13    4   12     -0.18      0.00
  -13    4   11      0.40      0.00
  -13    4   10      0.51      0.00
  -13    4    9     -0.45      0.00
  -13    4    8     -0.15      0.00
  -13    4    7      0.45      0.00
  -13    4    6      0.30      0.00
  -13    4    5     -0.05      0.00
  -13    4    4      0.00      0.00
  -13    4    3     -0.91      0.00
  -13    4    2      0.48      0.00
  -13    4    1      0.48      0.00
  -13    4    0      0.05      0.00
   13   -4    1     -1.04      0.00
   13   -4    2      0.43      0.00
   13   -4    4     -0.07      0.00
   13   -4    5     -0.33      0.00
   13   -4    6      0.20      0.00
  -13    3   13      0.17      0.00
  -13    3   12     -0.10      0.00
  -13    3   11     -0.53      0.00
  -13    3   10     -0.33      0.00
  -13    3    9      0.76      0.00
  -13    3    8     -0.40      0.00
  -13    3    7     -0.16      0.00
  -13    3    6      0.21      0.00
  -13    3    5     -0.43      0.00
  -13    3    4      0.16      0.00
  -13    3    3      0.79      0.00
  -13    3    2     -0.47      0.00
  -13    3    1     -0.34      0.00
  -13    3    0      0.23      0.00
   13   -3    1      0.85      0.00
   13   -3    2     -0.71      0.00
   13   -3    3      0.27      0.00
   13   -3    4     -0.09      0.00
   13   -3    6     -0.58      0.00
   13   -3    7      0.13      0.00
  -13    2   13      0.19      0.00
  -13    2   12     -0.04      0.00
  -13    2   10     -0.26      0.00
  -13    2    9     -0.29      0.00
  -13    2    8      0.22      0.00
  -13    2    7     -0.24      0.00
  -13    2    6      0.12      0.00
  -13    2    5      0.54      0.00
  -13    2    4     -0.74      0.00
  -13    2    3     -0.16      0.00
  -13    2    2      0.13      0.00
  -13    2    1      0.35      0.00
  -13    2    0     -0.58      0.00
   13   -2    1     -0.12      0.00
   13   -2    2      0.39      0.00
   13   -2    4      0.40      0.00
   13   -2    5      0.27      0.00
   13   -2    6      0.02      0.00
   13   -2    7     -0.20      0.00
  -13    1   13     -0.06      0.00
  -13    1   12     -0.03      0.00
  -13    1   11     -0.58      0.00
  -13    1   10      0.35      0.00
  -13    1    9      0.03      0.00
  -13    1    8      0.43      0.00
  -13    1    7     -0.21      0.00
  -13    1    6     -0.26      0.00
  -13    1    5      0.00      0.00
  -13    1    4      0.65      0.00
  -13    1    3     -0.24      0.00
  -13    1    2      0.22      0.00
  -13    1    1     -0.38      0.00
  -13    1    0      0.62      0.00
   13   -1    1     -0.57      0.00
   13   -1    2      0.39      0.00
   13   -1    3      0.00      0.00
   13   -1    5     -0.06      0.00
   13   -1    6      0.60      0.00
  -13    0   13     -0.16      0.00
  -13    0   12      0.16      0.00
  -13    0   11      0.22      0.00
  -13    0   10      0.00      0.00
  -13    0    9     -0.66      0.00
  -13    0    8     -0.03      0.00
  -13    0    7      0.45      0.00
  -13    0    6     -0.14      0.00
  -13    0    5     -0.28      0.00
  -13    0    4     -0.10      0.00
  -13    0    3      0.08      0.00
  -13    0    2     -0.09      0.00
  -13    0    1      0.07      0.00
   13    0    0     -0.05      0.00
   13    0    1      0.45      0.00
   13    0    2     -0.82      0.00
   13    0    3      0.74      0.00
   13    0    4      0.71      0.00
   13    0    5     -0.67      0.00
  -13   -1   12      0.03      0.00
  -13   -1   11     -0.29      0.00
  -13   -1   10      0.32      0.00
  -13   -1    9      0.73      0.00
  -13   -1    8     -0.82      0.00
  -13   -1    7      0.32      0.00
  -13   -1    6      0.15      0.00
  -13   -1    5      0.21      0.00
  -13   -1    4     -0.24      0.00
  -13   -1    3      0.01      0.00
  -13   -1    2     -0.02      0.00
  -13   -1    1      0.19      0.00
   13    1    0     -0.62      0.00
   13    1    1      0.38      0.00
   13    1    4     -0.13      0.00
  -13   -2   12     -0.16      0.00
  -13   -2   11      0.23      0.00
  -13   -2   10     -0.82      0.00
  -13   -2    9      0.40      0.00
  -13   -2    8      0.39      0.00
  -13   -2    7     -0.76      0.00
  -13   -2    6      0.21      0.00
  -13   -2    5     -0.19      0.00
  -13   -2    4      0.48      0.00
  -13   -2    3      0.06      0.00
  -13   -2    2     -0.33      0.00
  -13   -2    1      0.14      0.00
   13    2    0      0.48      0.00
   13    2    1     -0.64      0.00
   13    2    3      0.34      0.00
  -13   -3   11      0.33      0.00
  -13   -3   10      0.21      0.00
  -13   -3    9     -0.96      0.00
  -13   -3    8      0.68      0.00
  -13   -3    7      0.20      0.00
  -13   -3    6     -0.09      0.00
  -13   -3    5     -0.01      0.00
  -13   -3    4     -0.70      0.00
  -13   -3    3      0.20      0.00
  -13   -3    2      0.55      0.00
  -13   -3    1     -0.54      0.00
   13    3    0      0.10      0.00
   13    3    1     -0.05      0.00
   13    3    2     -0.21      0.00
   13    3    3      0.13      0.00
  -13   -4   11     -0.45      0.00
  -13   -4   10      0.84      0.00
  -13   -4    9      0.20      0.00
  -13   -4    8     -0.71      0.00
  -13   -4    7      0.14      0.00
  -13   -4    6     -0.20      0.00
  -13   -4    5      0.44      0.00
  -13   -4    4      0.62      0.00
  -13   -4    3     -0.67      0.00
  -13   -4    2     -0.30      0.00
  -13   -4    1      0.45      0.00
   13    4    0     -0.02      0.00
   13    4    2     -0.54      0.00
  -13   -5   10     -0.86      0.00
  -13   -5    8      0.23      0.00
  -13   -5    7      0.13      0.00
  -13   -5    6      0.08      0.00
  -13   -5    5     -0.67      0.00
  -13   -5    4     -0.29      0.00
  -13   -5    3      0.93      0.00
  -13   -5    2     -0.05      0.00
  -13   -5    1     -0.33      0.00
  -13   -6    8     -0.28      0.00
  -13   -6    7     -0.19      0.00
  -13   -6    6      0.00      0.00
  -13   -6    5      0.76      0.00
  -13   -6    4     -0.14      0.00
  -13   -6    3     -0.85      0.00
  -13   -6    2      0.31      0.00
  -13   -6    1      0.51      0.00
  -14    8    4      1.35      0.00
  -14    7    9     -0.06      0.00
  -14    7    7     -0.12      0.00
  -14    7    4     -1.14      0.00
  -14    7    3      0.94      0.00
  -14    7    2      1.47      0.00
  -14    7    1     -1.33      0.00
  -14    6    9      0.14      0.00
  -14    6    7     -0.31      0.00
  -14    6    6      0.20      0.00
  -14    6    5      0.88      0.00
  -14    6    4      0.33      0.00
  -14    6    3     -1.24      0.00
  -14    6    1      0.97      0.00
  -14    5   10     -0.44      0.00
  -14    5    8      0.44      0.00
  -14    5    7      0.05      0.00
  -14    5    6     -0.70      0.00
  -14    5    5     -0.15      0.00
  -14    5    4     -0.09      0.00
  -14    5    3      0.87      0.00
  -14    5    1     -0.45      0.00
  -14    5    0     -0.62      0.00
   14   -5    1      0.77      0.00
   14   -5    2      0.46      0.00
  -14    4   10      0.76      0.00
  -14    4    8     -0.53      0.00
  -14    4    7      0.61      0.00
  -14    4    6      0.18      0.00
  -14    4    5     -0.15      0.00
  -14    4    4      0.41      0.00
  -14    4    2     -0.10      0.00
  -14    4    0      0.50      0.00
   14   -4    1     -1.33      0.00
  -14    3   10     -0.59      0.00
  -14    3    9      0.84      0.00
  -14    3    8     -0.06      0.00
  -14    3    7     -0.48      0.00
  -14    3    6      0.46      0.00
  -14    3    5     -0.53      0.00
  -14    3    4     -0.15      0.00
  -14    3    3      0.86      0.00
  -14    3    2      0.01      0.00
  -14    3    1     -0.64      0.00
   14   -3    1      0.88      0.00
   14   -3    3      0.15      0.00
  -14    2    9     -0.51      0.00
  -14    2    8      0.23      0.00
  -14    2    7     -0.17      0.00
  -14    2    6     -0.10      0.00
  -14    2    5      0.93      0.00
  -14    2    4     -0.68      0.00
  -14    2    3     -0.43      0.00
  -14    2    2     -0.02      0.00
  -14    2    1      0.54      0.00
  -14    2    0     -0.62      0.00
   14   -2    1      0.03      0.00
   14   -2    2      0.35      0.00
  -14    1    9      0.10      0.00
  -14    1    8      0.28      0.00
  -14    1    7      0.17      0.00
  -14    1    6     -0.58      0.00
  -14    1    5     -0.29      0.00
  -14    1    4      0.87      0.00
  -14    1    3      0.01      0.00
  -14    1    2      0.14      0.00
  -14    1    1     -0.43      0.00
  -14    1    0      0.51      0.00
   14   -1    1     -0.58      0.00
  -14    0    8     -0.32      0.00
  -14    0    7      0.27      0.00
  -14    0    6      0.55      0.00
  -14    0    5     -0.44      0.00
  -14    0    4     -0.34      0.00
  -14    0    3     -0.16      0.00
  -14    0    2      0.14      0.00
  -14    0    1      0.20      0.00
   14    0    0     -0.06      0.00
  -14   -1    7     -0.17      0.00
  -14   -1    6     -0.15      0.00
  -14   -1    5      0.44      0.00
  -14   -1    4      0.05      0.00
  -14   -1    3      0.22      0.00
  -14   -1    2     -0.51      0.00
    1    0    0     20.37      0.00
   -1    1    0     -7.58      0.00
    0    1    0    -10.82      0.00
    1    1    0     -9.20      0.00
    6    4    0      1.67      0.00
    5    5    0      0.44      0.00
   -4    6    0      1.44      0.00
   -2    6    0     -0.39      0.00
    6    6    0     -1.04      0.00
  -11    7    0      0.87      0.00
   -3    7    0      1.32      0.00
   -2    7    0      1.80      0.00
   -4    8    0     -0.18      0.00
   -3    8    0      0.25      0.00
   -2    8    0      0.95      0.00
   -4    9    0     -1.47      0.00
   -3    9    0     -1.83      0.00
   -1    9    0     -2.81      0.00
   -7   10    0      0.90      0.00
   -6   10    0      0.92      0.00
   -5   10    0      1.07      0.00
   -4   10    0      1.13      0.00
   -3   10    0      1.05      0.00
   -2   10    0      0.91      0.00
   -9   11    0     -0.25      0.00
   -7   11    0     -0.11      0.00
   -6   11    0      0.03      0.00
   -5   11    0     -0.02      0.00
   -4   11    0      0.05      0.00
   -3   11    0      0.28      0.00
  -10   12    0     -0.08      0.00
   -9   12    0     -0.18      0.00
   -8   12    0     -0.25      0.00
   -7   12    0     -0.44      0.00
   -6   12    0     -0.53      0.00
   -5   12    0     -0.32      0.00
   -4   12    0     -0.18      0.00
   -3   12    0     -0.24      0.00
   -2   12    0     -0.14      0.00
   -9   13    0     -0.04      0.00
   -8   13    0     -0.11      0.00
   -7   13    0      0.02      0.00
   -6   13    0      0.18      0.00
   -5   13    0      0.05      0.00
   -4   13    0     -0.18      0.00
   -3   13    0     -0.23      0.00
   -2   13    0     -0.39      0.00
   -9   14    0      0.41      0.00
   -8   14    0      0.62      0.00
   -7   14    0      0.57      0.00
   -6   14    0      0.28      0.00
   -5   14    0      0.09      0.00
   -4   14    0      0.04      0.00
   -3   14    0     -0.12      0.00
   -2   14    0     -0.21      0.00
   -8   15    0     -0.49      0.00
   -7   15    0     -0.50      0.00
   -6   15    0     -0.33      0.00
   -5   15    0     -0.14      0.00
   -4   15    0      0.06      0.00
   -3   15    0      0.48      0.00
   -2   15    0      0.89      0.00
   -7   16    0      0.25      0.00
   -6   16    0      0.25      0.00
   -5   16    0      0.29      0.00
   -4   16    0      0.31      0.00
   -3   16    0     -0.03      0.00
   -2   16    0     -0.55      0.00
   -6   17    0     -0.29      0.00
   -5   17    0     -0.30      0.00
   -4   17    0     -0.47      0.00
   -3   17    0     -0.42      0.00
   -2   17    0     -0.07      0.00
   -5   18    0      0.10      0.00
   -4   18    0      0.18      0.00
   -3   18    0      0.33      0.00
   -2   18    0      0.22      0.00
   -1   18    0      0.11      0.00
   -4   19    0     -0.03      0.00
   -3   19    0     -0.24      0.00
   -2   19    0     -0.27      0.00
   -1   19    0     -0.19      0.00
    0   20    0      0.36      0.00
    0  -20    1      0.27      0.00
    1  -19    1     -0.17      0.00
    2  -19    1     -0.04      0.00
    3  -19    1     -0.08      0.00
    1  -18    1      0.02      0.00
    2  -18    1     -0.14      0.00
    3  -18    1     -0.03      0.00
    4  -18    1      0.02      0.00
    5  -18    1     -0.20      0.00
    1  -17    1      0.31      0.00
    2  -17    1      0.58      0.00
    3  -17    1      0.53      0.00
    4  -17    1      0.26      0.00
    5  -17    1      0.22      0.00
    6  -17    1      0.28      0.00
    1  -16    1     -0.10      0.00
    2  -16    1     -0.55      0.00
    3  -16    1     -0.70      0.00
    4  -16    1     -0.39      0.00
    5  -16    1     -0.10      0.00
    6  -16    1      0.04      0.00
    7  -16    1      0.19      0.00
    1  -15    1     -0.54      0.00
    2  -15    1     -0.03      0.00
    3  -15    1      0.30      0.00
    4  -15    1      0.18      0.00
    5  -15    1     -0.01      0.00
    6  -15    1     -0.06      0.00
    7  -15    1     -0.12      0.00
    8  -15    1     -0.19      0.00
    2  -14    1      0.11      0.00
    3  -14    1     -0.14      0.00
    4  -14    1     -0.12      0.00
    5  -14    1     -0.10      0.00
    6  -14    1     -0.26      0.00
    7  -14    1     -0.33      0.00
    8  -14    1     -0.23      0.00
    2  -13    1      0.23      0.00
    3  -13    1      0.21      0.00
    4  -13    1      0.11      0.00
    5  -13    1      0.04      0.00
    6  -13    1      0.19      0.00
    7  -13    1      0.26      0.00
    8  -13    1      0.10      0.00
    9  -13    1     -0.06      0.00
    2  -12    1      0.14      0.00
    3  -12    1      0.31      0.00
    4  -12    1      0.43      0.00
    5  -12    1      0.53      0.00
    6  -12    1      0.41      0.00
    7  -12    1      0.32      0.00
    8  -12    1      0.42      0.00
    9  -12    1      0.42      0.00
    2  -11    1     -0.83      0.00
    3  -11    1     -0.70      0.00
    4  -11    1     -0.67      0.00
    5  -11    1     -0.71      0.00
    6  -11    1     -0.54      0.00
    7  -11    1     -0.32      0.00
    8  -11    1     -0.35      0.00
    2  -10    1      0.23      0.00
    3  -10    1     -0.31      0.00
    4  -10    1     -0.50      0.00
    5  -10    1     -0.38      0.00
    6  -10    1     -0.30      0.00
    1   -9    1      1.38      0.00
    2   -9    1      1.34      0.00
    3   -9    1      1.50      0.00
    4   -9    1      1.55      0.00
    5   -9    1      1.31      0.00
    6   -9    1      0.94      0.00
    7   -9    1      0.57      0.00
    0   -8    1     -3.35      0.00
    2   -8    1     -1.29      0.00
    3   -8    1     -0.60      0.00
    4   -8    1     -0.22      0.00
    2   -7    1     -1.14      0.00
    3   -7    1     -1.36      0.00
    0   -6    1      4.59      0.00
    1   -6    1      3.23      0.00
    2   -6    1      1.83      0.00
    3   -6    1      0.57      0.00
    1   -5    1      1.86      0.00
    2   -5    1      2.29      0.00
    1   -4    1     -6.33      0.00
    1   -3    1     -2.64      0.00
   -3   -2    1      5.56      0.00
    0    0    1    -11.65      0.00
    1    0    1     -7.48      0.00
   -1    4    1     -2.11      0.00
   -4    5    1      1.58      0.00
    0    5    1      7.83      0.00
    6    5    1     -0.43      0.00
   -2    7    1     -2.78      0.00
   10    8    1      0.40      0.00
  -10   11    1      0.44      0.00
   -6   11    1      0.68      0.00
   -5   11    1      0.40      0.00
   -4   11    1     -0.09      0.00
   -2   11    1     -0.57      0.00
  -10   12    1     -0.21      0.00
   -8   12    1      0.09      0.00
   -7   12    1      0.25      0.00
   -6   12    1      0.15      0.00
   -5   12    1      0.17      0.00
   -4   12    1      0.54      0.00
   -3   12    1      0.81      0.00
   -2   12    1      0.73      0.00
   -9   13    1     -0.07      0.00
   -8   13    1     -0.33      0.00
   -7   13    1     -0.59      0.00
   -6   13    1     -0.49      0.00
   -5   13    1     -0.18      0.00
   -4   13    1     -0.03      0.00
   -3   13    1      0.08      0.00
   -2   13    1      0.44      0.00
   -9   14    1     -0.18      0.00
   -8   14    1     -0.07      0.00
   -7   14    1      0.22      0.00
   -6   14    1      0.37      0.00
   -5   14    1      0.24      0.00
   -4   14    1      0.04      0.00
   -3   14    1     -0.26      0.00
   -8   15    1      0.27      0.00
   -7   15    1      0.09      0.00
   -6   15    1     -0.13      0.00
   -5   15    1     -0.29      0.00
   -4   15    1     -0.45      0.00
   -3   15    1     -0.47      0.00
   -7   16    1     -0.10      0.00
   -6   16    1     -0.07      0.00
   -5   16    1     -0.01      0.00
   -4   16    1      0.31      0.00
   -3   16    1      0.73      0.00
   -2   16    1      0.76      0.00
   -6   17    1      0.19      0.00
   -5   17    1      0.26      0.00
   -4   17    1      0.06      0.00
   -3   17    1     -0.45      0.00
   -2   17    1     -0.70      0.00
   -5   18    1     -0.10      0.00
   -4   18    1     -0.02      0.00
   -3   18    1      0.33      0.00
   -2   18    1      0.60      0.00
   -4   19    1     -0.12      0.00
   -3   19    1     -0.21      0.00
   -2   19    1     -0.34      0.00
   -1   19    1     -0.24      0.00
    0   19    1     -0.28      0.00
   -2  -19    2      0.06      0.00
    0  -19    2     -0.02      0.00
    1  -19    2     -0.10      0.00
    2  -19    2      0.01      0.00
    3  -19    2      0.04      0.00
    0  -18    2      0.06      0.00
    1  -18    2      0.08      0.00
    2  -18    2     -0.17      0.00
    3  -18    2     -0.34      0.00
    4  -18    2     -0.13      0.00
    5  -18    2      0.08      0.00
    1  -17    2     -0.30      0.00
    2  -17    2     -0.06      0.00
    3  -17    2      0.23      0.00
    4  -17    2      0.10      0.00
    5  -17    2     -0.25      0.00
    6  -17    2     -0.34      0.00
    1  -16    2      0.29      0.00
    2  -16    2      0.31      0.00
    3  -16    2      0.04      0.00
    4  -16    2     -0.06      0.00
    5  -16    2      0.09      0.00
    6  -16    2      0.11      0.00
    7  -16    2     -0.05      0.00
    1  -15    2      0.41      0.00
    2  -15    2     -0.01      0.00
    3  -15    2      0.04      0.00
    4  -15    2      0.21      0.00
    5  -15    2      0.20      0.00
    6  -15    2      0.22      0.00
    7  -15    2      0.32      0.00
    8  -15    2      0.33      0.00
    1  -14    2     -0.78      0.00
    2  -14    2     -0.18      0.00
    3  -14    2      0.00      0.00
    4  -14    2     -0.07      0.00
    5  -14    2     -0.03      0.00
    6  -14    2      0.00      0.00
    7  -14    2     -0.06      0.00
    8  -14    2     -0.07      0.00
    1  -13    2      0.11      0.00
    2  -13    2     -0.15      0.00
    3  -13    2     -0.27      0.00
    4  -13    2     -0.26      0.00
    5  -13    2     -0.35      0.00
    6  -13    2     -0.35      0.00
    7  -13    2     -0.16      0.00
    8  -13    2     -0.03      0.00
    9  -13    2      0.05      0.00
    1  -12    2      0.28      0.00
    2  -12    2     -0.02      0.00
    3  -12    2     -0.21      0.00
    4  -12    2     -0.27      0.00
    5  -12    2     -0.08      0.00
    6  -12    2      0.02      0.00
    7  -12    2     -0.17      0.00
    8  -12    2     -0.29      0.00
    9  -12    2     -0.18      0.00
    1  -11    2      0.69      0.00
    2  -11    2      0.95      0.00
    3  -11    2      1.22      0.00
    4  -11    2      1.36      0.00
    5  -11    2      1.05      0.00
    6  -11    2      0.56      0.00
    7  -11    2      0.38      0.00
    8  -11    2      0.31      0.00
   10  -11    2     -0.32      0.00
    0  -10    2     -2.10      0.00
    1  -10    2     -1.69      0.00
    2  -10    2     -1.18      0.00
    3  -10    2     -0.96      0.00
    4  -10    2     -1.01      0.00
    5  -10    2     -0.84      0.00
    6  -10    2     -0.35      0.00
    7  -10    2      0.01      0.00
    8  -10    2      0.15      0.00
    1   -9    2      0.71      0.00
    2   -9    2      0.16      0.00
    3   -9    2     -0.39      0.00
    4   -9    2     -0.59      0.00
    5   -9    2     -0.57      0.00
    1   -8    2      1.03      0.00
    2   -8    2      0.32      0.00
    3   -8    2      0.17      0.00
    4   -8    2      0.35      0.00
    6   -8    2      0.51      0.00
  -10   -7    2     -0.24      0.00
    1   -7    2      0.41      0.00
    2   -7    2      1.34      0.00
    3   -7    2      1.95      0.00
    1   -6    2     -3.91      0.00
    2   -6    2     -2.94      0.00
    4   -6    2     -2.28      0.00
    1   -5    2      1.85      0.00
    2   -5    2      0.42      0.00
   -6   -4    2     -1.13      0.00
    1   -4    2      5.26      0.00
    1   -3    2     -4.13      0.00
    0   -2    2    -10.11      0.00
    0    0    2     -1.23      0.00
    6    0    2      2.10      0.00
    6    2    2     -1.49      0.00
    3    3    2      4.83      0.00
   -4    4    2     -3.18      0.00
    6    6    2     -0.75      0.00
   -2    8    2     -2.81      0.00
    0   10    2      1.41      0.00
   -8   11    2     -0.43      0.00
   -9   13    2      0.40      0.00
   -7   13    2      0.41      0.00
   -6   13    2      0.04      0.00
   -5   13    2     -0.07      0.00
   -9   14    2     -0.38      0.00
   -8   14    2     -0.53      0.00
   -7   14    2     -0.55      0.00
   -6   14    2     -0.31      0.00
   -5   14    2      0.00      0.00
   -4   14    2      0.31      0.00
   -8   15    2      0.26      0.00
   -7   15    2      0.34      0.00
   -6   15    2      0.37      0.00
   -5   15    2      0.36      0.00
   -4   15    2      0.14      0.00
   -7   16    2     -0.17      0.00
   -6   16    2     -0.16      0.00
   -5   16    2     -0.30      0.00
   -4   16    2     -0.42      0.00
   -3   16    2     -0.11      0.00
   -6   17    2     -0.06      0.00
   -5   17    2     -0.08      0.00
   -4   17    2      0.14      0.00
   -3   17    2      0.13      0.00
   -2   17    2     -0.29      0.00
   -5   18    2      0.12      0.00
   -4   18    2     -0.01      0.00
   -3   18    2     -0.14      0.00
   -2   18    2      0.08      0.00
   -4   19    2      0.12      0.00
   -3   19    2      0.23      0.00
   -2   19    2      0.12      0.00
    0  -19    3     -0.04      0.00
    1  -19    3      0.02      0.00
    2  -19    3      0.10      0.00
    3  -19    3      0.23      0.00
    0  -18    3     -0.13      0.00
    1  -18    3     -0.08      0.00
    2  -18    3      0.07      0.00
    3  -18    3     -0.01      0.00
    4  -18    3     -0.07      0.00
    0  -17    3      0.61      0.00
    1  -17    3      0.43      0.00
    2  -17    3      0.02      0.00
    3  -17    3     -0.04      0.00
    4  -17    3      0.18      0.00
    5  -17    3      0.22      0.00
    6  -17    3      0.11      0.00
    1  -16    3     -0.82      0.00
    2  -16    3     -0.31      0.00
    3  -16    3     -0.03      0.00
    4  -16    3     -0.18      0.00
    5  -16    3     -0.30      0.00
    6  -16    3     -0.20      0.00
    7  -16    3     -0.11      0.00
    1  -15    3      0.39      0.00
    2  -15    3      0.09      0.00
    3  -15    3     -0.26      0.00
    4  -15    3     -0.26      0.00
    5  -15    3     -0.14      0.00
    6  -15    3     -0.13      0.00
    7  -15    3     -0.12      0.00
    1  -14    3      0.40      0.00
    2  -14    3      0.28      0.00
    3  -14    3      0.41      0.00
    4  -14    3      0.41      0.00
    5  -14    3      0.30      0.00
    6  -14    3      0.19      0.00
    7  -14    3      0.02      0.00
    8  -14    3     -0.12      0.00
    1  -13    3     -0.26      0.00
    2  -13    3      0.03      0.00
    3  -13    3      0.19      0.00
    4  -13    3      0.34      0.00
    5  -13    3      0.38      0.00
    6  -13    3      0.25      0.00
    7  -13    3      0.22      0.00
    8  -13    3      0.25      0.00
    9  -13    3      0.10      0.00
    1  -12    3     -0.35      0.00
    2  -12    3     -0.30      0.00
    3  -12    3     -0.44      0.00
    4  -12    3     -0.77      0.00
    5  -12    3     -0.87      0.00
    6  -12    3     -0.48      0.00
    7  -12    3     -0.08      0.00
    8  -12    3      0.01      0.00
    9  -12    3      0.13      0.00
    1  -11    3      0.03      0.00
    2  -11    3     -0.33      0.00
    3  -11    3     -0.52      0.00
    4  -11    3     -0.24      0.00
    5  -11    3      0.18      0.00
    6  -11    3      0.16      0.00
    7  -11    3     -0.09      0.00
    8  -11    3     -0.03      0.00
    9  -11    3      0.15      0.00
    1  -10    3      0.95      0.00
    2  -10    3      0.75      0.00
    3  -10    3      0.94      0.00
    4  -10    3      0.95      0.00
    5  -10    3      0.51      0.00
    6  -10    3      0.06      0.00
    7  -10    3     -0.22      0.00
    8  -10    3     -0.59      0.00
    1   -9    3     -0.81      0.00
    2   -9    3      0.11      0.00
    3   -9    3      0.42      0.00
    4   -9    3      0.32      0.00
    5   -9    3      0.26      0.00
    6   -9    3      0.33      0.00
    1   -8    3     -0.76      0.00
    2   -8    3     -0.89      0.00
    3   -8    3     -1.09      0.00
    4   -8    3     -1.20      0.00
    1   -7    3      0.92      0.00
    2   -7    3     -0.27      0.00
    3   -7    3     -1.03      0.00
    4   -7    3     -0.92      0.00
    1   -6    3      1.92      0.00
    2   -6    3      2.23      0.00
    1   -4    3     -2.55      0.00
    2   -4    3     -2.93      0.00
    0    1    3      7.31      0.00
   -1    9    3     -0.68      0.00
    0    9    3      0.14      0.00
   -2   11    3      0.46      0.00
   -9   13    3     -0.18      0.00
   -9   14    3      0.44      0.00
   -8   14    3      0.51      0.00
   -7   14    3      0.44      0.00
   -6   14    3      0.29      0.00
   -8   15    3     -0.46      0.00
   -7   15    3     -0.46      0.00
   -6   15    3     -0.47      0.00
   -5   15    3     -0.30      0.00
   -7   16    3      0.21      0.00
   -6   16    3      0.35      0.00
   -5   16    3      0.53      0.00
   -4   16    3      0.36      0.00
   -6   17    3      0.07      0.00
   -5   17    3     -0.21      0.00
   -4   17    3     -0.38      0.00
   -5   18    3     -0.07      0.00
   -4   18    3      0.17      0.00
   -3   18    3      0.14      0.00
   -3   19    3     -0.17      0.00
   -1  -19    4      0.10      0.00
    0  -19    4      0.17      0.00
    1  -19    4      0.13      0.00
    2  -19    4     -0.08      0.00
    0  -18    4     -0.30      0.00
    1  -18    4     -0.36      0.00
    2  -18    4     -0.17      0.00
    3  -18    4      0.02      0.00
    4  -18    4     -0.11      0.00
    0  -17    4      0.12      0.00
    1  -17    4      0.33      0.00
    2  -17    4      0.28      0.00
    3  -17    4     -0.02      0.00
    4  -17    4     -0.08      0.00
    5  -17    4      0.08      0.00
    0  -16    4      0.51      0.00
    1  -16    4      0.20      0.00
    2  -16    4      0.03      0.00
    3  -16    4      0.26      0.00
    4  -16    4      0.43      0.00
    5  -16    4      0.27      0.00
    6  -16    4      0.07      0.00
    0  -15    4     -0.52      0.00
    1  -15    4     -0.33      0.00
    2  -15    4     -0.03      0.00
    3  -15    4     -0.02      0.00
    4  -15    4     -0.12      0.00
    5  -15    4     -0.04      0.00
    6  -15    4      0.11      0.00
    7  -15    4      0.20      0.00
    0  -14    4     -0.40      0.00
    1  -14    4     -0.24      0.00
    2  -14    4     -0.40      0.00
    3  -14    4     -0.55      0.00
    4  -14    4     -0.59      0.00
    5  -14    4     -0.56      0.00
    6  -14    4     -0.38      0.00
    7  -14    4     -0.16      0.00
    8  -14    4     -0.04      0.00
    0  -13    4      0.67      0.00
    1  -13    4      0.34      0.00
    2  -13    4      0.21      0.00
    3  -13    4      0.21      0.00
    4  -13    4      0.33      0.00
    5  -13    4      0.49      0.00
    6  -13    4      0.34      0.00
    7  -13    4     -0.04      0.00
    8  -13    4     -0.15      0.00
    1  -12    4      0.27      0.00
    2  -12    4      0.36      0.00
    3  -12    4      0.62      0.00
    4  -12    4      0.67      0.00
    5  -12    4      0.23      0.00
    6  -12    4     -0.18      0.00
    7  -12    4     -0.17      0.00
    8  -12    4     -0.17      0.00
    9  -12    4     -0.39      0.00
    1  -11    4     -0.32      0.00
    2  -11    4      0.09      0.00
    3  -11    4     -0.08      0.00
    4  -11    4     -0.47      0.00
    5  -11    4     -0.33      0.00
    6  -11    4      0.22      0.00
    7  -11    4      0.47      0.00
    8  -11    4      0.47      0.00
    9  -11    4      0.59      0.00
    1  -10    4     -0.42      0.00
    2  -10    4     -0.88      0.00
    3  -10    4     -1.03      0.00
    4  -10    4     -0.66      0.00
    5  -10    4     -0.28      0.00
    6  -10    4     -0.21      0.00
    7  -10    4     -0.08      0.00
   10  -10    4      0.02      0.00
    1   -9    4      0.49      0.00
    2   -9    4      0.08      0.00
    3   -9    4      0.06      0.00
    4   -9    4      0.06      0.00
    5   -9    4     -0.04      0.00
    2   -8    4      1.49      0.00
    3   -8    4      1.94      0.00
    4   -8    4      1.89      0.00
    2   -7    4     -0.93      0.00
    2   -5    4      1.99      0.00
   -3   -1    4      3.65      0.00
    6    0    4      0.66      0.00
   -6    4    4     -1.34      0.00
    4    4    4     -0.93      0.00
    4    6    4      0.42      0.00
    6    6    4     -0.05      0.00
  -11    8    4      0.81      0.00
   -2    8    4     -1.25      0.00
   -8   14    4      0.06      0.00
   -8   15    4      0.13      0.00
   -7   15    4      0.30      0.00
   -7   16    4     -0.32      0.00
   -6   16    4     -0.54      0.00
   -5   16    4     -0.34      0.00
   -6   17    4      0.36      0.00
   -5   17    4      0.47      0.00
   -5   18    4     -0.20      0.00
   -4   18    4     -0.21      0.00
   -3   19    4      0.19      0.00
   -1  -19    5     -0.06      0.00
    0  -19    5     -0.14      0.00
    1  -19    5     -0.03      0.00
    2  -19    5      0.06      0.00
    0  -18    5      0.23      0.00
    1  -18    5      0.15      0.00
    2  -18    5     -0.03      0.00
    3  -18    5      0.04      0.00
    4  -18    5      0.17      0.00
    0  -17    5     -0.28      0.00
    1  -17    5     -0.31      0.00
    2  -17    5     -0.11      0.00
    3  -17    5     -0.06      0.00
    4  -17    5     -0.23      0.00
    5  -17    5     -0.25      0.00
    0  -16    5     -0.22      0.00
    1  -16    5     -0.02      0.00
    2  -16    5     -0.17      0.00
    3  -16    5     -0.33      0.00
    4  -16    5     -0.21      0.00
    5  -16    5      0.00      0.00
    6  -16    5      0.08      0.00
    0  -15    5      0.59      0.00
    1  -15    5      0.32      0.00
    2  -15    5      0.30      0.00
    3  -15    5      0.45      0.00
    4  -15    5      0.41      0.00
    5  -15    5      0.18      0.00
    6  -15    5     -0.10      0.00
    7  -15    5     -0.30      0.00
    1  -14    5      0.16      0.00
    2  -14    5      0.25      0.00
    3  -14    5      0.25      0.00
    4  -14    5      0.24      0.00
    5  -14    5      0.16      0.00
    6  -14    5      0.12      0.00
    7  -14    5      0.24      0.00
    0  -13    5     -0.79      0.00
    1  -13    5     -0.47      0.00
    2  -13    5     -0.35      0.00
    3  -13    5     -0.45      0.00
    4  -13    5     -0.64      0.00
    5  -13    5     -0.49      0.00
    6  -13    5     -0.04      0.00
    7  -13    5      0.14      0.00
    8  -13    5      0.04      0.00
    0  -12    5      0.20      0.00
    1  -12    5     -0.18      0.00
    2  -12    5     -0.57      0.00
    3  -12    5     -0.65      0.00
    4  -12    5     -0.20      0.00
    5  -12    5      0.22      0.00
    6  -12    5      0.10      0.00
    7  -12    5     -0.06      0.00
    8  -12    5      0.16      0.00
    1  -11    5      0.48      0.00
    2  -11    5      0.67      0.00
    3  -11    5      0.97      0.00
    4  -11    5      0.72      0.00
    5  -11    5     -0.03      0.00
    6  -11    5     -0.47      0.00
    7  -11    5     -0.58      0.00
    8  -11    5     -0.82      0.00
    9  -11    5     -0.97      0.00
    1  -10    5      0.40      0.00
    2  -10    5      0.73      0.00
    3  -10    5      0.59      0.00
    4  -10    5      0.41      0.00
    5  -10    5      0.57      0.00
    6  -10    5      0.71      0.00
    2   -9    5     -1.00      0.00
    3   -9    5     -1.14      0.00
    4   -9    5     -1.04      0.00
    1   -8    5     -0.59      0.00
    2   -8    5     -1.04      0.00
    3   -8    5     -1.10      0.00
    1    1    5      2.85      0.00
    3    4    5      2.55      0.00
   -8   15    5      0.06      0.00
   -6   17    5     -0.09      0.00
   -5   17    5      0.11      0.00
   -5   18    5      0.00      0.00
   -2  -19    6     -0.04      0.00
   -1  -19    6      0.09      0.00
    0  -19    6      0.06      0.00
    1  -19    6      0.01      0.00
   -1  -18    6     -0.12      0.00
    0  -18    6     -0.17      0.00
    1  -18    6     -0.04      0.00
    2  -18    6     -0.03      0.00
    3  -18    6     -0.09      0.00
   -6  -17    6     -0.01      0.00
   -1  -17    6      0.30      0.00
    0  -17    6      0.38      0.00
    1  -17    6      0.24      0.00
    2  -17    6      0.15      0.00
    3  -17    6      0.25      0.00
    4  -17    6      0.23      0.00
    0  -16    6     -0.05      0.00
    1  -16    6      0.02      0.00
    2  -16    6      0.16      0.00
    3  -16    6      0.06      0.00
    4  -16    6     -0.09      0.00
    5  -16    6     -0.05      0.00
    0  -15    6     -0.68      0.00
    1  -15    6     -0.59      0.00
    2  -15    6     -0.65      0.00
    3  -15    6     -0.58      0.00
    4  -15    6     -0.35      0.00
    5  -15    6     -0.09      0.00
    6  -15    6      0.10      0.00
    0  -14    6      0.52      0.00
    1  -14    6      0.35      0.00
    2  -14    6      0.24      0.00
    3  -14    6      0.18      0.00
    4  -14    6      0.17      0.00
    5  -14    6      0.13      0.00
    6  -14    6     -0.11      0.00
    7  -14    6     -0.29      0.00
    0  -13    6      0.28      0.00
    1  -13    6      0.26      0.00
    2  -13    6      0.41      0.00
    3  -13    6      0.60      0.00
    4  -13    6      0.46      0.00
    5  -13    6     -0.05      0.00
    6  -13    6     -0.29      0.00
    7  -13    6     -0.14      0.00
    8  -13    6     -0.12      0.00
    1  -12    6      0.27      0.00
    2  -12    6      0.35      0.00
    3  -12    6      0.04      0.00
    4  -12    6     -0.19      0.00
    5  -12    6      0.18      0.00
    6  -12    6      0.63      0.00
    7  -12    6      0.52      0.00
    8  -12    6      0.25      0.00
    1  -11    6     -1.12      0.00
    2  -11    6     -1.45      0.00
    3  -11    6     -1.30      0.00
    4  -11    6     -0.68      0.00
    5  -11    6     -0.32      0.00
    6  -11    6     -0.30      0.00
    7  -11    6     -0.02      0.00
    8  -11    6      0.36      0.00
    9  -11    6      0.37      0.00
    1  -10    6      0.29      0.00
    2  -10    6      0.48      0.00
    3  -10    6      0.61      0.00
    4  -10    6      0.30      0.00
    5  -10    6     -0.12      0.00
    2   -9    6      1.15      0.00
    3   -9    6      1.04      0.00
    5   -7    6     -0.98      0.00
    3   -3    6     -0.99      0.00
   -4   -1    6     -3.10      0.00
    0    2    6      5.11      0.00
   -6    4    6      0.32      0.00
    4    4    6     -1.38      0.00
    4    6    6      2.35      0.00
   -7   16    6     -0.19      0.00
   -6   17    6     -0.04      0.00
   -1  -19    7      0.02      0.00
   -1  -18    7     -0.08      0.00
    0  -18    7     -0.23      0.00
    1  -18    7     -0.30      0.00
    2  -18    7     -0.24      0.00
   -1  -17    7     -0.20      0.00
    0  -17    7     -0.12      0.00
    1  -17    7      0.00      0.00
    2  -17    7     -0.04      0.00
    3  -17    7     -0.04      0.00
    4  -17    7      0.11      0.00
    0  -16    7      0.28      0.00
    1  -16    7      0.14      0.00
    2  -16    7      0.13      0.00
    3  -16    7      0.18      0.00
    4  -16    7      0.09      0.00
    5  -16    7     -0.11      0.00
   -8  -15    7     -0.04      0.00
   -1  -15    7      0.36      0.00
    0  -15    7      0.27      0.00
    1  -15    7      0.32      0.00
    2  -15    7      0.33      0.00
    3  -15    7      0.21      0.00
    4  -15    7      0.06      0.00
    5  -15    7     -0.04      0.00
    6  -15    7      0.02      0.00
    0  -14    7     -0.45      0.00
    1  -14    7     -0.35      0.00
    2  -14    7     -0.31      0.00
    3  -14    7     -0.28      0.00
    4  -14    7     -0.20      0.00
    5  -14    7      0.09      0.00
    6  -14    7      0.34      0.00
    7  -14    7      0.18      0.00
    0  -13    7     -0.33      0.00
    1  -13    7     -0.51      0.00
    2  -13    7     -0.64      0.00
    3  -13    7     -0.53      0.00
    4  -13    7     -0.11      0.00
    5  -13    7      0.09      0.00
    6  -13    7     -0.11      0.00
    7  -13    7     -0.11      0.00
    1  -12    7      0.54      0.00
    2  -12    7      0.75      0.00
    3  -12    7      0.81      0.00
    4  -12    7      0.26      0.00
    5  -12    7     -0.44      0.00
    6  -12    7     -0.56      0.00
    7  -12    7     -0.41      0.00
    8  -12    7     -0.50      0.00
    2  -11    7      0.59      0.00
    3  -11    7      0.21      0.00
    4  -11    7      0.18      0.00
    5  -11    7      0.56      0.00
    6  -11    7      0.62      0.00
    7  -11    7      0.34      0.00
    8  -11    7      0.33      0.00
    0  -10    7     -0.96      0.00
    2  -10    7     -0.84      0.00
    3  -10    7     -0.50      0.00
    4  -10    7     -0.11      0.00
    5  -10    7     -0.03      0.00
    3   -6    7     -2.02      0.00
    4    2    7     -0.87      0.00
   -8   15    7     -0.45      0.00
   -7   16    7     -0.12      0.00
   -1  -18    8     -0.02      0.00
    0  -18    8      0.09      0.00
    1  -18    8      0.09      0.00
    2  -18    8      0.10      0.00
   -1  -17    8      0.11      0.00
    0  -17    8     -0.01      0.00
    1  -17    8     -0.05      0.00
    2  -17    8     -0.08      0.00
    3  -17    8     -0.22      0.00
    0  -16    8     -0.24      0.00
    1  -16    8     -0.14      0.00
    2  -16    8     -0.10      0.00
    3  -16    8      0.03      0.00
    4  -16    8      0.23      0.00
    0  -15    8     -0.10      0.00
    1  -15    8     -0.15      0.00
    2  -15    8     -0.12      0.00
    3  -15    8     -0.06      0.00
    4  -15    8     -0.03      0.00
    5  -15    8     -0.08      0.00
    0  -14    8      0.51      0.00
    1  -14    8      0.48      0.00
    2  -14    8      0.40      0.00
    3  -14    8      0.26      0.00
    4  -14    8     -0.05      0.00
    5  -14    8     -0.36      0.00
    6  -14    8     -0.29      0.00
    1  -13    8      0.24      0.00
    2  -13    8      0.20      0.00
    3  -13    8      0.02      0.00
    4  -13    8      0.02      0.00
    5  -13    8      0.39      0.00
    6  -13    8      0.54      0.00
    7  -13    8      0.24      0.00
    1  -12    8     -1.04      0.00
    2  -12    8     -0.94      0.00
    3  -12    8     -0.43      0.00
    4  -12    8      0.19      0.00
    5  -12    8      0.25      0.00
    6  -12    8      0.00      0.00
    7  -12    8      0.07      0.00
    2  -11    8      0.27      0.00
    3  -11    8      0.03      0.00
    4  -11    8     -0.58      0.00
    5  -11    8     -0.83      0.00
    6  -11    8     -0.52      0.00
    7  -11    8     -0.38      0.00
    8  -11    8     -0.43      0.00
    4   -4    8     -1.84      0.00
    4    0    8     -0.93      0.00
   -1    2    8     -0.76      0.00
    4    2    8      1.14      0.00
    3    5    8      2.10      0.00
   -4    6    8     -1.30      0.00
   -2   11    8      0.09      0.00
   -1  -18    9     -0.07      0.00
    0  -18    9     -0.03      0.00
   -1  -17    9      0.02      0.00
    0  -17    9      0.03      0.00
    1  -17    9     -0.05      0.00
    2  -17    9     -0.04      0.00
    3  -17    9      0.01      0.00
   -1  -16    9      0.26      0.00
    0  -16    9      0.17      0.00
    1  -16    9      0.13      0.00
    2  -16    9      0.03      0.00
    3  -16    9     -0.13      0.00
    4  -16    9     -0.22      0.00
    0  -15    9     -0.01      0.00
    1  -15    9      0.01      0.00
    2  -15    9      0.03      0.00
    3  -15    9      0.08      0.00
    4  -15    9      0.14      0.00
    5  -15    9      0.24      0.00
    0  -14    9     -0.61      0.00
    1  -14    9     -0.52      0.00
    2  -14    9     -0.31      0.00
    3  -14    9     -0.01      0.00
    4  -14    9      0.29      0.00
    5  -14    9      0.25      0.00
    6  -14    9     -0.03      0.00
    0  -13    9      0.46      0.00
    1  -13    9      0.42      0.00
    2  -13    9      0.27      0.00
    3  -13    9     -0.04      0.00
    4  -13    9     -0.55      0.00
    5  -13    9     -0.79      0.00
    6  -13    9     -0.41      0.00
    2  -12    9      0.22      0.00
    3  -12    9     -0.02      0.00
    4  -12    9      0.13      0.00
    5  -12    9      0.47      0.00
    6  -12    9      0.33      0.00
    7  -12    9     -0.04      0.00
    2  -11    9     -0.09      0.00
    3  -11    9      0.50      0.00
    4  -11    9      0.79      0.00
    5  -11    9      0.49      0.00
    6  -11    9      0.28      0.00
    7  -11    9      0.36      0.00
   -4    0    9     -2.02      0.00
   -8   14    9     -0.95      0.00
   -1  -17   10     -0.13      0.00
    0  -17   10     -0.03      0.00
    1  -17   10      0.08      0.00
    2  -17   10      0.14      0.00
   -1  -16   10     -0.12      0.00
    0  -16   10     -0.04      0.00
    1  -16   10      0.00      0.00
    2  -16   10      0.07      0.00
    3  -16   10      0.11      0.00
    0  -15   10      0.02      0.00
    1  -15   10     -0.11      0.00
    2  -15   10     -0.25      0.00
    3  -15   10     -0.33      0.00
    4  -15   10     -0.34      0.00
    0  -14   10      0.48      0.00
    1  -14   10      0.41      0.00
    2  -14   10      0.28      0.00
    3  -14   10      0.10      0.00
    4  -14   10      0.05      0.00
    5  -14   10      0.15      0.00
    1  -13   10     -0.62      0.00
    2  -13   10     -0.22      0.00
    3  -13   10      0.33      0.00
    4  -13   10      0.68      0.00
    5  -13   10      0.46      0.00
    6  -13   10      0.06      0.00
    1  -12   10      0.24      0.00
    2  -12   10      0.07      0.00
    3  -12   10     -0.34      0.00
    4  -12   10     -0.84      0.00
    5  -12   10     -0.76      0.00
    6  -12   10     -0.22      0.00
   -7   -2   10     -0.82      0.00
   -2  -17   11      0.15      0.00
   -1  -17   11     -0.05      0.00
    0  -17   11     -0.30      0.00
   -1  -16   11      0.25      0.00
    0  -16   11      0.43      0.00
    1  -16   11      0.50      0.00
    2  -16   11      0.44      0.00
   -3  -15   11     -0.47      0.00
    0  -15   11     -0.39      0.00
    1  -15   11     -0.30      0.00
    2  -15   11     -0.11      0.00
    3  -15   11      0.09      0.00
    1  -14   11      0.05      0.00
    2  -14   11     -0.04      0.00
    3  -14   11     -0.21      0.00
    4  -14   11     -0.41      0.00
    2  -13   11     -0.19      0.00
    3  -13   11     -0.34      0.00
    4  -13   11     -0.11      0.00
    5  -13   11      0.22      0.00
    3  -12   11      0.84      0.00
    4  -12   11      0.77      0.00
    5  -12   11      0.19      0.00
    6  -12   11     -0.15      0.00
   -1    3   11     -1.08      0.00
    0  -16   12     -0.39      0.00
    1  -16   12     -0.42      0.00
    0  -15   12      0.56      0.00
    1  -15   12      0.50      0.00
    2  -15   12      0.32      0.00
    3  -15   12      0.10      0.00
    1  -14   12     -0.38      0.00
    2  -14   12     -0.17      0.00
    3  -14   12      0.13      0.00
    4  -14   12      0.27      0.00
    2  -13   12      0.43      0.00
    3  -13   12      0.19      0.00
    4  -13   12     -0.17      0.00
    4  -12   12     -0.36      0.00
    5  -12   12      0.10      0.00
   -4    1   12     -1.88      0.00
    1  -15   13     -0.10      0.00
    2  -14   13     -0.33      0.00
    3  -14   13     -0.48      0.00
    3  -13   13      0.49      0.00
    4  -13   13      0.41      0.00
    0  -15   14     -0.09      0.00
    4  -12   14      0.30      0.00
   -1    4   14     -0.48      0.00
   -1    7   14      0.23      0.00
    1  -12   16      0.38      0.00
    2  -11   16     -0.20      0.00
    4   -9   16      0.40      0.00
    0    0    0      0.00      0.00
# SQUEEZE RESULTS (Version = 100419)
# Note: Data are Listed for all Voids in the P1 Unit Cell
# i.e. Centre of Gravity, Solvent Accessible Volume,
# Recovered number of Electrons in the Void and
# Details about the Squeezed Material
loop_
  _platon_squeeze_void_nr
  _platon_squeeze_void_average_x
  _platon_squeeze_void_average_y
  _platon_squeeze_void_average_z
  _platon_squeeze_void_volume
  _platon_squeeze_void_count_electrons
  _platon_squeeze_void_content
   1  0.048  0.383  0.708        81        10 ' '
   2 -0.049  0.617  0.292        80        10 ' '
# Missing Reflections Below sin(th)/lambda = 0.25
loop_
  _platon_missing_refln_index_h
  _platon_missing_refln_index_k
  _platon_missing_refln_index_l
  _platon_missing_refln_theta
    1    0    0     2.101
   -1    1    0     2.463
    0    1    0     1.310
    1    1    0     2.489
   -2    6    0     8.902
    0   -6    1     7.960
    1   -6    1     8.288
    2   -6    1     9.110
    1   -5    1     7.052
    2   -5    1     8.002
    1   -4    1     5.856
    1   -3    1     4.727
   -3   -2    1     6.701
    0    0    1     1.265
    1    0    1     2.693
   -1    4    1     5.685
    0    5    1     6.709
   -2    7    1    10.070
    1   -7    2     9.845
    1   -6    2     8.627
    2   -6    2     9.487
    1   -5    2     7.450
    2   -5    2     8.431
    1   -4    2     6.334
    1   -3    2     5.312
    0   -2    2     3.608
    0    0    2     2.531
    3    3    2     8.392
   -4    4    2     9.742
    1   -6    3     9.133
    2   -6    3    10.014
    1   -4    3     7.013
    2   -4    3     8.127
    0    1    3     4.043
    2   -5    4     9.746
   -3   -1    4     7.238
    1    1    5     7.280
   -4   -1    6    10.056
    0    2    6     8.105
_platon_squeeze_void_probe_radius                  1.20
_platon_squeeze_details
)
TITL cp_OH in P-1
CELL    9.8190   15.3160   16.3010     90.99    103.45     90.42
SPGR P-1
# Solvent Accessible Volume =       158
# Electrons Found in S.A.V. =        19
# Note: Atoms in Void are Labelled as Cxxx and Qxxx for all Others
C101 0.031 0.736 0.402 !       4.64 eA-3
Q102 0.602 0.982 0.014 !       1.12 eA-3
Q103 0.903 0.017 0.502 !       0.90 eA-3
Q104 0.539 0.063 0.031 !       0.88 eA-3
Q105 0.954 0.936 0.469 !       0.85 eA-3
Q106 0.463 0.435 0.467 !       0.77 eA-3
Q107 0.213 0.802 0.401 !       0.72 eA-3
C108 0.902 0.564 0.283 !       0.72 eA-3
Q109 0.549 0.580 0.028 !       0.72 eA-3
Q110 0.530 0.544 0.050 !       0.71 eA-3
Q111 0.090 0.674 0.428 !       0.69 eA-3
Q112 0.623 0.465 0.014 !       0.67 eA-3
Q113 0.604 0.486 0.499 !       0.66 eA-3
Q114 0.565 0.061 0.171 !       0.63 eA-3
Q115 0.982 0.723 0.343 !       0.62 eA-3
Q116 0.158 0.816 0.377 !       0.60 eA-3
Q117 0.139 0.437 0.284 !       0.60 eA-3
Q118 0.089 0.607 0.079 !       0.60 eA-3
Q119 0.395 0.514 0.018 !       0.59 eA-3
Q120 0.486 0.010 0.076 !       0.58 eA-3
Q121 0.279 0.410 0.329 !       0.58 eA-3
Q122 0.479 0.482 0.418 !       0.57 eA-3
Q123 0.910 0.667 0.406 !       0.57 eA-3
C124 0.927 0.589 0.335 !       0.55 eA-3
Q125 0.934 0.746 0.298 !       0.54 eA-3
Q126 0.847 0.468 0.278 !       0.53 eA-3
Q127 0.851 0.714 0.298 !       0.53 eA-3
C128 0.951 0.608 0.307 !       0.52 eA-3
Q129 1.000 0.612 0.250 !       0.52 eA-3
Q130 0.742 0.575 0.233 !       0.51 eA-3
Q131 0.936 0.593 0.394 !       0.50 eA-3
)
;
_shelx_fab_checksum              76427
loop_
_space_group_symop_operation_xyz
'x, y, z'
'-x, -y, -z'
loop_
_atom_site_label
_atom_site_type_symbol
_atom_site_fract_x
_atom_site_fract_y
_atom_site_fract_z
_atom_site_U_iso_or_equiv
_atom_site_adp_type
_atom_site_occupancy
_atom_site_site_symmetry_order
_atom_site_calc_flag
_atom_site_refinement_flags_posn
_atom_site_refinement_flags_adp
_atom_site_refinement_flags_occupancy
Ni1 Ni 0.500000 1.000000 0.000000 0.0654(3) Uani 1 2 d S . P
Ni2 Ni 1.000000 1.000000 0.500000 0.0669(3) Uani 1 2 d S . P
Ni3 Ni 0.500000 0.500000 0.000000 0.0682(4) Uani 1 2 d S . P
Ni4 Ni 0.500000 0.500000 0.500000 0.0711(4) Uani 1 2 d S . P
O1 O 0.3484(5) 0.7842(3) -0.0114(3) 0.0823(13) Uani 1 1 d . . .
O2 O 0.4663(5) 0.8903(3) 0.0712(2) 0.0704(11) Uani 1 1 d . . .
O3 O 1.0251(5) 0.9776(3) 0.2893(2) 0.0767(12) Uani 1 1 d . . .
O4 O 0.8975(5) 0.9375(3) 0.3812(2) 0.0754(12) Uani 1 1 d . . .
O5 O 0.6724(6) 0.6937(3) -0.0159(3) 0.0903(15) Uani 1 1 d . . .
O6 O 0.5824(5) 0.6158(3) 0.0731(2) 0.0714(11) Uani 1 1 d . . .
O7 O 0.2359(5) 0.6254(3) 0.3749(3) 0.0809(12) Uani 1 1 d . . .
O8 O 0.4598(5) 0.5860(3) 0.3949(3) 0.0761(12) Uani 1 1 d . . .
O9 O 0.8566(7) 0.7308(4) -0.1022(4) 0.1095(17) Uani 1 1 d . . .
H9 H 0.798046 0.734821 -0.072115 0.164 Uiso 1 1 calc R U .
O10 O 1.3090(7) 0.9983(5) 0.3105(4) 0.124(2) Uani 1 1 d . . .
H10A H 1.223695 0.991334 0.309469 0.186 Uiso 1 1 calc R U .
O11 O 0.1989(6) 0.7505(4) -0.1764(3) 0.0923(14) Uani 1 1 d . . .
H11 H 0.243595 0.760798 -0.126615 0.138 Uiso 1 1 calc R U .
O12 O 0.2472(6) 0.3532(5) 0.2498(3) 0.118(2) Uani 1 1 d . . .
H12 H 0.227086 0.341054 0.197868 0.177 Uiso 1 1 calc R U .
N1 N 0.7074(6) 0.9686(3) 0.0324(3) 0.0695(13) Uani 1 1 d . . .
H1 H 0.714257 0.908283 0.055425 0.083 Uiso 1 1 calc R U .
N2 N 0.4657(6) 0.9278(4) -0.1097(3) 0.0708(13) Uani 1 1 d . . .
H2 H 0.454142 0.865193 -0.095989 0.085 Uiso 1 1 calc R U .
N3 N 0.7114(6) 0.9050(4) -0.1027(3) 0.0816(16) Uani 1 1 d . . .
N4 N 1.1079(6) 0.8870(4) 0.5292(3) 0.0778(15) Uani 1 1 d . . .
H4 H 1.092288 0.850462 0.476337 0.093 Uiso 1 1 calc R U .
N5 N 1.1472(6) 1.0556(4) 0.4485(3) 0.0746(14) Uani 1 1 d . . .
H5 H 1.131741 1.031521 0.389564 0.090 Uiso 1 1 calc R U .
N6 N 1.3240(6) 0.9460(5) 0.5002(3) 0.0850(16) Uani 1 1 d . . .
N7 N 0.5928(6) 0.5288(4) -0.0966(3) 0.0723(14) Uani 1 1 d . . .
H7 H 0.630257 0.589886 -0.086577 0.087 Uiso 1 1 calc R U .
N8 N 0.3208(6) 0.5676(4) -0.0492(3) 0.0761(14) Uani 1 1 d . . .
H8 H 0.340132 0.631077 -0.035608 0.091 Uiso 1 1 calc R U .
N9 N 0.3766(6) 0.5815(4) -0.1891(3) 0.0761(14) Uani 1 1 d . . .
N10 N 0.4625(6) 0.3985(4) 0.4159(3) 0.0782(15) Uani 1 1 d . . .
H10 H 0.421910 0.423226 0.359125 0.094 Uiso 1 1 calc R U .
N11 N 0.2956(6) 0.5056(4) 0.5114(3) 0.0787(15) Uani 1 1 d . . .
H11A H 0.242145 0.538144 0.461736 0.094 Uiso 1 1 calc R U .
N12 N 0.2268(6) 0.3672(4) 0.4372(3) 0.0795(15) Uani 1 1 d . . .
C1 C 0.4044(7) 0.8181(4) 0.0578(4) 0.0675(15) Uani 1 1 d . . .
C2 C 0.3949(6) 0.7680(4) 0.1373(3) 0.0618(14) Uani 1 1 d . . .
C3 C 0.2635(7) 0.7488(4) 0.1505(4) 0.0690(16) Uani 1 1 d . . .
H3 H 0.182081 0.765441 0.110037 0.083 Uiso 1 1 calc R U .
C4 C 0.2502(7) 0.7059(4) 0.2218(3) 0.0682(16) Uani 1 1 d . . .
H4A H 0.159603 0.695266 0.231158 0.082 Uiso 1 1 calc R U .
C5 C 0.3671(7) 0.6781(4) 0.2800(3) 0.0677(16) Uani 1 1 d . . .
C6 C 0.4979(7) 0.6971(4) 0.2675(3) 0.0673(15) Uani 1 1 d . . .
H6 H 0.578322 0.678433 0.307686 0.081 Uiso 1 1 calc R U .
C7 C 0.5158(6) 0.7432(4) 0.1971(3) 0.0625(14) Uani 1 1 d . . .
C8 C 0.3501(8) 0.6257(4) 0.3561(4) 0.0713(17) Uani 1 1 d . . .
C9 C 0.9344(7) 0.9299(4) 0.3120(4) 0.0715(16) Uani 1 1 d . . .
C10 C 0.8630(7) 0.8598(4) 0.2498(4) 0.0675(15) Uani 1 1 d . . .
C11 C 0.7332(6) 0.8266(4) 0.2527(3) 0.0634(14) Uani 1 1 d . . .
H11B H 0.692883 0.844045 0.297895 0.076 Uiso 1 1 calc R U .
C12 C 0.6596(7) 0.7685(4) 0.1914(3) 0.0645(15) Uani 1 1 d . . .
C13 C 0.7189(7) 0.7416(4) 0.1261(4) 0.0646(15) Uani 1 1 d . . .
C14 C 0.8548(7) 0.7737(4) 0.1263(4) 0.0695(16) Uani 1 1 d . . .
H14 H 0.898837 0.753392 0.083607 0.083 Uiso 1 1 calc R U .
C15 C 0.9245(7) 0.8323(4) 0.1847(3) 0.0672(15) Uani 1 1 d . . .
H15 H 1.013759 0.854222 0.181497 0.081 Uiso 1 1 calc R U .
C16 C 0.6519(7) 0.6798(4) 0.0559(4) 0.0730(17) Uani 1 1 d . . .
C17 C 0.3295(7) 0.9587(5) -0.1602(4) 0.0737(17) Uani 1 1 d . . .
H17A H 0.290572 0.915798 -0.205882 0.088 Uiso 1 1 calc R U .
H17B H 0.342951 1.015108 -0.186237 0.088 Uiso 1 1 calc R U .
C18 C 0.7705(7) 1.0301(4) 0.1031(4) 0.0734(17) Uani 1 1 d . . .
H18A H 0.789360 1.087308 0.080354 0.088 Uiso 1 1 calc R U .
H18B H 0.860484 1.006775 0.135433 0.088 Uiso 1 1 calc R U .
C19 C 0.5797(7) 0.9337(5) -0.1551(4) 0.0784(18) Uani 1 1 d . . .
H19A H 0.555375 0.897054 -0.207189 0.094 Uiso 1 1 calc R U .
H19B H 0.589792 0.994910 -0.171687 0.094 Uiso 1 1 calc R U .
C20 C 0.7785(8) 0.9691(5) -0.0370(4) 0.0804(18) Uani 1 1 d . . .
H20A H 0.878359 0.954309 -0.015642 0.096 Uiso 1 1 calc R U .
H20B H 0.773959 1.028102 -0.061214 0.096 Uiso 1 1 calc R U .
C21 C 0.8133(9) 0.8785(6) -0.1521(5) 0.095(2) Uani 1 1 d . . .
H21A H 0.864290 0.931042 -0.164041 0.114 Uiso 1 1 calc R U .
H21B H 0.761854 0.852898 -0.206856 0.114 Uiso 1 1 calc R U .
C22 C 0.9167(9) 0.8140(6) -0.1083(5) 0.102(2) Uani 1 1 d . . .
H22A H 0.991901 0.807747 -0.139139 0.122 Uiso 1 1 calc R U .
H22B H 0.959922 0.836588 -0.050792 0.122 Uiso 1 1 calc R U .
C23 C 1.0409(9) 0.8411(5) 0.5881(4) 0.090(2) Uani 1 1 d . . .
H23A H 1.073495 0.866398 0.645721 0.108 Uiso 1 1 calc R U .
H23B H 1.065616 0.778495 0.589573 0.108 Uiso 1 1 calc R U .
C24 C 1.1144(8) 1.1491(5) 0.4414(4) 0.087(2) Uani 1 1 d . . .
H24A H 1.161986 1.176230 0.400761 0.105 Uiso 1 1 calc R U .
H24B H 1.147899 1.178930 0.496912 0.105 Uiso 1 1 calc R U .
C25 C 1.2936(7) 1.0358(6) 0.4910(4) 0.086(2) Uani 1 1 d . . .
H25A H 1.356421 1.062179 0.458497 0.103 Uiso 1 1 calc R U .
H25B H 1.315058 1.064147 0.547628 0.103 Uiso 1 1 calc R U .
C26 C 1.2620(8) 0.9010(5) 0.5595(4) 0.0849(19) Uani 1 1 d . . .
H26A H 1.280617 0.935108 0.613193 0.102 Uiso 1 1 calc R U .
H26B H 1.307433 0.843598 0.571248 0.102 Uiso 1 1 calc R U .
C27 C 1.3226(10) 0.8924(7) 0.4217(5) 0.113(3) Uani 1 1 d . . .
H27A H 1.367228 0.835874 0.439423 0.135 Uiso 1 1 calc R U .
H27B H 1.223605 0.879624 0.393544 0.135 Uiso 1 1 calc R U .
C28 C 1.3900(11) 0.9286(8) 0.3595(6) 0.127(3) Uani 1 1 d . . .
H28A H 1.404480 0.881248 0.320446 0.153 Uiso 1 1 calc R U .
H28B H 1.483259 0.952175 0.388581 0.153 Uiso 1 1 calc R U .
C29 C 0.7109(8) 0.4721(5) -0.0897(4) 0.0820(19) Uani 1 1 d . . .
H29A H 0.777616 0.496911 -0.120424 0.098 Uiso 1 1 calc R U .
H29B H 0.679187 0.414111 -0.115060 0.098 Uiso 1 1 calc R U .
C30 C 0.2173(8) 0.5374(5) -0.0031(4) 0.086(2) Uani 1 1 d . . .
H30A H 0.176644 0.480509 -0.026947 0.103 Uiso 1 1 calc R U .
H30B H 0.140411 0.579993 -0.008991 0.103 Uiso 1 1 calc R U .
C31 C 0.4934(8) 0.5259(5) -0.1814(4) 0.081(2) Uani 1 1 d . . .
H31A H 0.545272 0.542040 -0.224349 0.097 Uiso 1 1 calc R U .
H31B H 0.458906 0.465104 -0.194059 0.097 Uiso 1 1 calc R U .
C32 C 0.2729(8) 0.5568(5) -0.1438(4) 0.0823(19) Uani 1 1 d . . .
H32A H 0.245936 0.494887 -0.157596 0.099 Uiso 1 1 calc R U .
H32B H 0.188360 0.592448 -0.163655 0.099 Uiso 1 1 calc R U .
C33 C 0.4120(9) 0.6744(5) -0.1861(4) 0.0842(19) Uani 1 1 d . . .
H33A H 0.490406 0.683021 -0.214028 0.101 Uiso 1 1 calc R U .
H33B H 0.445040 0.693450 -0.126386 0.101 Uiso 1 1 calc R U .
C34 C 0.2936(9) 0.7310(5) -0.2272(4) 0.087(2) Uani 1 1 d . . .
H34A H 0.332415 0.786367 -0.243042 0.105 Uiso 1 1 calc R U .
H34B H 0.241589 0.701458 -0.279850 0.105 Uiso 1 1 calc R U .
C35 C 0.5988(8) 0.3644(5) 0.4139(4) 0.086(2) Uani 1 1 d . . .
H35A H 0.591155 0.326766 0.362999 0.103 Uiso 1 1 calc R U .
H35B H 0.633834 0.328483 0.464140 0.103 Uiso 1 1 calc R U .
C36 C 0.3006(8) 0.5620(5) 0.5873(4) 0.085(2) Uani 1 1 d . . .
H36A H 0.332011 0.527774 0.639115 0.102 Uiso 1 1 calc R U .
H36B H 0.206360 0.585064 0.586355 0.102 Uiso 1 1 calc R U .
C37 C 0.3595(8) 0.3315(5) 0.4326(4) 0.087(2) Uani 1 1 d . . .
H37A H 0.344221 0.286250 0.387200 0.105 Uiso 1 1 calc R U .
H37B H 0.400756 0.302725 0.486455 0.105 Uiso 1 1 calc R U .
C38 C 0.2256(8) 0.4204(5) 0.5101(4) 0.0820(19) Uani 1 1 d . . .
H38A H 0.271731 0.388376 0.561072 0.098 Uiso 1 1 calc R U .
H38B H 0.127116 0.430072 0.512826 0.098 Uiso 1 1 calc R U .
C39 C 0.1376(9) 0.4021(7) 0.3577(5) 0.113(3) Uani 1 1 d . . .
H39A H 0.042800 0.412056 0.366982 0.135 Uiso 1 1 calc R U .
H39B H 0.176457 0.459725 0.347626 0.135 Uiso 1 1 calc R U .
C40 C 0.1232(10) 0.3489(7) 0.2814(5) 0.122(3) Uani 1 1 d . . .
H40A H 0.104280 0.287481 0.293685 0.146 Uiso 1 1 calc R U .
H40B H 0.042549 0.369470 0.237875 0.146 Uiso 1 1 calc R U .
loop_
_atom_site_aniso_label
_atom_site_aniso_U_11
_atom_site_aniso_U_22
_atom_site_aniso_U_33
_atom_site_aniso_U_23
_atom_site_aniso_U_13
_atom_site_aniso_U_12
Ni1 0.0730(7) 0.0721(7) 0.0518(5) 0.0136(5) 0.0154(5) -0.0035(6)
Ni2 0.0764(7) 0.0717(7) 0.0516(6) 0.0037(5) 0.0129(5) -0.0104(6)
Ni3 0.0871(8) 0.0691(7) 0.0489(5) 0.0050(5) 0.0169(5) -0.0065(6)
Ni4 0.0840(8) 0.0790(8) 0.0519(6) 0.0148(5) 0.0183(5) -0.0085(6)
O1 0.112(4) 0.081(3) 0.051(2) 0.009(2) 0.013(2) -0.011(3)
O2 0.084(3) 0.069(3) 0.058(2) 0.0134(19) 0.014(2) -0.005(2)
O3 0.085(3) 0.089(3) 0.054(2) 0.001(2) 0.014(2) -0.021(3)
O4 0.087(3) 0.089(3) 0.051(2) -0.002(2) 0.019(2) -0.010(2)
O5 0.123(4) 0.094(3) 0.055(2) -0.002(2) 0.024(2) -0.034(3)
O6 0.089(3) 0.069(3) 0.059(2) 0.0018(19) 0.022(2) -0.013(2)
O7 0.089(3) 0.096(3) 0.065(2) 0.020(2) 0.032(2) 0.003(3)
O8 0.085(3) 0.084(3) 0.062(2) 0.021(2) 0.022(2) -0.004(2)
O9 0.121(5) 0.107(4) 0.109(4) 0.003(3) 0.043(3) -0.007(4)
O10 0.122(5) 0.148(6) 0.103(4) 0.000(4) 0.031(4) -0.017(5)
O11 0.106(4) 0.102(4) 0.067(3) 0.000(3) 0.016(3) 0.005(3)
O12 0.114(4) 0.164(6) 0.074(3) -0.001(4) 0.020(3) -0.013(4)
N1 0.080(3) 0.068(3) 0.063(3) 0.011(2) 0.021(2) 0.000(3)
N2 0.082(3) 0.071(3) 0.061(3) 0.007(2) 0.019(2) -0.008(3)
N3 0.076(4) 0.104(5) 0.067(3) 0.001(3) 0.023(3) 0.000(3)
N4 0.091(4) 0.080(4) 0.061(3) 0.011(3) 0.015(3) -0.006(3)
N5 0.082(4) 0.080(4) 0.061(3) 0.010(2) 0.015(3) -0.012(3)
N6 0.087(4) 0.102(5) 0.064(3) 0.001(3) 0.014(3) -0.001(3)
N7 0.086(4) 0.073(4) 0.058(3) 0.006(2) 0.018(2) -0.011(3)
N8 0.088(4) 0.084(4) 0.056(3) 0.000(2) 0.017(3) -0.009(3)
N9 0.094(4) 0.082(4) 0.052(3) 0.007(2) 0.015(3) 0.005(3)
N10 0.087(4) 0.083(4) 0.063(3) 0.018(3) 0.012(3) -0.006(3)
N11 0.087(4) 0.095(4) 0.056(3) 0.012(3) 0.020(3) -0.009(3)
N12 0.090(4) 0.080(4) 0.068(3) 0.014(3) 0.016(3) -0.008(3)
C1 0.081(4) 0.063(4) 0.059(3) 0.007(3) 0.016(3) 0.007(3)
C2 0.072(4) 0.062(4) 0.052(3) 0.009(2) 0.015(3) 0.000(3)
C3 0.077(4) 0.071(4) 0.059(3) 0.010(3) 0.016(3) -0.001(3)
C4 0.080(4) 0.072(4) 0.055(3) 0.006(3) 0.020(3) -0.004(3)
C5 0.086(4) 0.067(4) 0.052(3) 0.011(3) 0.020(3) -0.001(3)
C6 0.085(4) 0.068(4) 0.050(3) 0.013(3) 0.018(3) 0.002(3)
C7 0.073(4) 0.065(4) 0.049(3) 0.009(2) 0.013(3) -0.008(3)
C8 0.085(5) 0.077(4) 0.050(3) 0.007(3) 0.013(3) -0.003(4)
C9 0.080(4) 0.069(4) 0.061(3) 0.009(3) 0.007(3) 0.006(3)
C10 0.070(4) 0.076(4) 0.056(3) 0.005(3) 0.013(3) -0.002(3)
C11 0.077(4) 0.063(4) 0.050(3) 0.010(3) 0.014(3) 0.006(3)
C12 0.080(4) 0.062(4) 0.052(3) 0.013(3) 0.015(3) 0.000(3)
C13 0.075(4) 0.058(4) 0.061(3) 0.009(3) 0.017(3) -0.005(3)
C14 0.080(4) 0.071(4) 0.058(3) 0.005(3) 0.018(3) 0.011(3)
C15 0.069(4) 0.072(4) 0.057(3) 0.006(3) 0.009(3) 0.000(3)
C16 0.087(4) 0.080(4) 0.054(3) 0.000(3) 0.020(3) -0.008(4)
C17 0.083(4) 0.074(4) 0.061(3) 0.008(3) 0.010(3) -0.004(3)
C18 0.078(4) 0.073(4) 0.066(4) 0.012(3) 0.009(3) -0.003(3)
C19 0.087(5) 0.084(5) 0.069(4) 0.000(3) 0.028(3) -0.006(4)
C20 0.085(5) 0.083(5) 0.079(4) 0.006(4) 0.031(4) -0.001(4)
C21 0.109(6) 0.100(6) 0.082(5) -0.003(4) 0.033(4) 0.009(5)
C22 0.108(6) 0.110(7) 0.093(5) -0.005(5) 0.038(5) -0.011(5)
C23 0.117(6) 0.084(5) 0.070(4) 0.017(3) 0.022(4) -0.006(4)
C24 0.106(6) 0.083(5) 0.074(4) 0.004(3) 0.023(4) -0.022(4)
C25 0.072(4) 0.115(7) 0.068(4) 0.001(4) 0.010(3) -0.017(4)
C26 0.093(5) 0.093(5) 0.066(4) 0.007(3) 0.014(3) 0.004(4)
C27 0.104(6) 0.167(9) 0.072(5) 0.008(5) 0.031(4) 0.000(6)
C28 0.125(8) 0.145(9) 0.106(7) 0.011(6) 0.014(6) 0.021(7)
C29 0.099(5) 0.085(5) 0.064(4) 0.004(3) 0.025(3) -0.003(4)
C30 0.095(5) 0.094(6) 0.067(4) 0.007(4) 0.014(3) 0.005(4)
C31 0.096(5) 0.093(5) 0.053(3) 0.004(3) 0.018(3) -0.017(4)
C32 0.096(5) 0.086(5) 0.060(3) 0.007(3) 0.009(3) -0.004(4)
C33 0.111(6) 0.080(5) 0.059(4) 0.008(3) 0.015(3) 0.000(4)
C34 0.113(6) 0.090(5) 0.060(4) -0.001(3) 0.024(4) 0.005(4)
C35 0.099(5) 0.098(5) 0.062(4) -0.004(3) 0.024(3) -0.010(4)
C36 0.094(5) 0.108(6) 0.056(3) 0.005(3) 0.024(3) -0.005(4)
C37 0.109(6) 0.082(5) 0.069(4) 0.015(3) 0.017(4) -0.012(4)
C38 0.090(5) 0.090(5) 0.067(4) 0.015(3) 0.019(3) -0.013(4)
C39 0.099(6) 0.160(9) 0.073(5) 0.003(5) 0.007(4) 0.013(6)
C40 0.107(7) 0.173(10) 0.083(5) 0.000(6) 0.021(5) -0.017(6)
loop_
_atom_type_symbol
_atom_type_description
_atom_type_scat_dispersion_real
_atom_type_scat_dispersion_imag
_atom_type_scat_source
C C 0.0030 0.0016 'International Tables Vol C Tables 4.2.6.8 and 6.1.1.4'
H H 0.0000 0.0000 'International Tables Vol C Tables 4.2.6.8 and 6.1.1.4'
N N 0.0059 0.0032 'International Tables Vol C Tables 4.2.6.8 and 6.1.1.4'
O O 0.0105 0.0059 'International Tables Vol C Tables 4.2.6.8 and 6.1.1.4'
Ni Ni 0.3420 1.0875 'International Tables Vol C Tables 4.2.6.8 and 6.1.1.4'
loop_
_geom_angle_atom_site_label_1
_geom_angle_atom_site_label_2
_geom_angle_atom_site_label_3
_geom_angle
_geom_angle_site_symmetry_1
_geom_angle_site_symmetry_3
N1 Ni1 N1 180.0 . 2_675
N1 Ni1 N2 92.7(2) . .
N1 Ni1 N2 87.3(2) 2_675 .
N1 Ni1 N2 87.3(2) . 2_675
N1 Ni1 N2 92.7(2) 2_675 2_675
N2 Ni1 N2 180.0(3) . 2_675
N1 Ni1 O2 93.78(19) . 2_675
N1 Ni1 O2 86.22(19) 2_675 2_675
N2 Ni1 O2 87.49(18) . 2_675
N2 Ni1 O2 92.51(18) 2_675 2_675
N1 Ni1 O2 86.22(19) . .
N1 Ni1 O2 93.78(19) 2_675 .
N2 Ni1 O2 92.51(18) . .
N2 Ni1 O2 87.49(18) 2_675 .
O2 Ni1 O2 180.0 2_675 .
N5 Ni2 N5 180.0 2_776 .
N5 Ni2 N4 85.6(2) 2_776 .
N5 Ni2 N4 94.4(2) . .
N5 Ni2 N4 94.4(2) 2_776 2_776
N5 Ni2 N4 85.6(2) . 2_776
N4 Ni2 N4 180.0 . 2_776
N5 Ni2 O4 87.94(18) 2_776 .
N5 Ni2 O4 92.06(18) . .
N4 Ni2 O4 87.4(2) . .
N4 Ni2 O4 92.6(2) 2_776 .
N5 Ni2 O4 92.06(18) 2_776 2_776
N5 Ni2 O4 87.94(18) . 2_776
N4 Ni2 O4 92.6(2) . 2_776
N4 Ni2 O4 87.4(2) 2_776 2_776
O4 Ni2 O4 180.0(2) . 2_776
N7 Ni3 N7 180.0 . 2_665
N7 Ni3 N8 85.6(2) . 2_665
N7 Ni3 N8 94.4(2) 2_665 2_665
N7 Ni3 N8 94.4(2) . .
N7 Ni3 N8 85.6(2) 2_665 .
N8 Ni3 N8 180.0 2_665 .
N7 Ni3 O6 86.26(18) . 2_665
N7 Ni3 O6 93.74(18) 2_665 2_665
N8 Ni3 O6 88.52(19) 2_665 2_665
N8 Ni3 O6 91.48(19) . 2_665
N7 Ni3 O6 93.74(18) . .
N7 Ni3 O6 86.26(18) 2_665 .
N8 Ni3 O6 91.48(19) 2_665 .
N8 Ni3 O6 88.52(19) . .
O6 Ni3 O6 180.0 2_665 .
N10 Ni4 N10 180.0(2) 2_666 .
N10 Ni4 N11 86.0(2) 2_666 .
N10 Ni4 N11 94.0(2) . .
N10 Ni4 N11 94.0(2) 2_666 2_666
N10 Ni4 N11 86.0(2) . 2_666
N11 Ni4 N11 180.00(3) . 2_666
N10 Ni4 O8 92.11(19) 2_666 .
N10 Ni4 O8 87.89(19) . .
N11 Ni4 O8 92.31(19) . .
N11 Ni4 O8 87.69(19) 2_666 .
N10 Ni4 O8 87.89(19) 2_666 2_666
N10 Ni4 O8 92.11(19) . 2_666
N11 Ni4 O8 87.69(19) . 2_666
N11 Ni4 O8 92.31(19) 2_666 2_666
O8 Ni4 O8 180.0(3) . 2_666
C1 O2 Ni1 137.5(4) . .
C9 O4 Ni2 131.2(4) . .
C16 O6 Ni3 131.1(4) . .
C8 O8 Ni4 133.0(4) . .
C22 O9 H9 109.5 . .
C28 O10 H10A 109.5 . .
C34 O11 H11 109.5 . .
C40 O12 H12 109.5 . .
C20 N1 C18 113.7(5) . .
C20 N1 Ni1 115.1(4) . .
C18 N1 Ni1 104.9(4) . .
C20 N1 H1 107.6 . .
C18 N1 H1 107.6 . .
Ni1 N1 H1 107.6 . .
C19 N2 C17 112.9(5) . .
C19 N2 Ni1 114.4(4) . .
C17 N2 Ni1 104.6(4) . .
C19 N2 H2 108.2 . .
C17 N2 H2 108.2 . .
Ni1 N2 H2 108.2 . .
C19 N3 C20 114.0(6) . .
C19 N3 C21 112.9(5) . .
C20 N3 C21 109.1(6) . .
C23 N4 C26 114.9(6) . .
C23 N4 Ni2 106.4(5) . .
C26 N4 Ni2 113.4(4) . .
C23 N4 H4 107.3 . .
C26 N4 H4 107.3 . .
Ni2 N4 H4 107.3 . .
C24 N5 C25 115.0(6) . .
C24 N5 Ni2 106.3(4) . .
C25 N5 Ni2 115.0(4) . .
C24 N5 H5 106.6 . .
C25 N5 H5 106.6 . .
Ni2 N5 H5 106.6 . .
C25 N6 C26 115.9(6) . .
C25 N6 C27 117.9(6) . .
C26 N6 C27 112.9(7) . .
C29 N7 C31 114.1(5) . .
C29 N7 Ni3 107.3(4) . .
C31 N7 Ni3 113.4(4) . .
C29 N7 H7 107.2 . .
C31 N7 H7 107.2 . .
Ni3 N7 H7 107.2 . .
C30 N8 C32 113.8(5) . .
C30 N8 Ni3 105.4(4) . .
C32 N8 Ni3 112.8(4) . .
C30 N8 H8 108.2 . .
C32 N8 H8 108.2 . .
Ni3 N8 H8 108.2 . .
C31 N9 C32 116.5(6) . .
C31 N9 C33 114.0(6) . .
C32 N9 C33 115.7(5) . .
C35 N10 C37 114.7(6) . .
C35 N10 Ni4 105.6(4) . .
C37 N10 Ni4 114.4(4) . .
C35 N10 H10 107.3 . .
C37 N10 H10 107.3 . .
Ni4 N10 H10 107.3 . .
C38 N11 C36 116.0(5) . .
C38 N11 Ni4 114.8(5) . .
C36 N11 Ni4 104.9(4) . .
C38 N11 H11A 106.8 . .
C36 N11 H11A 106.8 . .
Ni4 N11 H11A 106.8 . .
C38 N12 C37 116.2(6) . .
C38 N12 C39 113.2(6) . .
C37 N12 C39 117.2(6) . .
O1 C1 O2 127.4(6) . .
O1 C1 C2 117.4(6) . .
O2 C1 C2 115.2(5) . .
C3 C2 C7 119.8(5) . .
C3 C2 C1 118.6(5) . .
C7 C2 C1 121.6(5) . .
C4 C3 C2 120.5(6) . .
C4 C3 H3 119.7 . .
C2 C3 H3 119.7 . .
C3 C4 C5 120.8(6) . .
C3 C4 H4A 119.6 . .
C5 C4 H4A 119.6 . .
C6 C5 C4 119.0(5) . .
C6 C5 C8 120.9(6) . .
C4 C5 C8 120.1(6) . .
C5 C6 C7 121.8(6) . .
C5 C6 H6 119.1 . .
C7 C6 H6 119.1 . .
C6 C7 C2 118.0(6) . .
C6 C7 C12 119.0(5) . .
C2 C7 C12 122.9(5) . .
O7 C8 O8 126.0(6) . .
O7 C8 C5 118.7(6) . .
O8 C8 C5 115.3(6) . .
O4 C9 O3 125.4(6) . .
O4 C9 C10 117.8(6) . .
O3 C9 C10 116.7(5) . .
C11 C10 C15 119.1(6) . .
C11 C10 C9 121.0(5) . .
C15 C10 C9 119.8(6) . .
C10 C11 C12 122.1(5) . .
C10 C11 H11B 119.0 . .
C12 C11 H11B 119.0 . .
C13 C12 C11 119.3(6) . .
C13 C12 C7 123.4(5) . .
C11 C12 C7 117.2(5) . .
C12 C13 C14 117.7(5) . .
C12 C13 C16 125.1(6) . .
C14 C13 C16 117.2(5) . .
C15 C14 C13 122.8(6) . .
C15 C14 H14 118.6 . .
C13 C14 H14 118.6 . .
C14 C15 C10 119.0(6) . .
C14 C15 H15 120.5 . .
C10 C15 H15 120.5 . .
O5 C16 O6 124.2(6) . .
O5 C16 C13 117.5(6) . .
O6 C16 C13 118.3(5) . .
N2 C17 C18 109.0(5) . 2_675
N2 C17 H17A 109.9 . .
C18 C17 H17A 109.9 2_675 .
N2 C17 H17B 109.9 . .
C18 C17 H17B 109.9 2_675 .
H17A C17 H17B 108.3 . .
N1 C18 C17 109.2(5) . 2_675
N1 C18 H18A 109.8 . .
C17 C18 H18A 109.8 2_675 .
N1 C18 H18B 109.8 . .
C17 C18 H18B 109.8 2_675 .
H18A C18 H18B 108.3 . .
N3 C19 N2 111.0(5) . .
N3 C19 H19A 109.4 . .
N2 C19 H19A 109.4 . .
N3 C19 H19B 109.4 . .
N2 C19 H19B 109.4 . .
H19A C19 H19B 108.0 . .
N1 C20 N3 109.8(5) . .
N1 C20 H20A 109.7 . .
N3 C20 H20A 109.7 . .
N1 C20 H20B 109.7 . .
N3 C20 H20B 109.7 . .
H20A C20 H20B 108.2 . .
N3 C21 C22 113.2(7) . .
N3 C21 H21A 108.9 . .
C22 C21 H21A 108.9 . .
N3 C21 H21B 108.9 . .
C22 C21 H21B 108.9 . .
H21A C21 H21B 107.8 . .
O9 C22 C21 113.1(8) . .
O9 C22 H22A 108.9 . .
C21 C22 H22A 108.9 . .
O9 C22 H22B 108.9 . .
C21 C22 H22B 108.9 . .
H22A C22 H22B 107.8 . .
N4 C23 C24 108.2(6) . 2_776
N4 C23 H23A 110.1 . .
C24 C23 H23A 110.1 2_776 .
N4 C23 H23B 110.1 . .
C24 C23 H23B 110.1 2_776 .
H23A C23 H23B 108.4 . .
N5 C24 C23 108.9(6) . 2_776
N5 C24 H24A 109.9 . .
C23 C24 H24A 109.9 2_776 .
N5 C24 H24B 109.9 . .
C23 C24 H24B 109.9 2_776 .
H24A C24 H24B 108.3 . .
N6 C25 N5 115.1(6) . .
N6 C25 H25A 108.5 . .
N5 C25 H25A 108.5 . .
N6 C25 H25B 108.5 . .
N5 C25 H25B 108.5 . .
H25A C25 H25B 107.5 . .
N6 C26 N4 113.4(6) . .
N6 C26 H26A 108.9 . .
N4 C26 H26A 108.9 . .
N6 C26 H26B 108.9 . .
N4 C26 H26B 108.9 . .
H26A C26 H26B 107.7 . .
C28 C27 N6 118.1(9) . .
C28 C27 H27A 107.8 . .
N6 C27 H27A 107.8 . .
C28 C27 H27B 107.8 . .
N6 C27 H27B 107.8 . .
H27A C27 H27B 107.1 . .
C27 C28 O10 113.1(9) . .
C27 C28 H28A 109.0 . .
O10 C28 H28A 109.0 . .
C27 C28 H28B 109.0 . .
O10 C28 H28B 109.0 . .
H28A C28 H28B 107.8 . .
N7 C29 C30 109.1(6) . 2_665
N7 C29 H29A 109.9 . .
C30 C29 H29A 109.9 2_665 .
N7 C29 H29B 109.9 . .
C30 C29 H29B 109.9 2_665 .
H29A C29 H29B 108.3 . .
N8 C30 C29 109.2(6) . 2_665
N8 C30 H30A 109.8 . .
C29 C30 H30A 109.8 2_665 .
N8 C30 H30B 109.8 . .
C29 C30 H30B 109.8 2_665 .
H30A C30 H30B 108.3 . .
N9 C31 N7 114.7(5) . .
N9 C31 H31A 108.6 . .
N7 C31 H31A 108.6 . .
N9 C31 H31B 108.6 . .
N7 C31 H31B 108.6 . .
H31A C31 H31B 107.6 . .
N9 C32 N8 114.2(5) . .
N9 C32 H32A 108.7 . .
N8 C32 H32A 108.7 . .
N9 C32 H32B 108.7 . .
N8 C32 H32B 108.7 . .
H32A C32 H32B 107.6 . .
N9 C33 C34 114.1(6) . .
N9 C33 H33A 108.7 . .
C34 C33 H33A 108.7 . .
N9 C33 H33B 108.7 . .
C34 C33 H33B 108.7 . .
H33A C33 H33B 107.6 . .
O11 C34 C33 114.2(6) . .
O11 C34 H34A 108.7 . .
C33 C34 H34A 108.7 . .
O11 C34 H34B 108.7 . .
C33 C34 H34B 108.7 . .
H34A C34 H34B 107.6 . .
N10 C35 C36 110.0(6) . 2_666
N10 C35 H35A 109.7 . .
C36 C35 H35A 109.7 2_666 .
N10 C35 H35B 109.7 . .
C36 C35 H35B 109.7 2_666 .
H35A C35 H35B 108.2 . .
N11 C36 C35 107.9(5) . 2_666
N11 C36 H36A 110.1 . .
C35 C36 H36A 110.1 2_666 .
N11 C36 H36B 110.1 . .
C35 C36 H36B 110.1 2_666 .
H36A C36 H36B 108.4 . .
N12 C37 N10 113.7(6) . .
N12 C37 H37A 108.8 . .
N10 C37 H37A 108.8 . .
N12 C37 H37B 108.8 . .
N10 C37 H37B 108.8 . .
H37A C37 H37B 107.7 . .
N12 C38 N11 114.1(5) . .
N12 C38 H38A 108.7 . .
N11 C38 H38A 108.7 . .
N12 C38 H38B 108.7 . .
N11 C38 H38B 108.7 . .
H38A C38 H38B 107.6 . .
C40 C39 N12 117.2(8) . .
C40 C39 H39A 108.0 . .
N12 C39 H39A 108.0 . .
C40 C39 H39B 108.0 . .
N12 C39 H39B 108.0 . .
H39A C39 H39B 107.2 . .
O12 C40 C39 111.2(8) . .
O12 C40 H40A 109.4 . .
C39 C40 H40A 109.4 . .
O12 C40 H40B 109.4 . .
C39 C40 H40B 109.4 . .
H40A C40 H40B 108.0 . .
loop_
_geom_bond_atom_site_label_1
_geom_bond_atom_site_label_2
_geom_bond_distance
_geom_bond_site_symmetry_2
Ni1 N1 2.045(5) .
Ni1 N1 2.045(5) 2_675
Ni1 N2 2.045(5) .
Ni1 N2 2.045(5) 2_675
Ni1 O2 2.126(4) 2_675
Ni1 O2 2.126(4) .
Ni2 N5 2.023(5) 2_776
Ni2 N5 2.023(5) .
Ni2 N4 2.041(6) .
Ni2 N4 2.041(6) 2_776
Ni2 O4 2.167(4) .
Ni2 O4 2.167(4) 2_776
Ni3 N7 2.047(5) .
Ni3 N7 2.047(5) 2_665
Ni3 N8 2.053(6) 2_665
Ni3 N8 2.053(6) .
Ni3 O6 2.162(4) 2_665
Ni3 O6 2.162(4) .
Ni4 N10 2.028(6) 2_666
Ni4 N10 2.028(6) .
Ni4 N11 2.061(6) .
Ni4 N11 2.061(6) 2_666
Ni4 O8 2.143(4) .
Ni4 O8 2.143(4) 2_666
O1 C1 1.237(7) .
O2 C1 1.249(7) .
O3 C9 1.272(8) .
O4 C9 1.265(7) .
O5 C16 1.256(7) .
O6 C16 1.262(7) .
O7 C8 1.229(8) .
O8 C8 1.280(8) .
O9 C22 1.414(10) .
O9 H9 0.8400 .
O10 C28 1.469(11) .
O10 H10A 0.8400 .
O11 C34 1.413(8) .
O11 H11 0.8400 .
O12 C40 1.430(10) .
O12 H12 0.8400 .
N1 C20 1.460(8) .
N1 C18 1.490(8) .
N1 H1 1.0000 .
N2 C19 1.482(8) .
N2 C17 1.483(8) .
N2 H2 1.0000 .
N3 C19 1.450(9) .
N3 C20 1.473(9) .
N3 C21 1.478(9) .
N4 C23 1.470(8) .
N4 C26 1.491(9) .
N4 H4 1.0000 .
N5 C24 1.471(9) .
N5 C25 1.479(9) .
N5 H5 1.0000 .
N6 C25 1.413(10) .
N6 C26 1.439(9) .
N6 C27 1.506(10) .
N7 C29 1.438(9) .
N7 C31 1.494(8) .
N7 H7 1.0000 .
N8 C30 1.474(9) .
N8 C32 1.509(8) .
N8 H8 1.0000 .
N9 C31 1.418(9) .
N9 C32 1.442(8) .
N9 C33 1.460(9) .
N10 C35 1.448(9) .
N10 C37 1.508(9) .
N10 H10 1.0000 .
N11 C38 1.467(9) .
N11 C36 1.487(8) .
N11 H11A 1.0000 .
N12 C38 1.432(9) .
N12 C37 1.434(10) .
N12 C39 1.494(10) .
C1 C2 1.538(8) .
C2 C3 1.387(8) .
C2 C7 1.409(8) .
C3 C4 1.378(8) .
C3 H3 0.9500 .
C4 C5 1.383(9) .
C4 H4A 0.9500 .
C5 C6 1.377(9) .
C5 C8 1.528(8) .
C6 C7 1.403(8) .
C6 H6 0.9500 .
C7 C12 1.485(8) .
C9 C10 1.516(8) .
C10 C11 1.379(8) .
C10 C15 1.397(8) .
C11 C12 1.392(8) .
C11 H11B 0.9500 .
C12 C13 1.385(8) .
C13 C14 1.418(9) .
C13 C16 1.497(8) .
C14 C15 1.355(8) .
C14 H14 0.9500 .
C15 H15 0.9500 .
C17 C18 1.512(9) 2_675
C17 H17A 0.9900 .
C17 H17B 0.9900 .
C18 H18A 0.9900 .
C18 H18B 0.9900 .
C19 H19A 0.9900 .
C19 H19B 0.9900 .
C20 H20A 0.9900 .
C20 H20B 0.9900 .
C21 C22 1.490(12) .
C21 H21A 0.9900 .
C21 H21B 0.9900 .
C22 H22A 0.9900 .
C22 H22B 0.9900 .
C23 C24 1.498(11) 2_776
C23 H23A 0.9900 .
C23 H23B 0.9900 .
C24 H24A 0.9900 .
C24 H24B 0.9900 .
C25 H25A 0.9900 .
C25 H25B 0.9900 .
C26 H26A 0.9900 .
C26 H26B 0.9900 .
C27 C28 1.449(12) .
C27 H27A 0.9900 .
C27 H27B 0.9900 .
C28 H28A 0.9900 .
C28 H28B 0.9900 .
C29 C30 1.523(9) 2_665
C29 H29A 0.9900 .
C29 H29B 0.9900 .
C30 H30A 0.9900 .
C30 H30B 0.9900 .
C31 H31A 0.9900 .
C31 H31B 0.9900 .
C32 H32A 0.9900 .
C32 H32B 0.9900 .
C33 C34 1.491(11) .
C33 H33A 0.9900 .
C33 H33B 0.9900 .
C34 H34A 0.9900 .
C34 H34B 0.9900 .
C35 C36 1.496(10) 2_666
C35 H35A 0.9900 .
C35 H35B 0.9900 .
C36 H36A 0.9900 .
C36 H36B 0.9900 .
C37 H37A 0.9900 .
C37 H37B 0.9900 .
C38 H38A 0.9900 .
C38 H38B 0.9900 .
C39 C40 1.453(12) .
C39 H39A 0.9900 .
C39 H39B 0.9900 .
C40 H40A 0.9900 .
C40 H40B 0.9900 .
loop_
_geom_hbond_atom_site_label_D
_geom_hbond_atom_site_label_H
_geom_hbond_atom_site_label_A
_geom_hbond_distance_DH
_geom_hbond_distance_HA
_geom_hbond_distance_DA
_geom_hbond_angle_DHA
_geom_hbond_site_symmetry_A
_geom_hbond_publ_flag
O9 H9 O5 0.84 1.81 2.602(7) 155.4 . yes
O10 H10A O3 0.84 1.91 2.743(8) 171.4 . yes
O11 H11 O1 0.84 1.95 2.786(6) 179.6 . yes
O12 H12 O9 0.84 1.91 2.686(8) 152.9 2_665 yes
N2 H2 O1 1.00 2.29 3.111(7) 139.0 . yes
N5 H5 O3 1.00 1.90 2.831(6) 154.7 . yes
N5 H5 O10 1.00 2.45 3.157(9) 127.6 . yes
N7 H7 O5 1.00 1.93 2.846(7) 150.7 . yes
N8 H8 O1 1.00 2.37 3.361(8) 171.2 . yes
N10 H10 O12 1.00 2.40 3.088(8) 125.4 . yes
N11 H11A O7 1.00 1.96 2.867(7) 150.3 . yes
loop_
_geom_torsion_atom_site_label_1
_geom_torsion_atom_site_label_2
_geom_torsion_atom_site_label_3
_geom_torsion_atom_site_label_4
_geom_torsion
_geom_torsion_site_symmetry_4
Ni1 O2 C1 O1 7.4(11) .
Ni1 O2 C1 C2 -170.9(4) .
O1 C1 C2 C3 -59.6(8) .
O2 C1 C2 C3 118.9(6) .
O1 C1 C2 C7 121.8(7) .
O2 C1 C2 C7 -59.7(8) .
C7 C2 C3 C4 0.2(9) .
C1 C2 C3 C4 -178.5(6) .
C2 C3 C4 C5 -2.5(10) .
C3 C4 C5 C6 2.7(9) .
C3 C4 C5 C8 -176.3(6) .
C4 C5 C6 C7 -0.5(9) .
C8 C5 C6 C7 178.4(6) .
C5 C6 C7 C2 -1.7(9) .
C5 C6 C7 C12 174.5(6) .
C3 C2 C7 C6 1.9(9) .
C1 C2 C7 C6 -179.5(5) .
C3 C2 C7 C12 -174.2(6) .
C1 C2 C7 C12 4.4(9) .
Ni4 O8 C8 O7 3.5(10) .
Ni4 O8 C8 C5 -177.1(4) .
C6 C5 C8 O7 165.0(6) .
C4 C5 C8 O7 -16.0(9) .
C6 C5 C8 O8 -14.5(9) .
C4 C5 C8 O8 164.4(6) .
Ni2 O4 C9 O3 -20.0(10) .
Ni2 O4 C9 C10 161.5(4) .
O4 C9 C10 C11 22.3(9) .
O3 C9 C10 C11 -156.3(6) .
O4 C9 C10 C15 -162.1(6) .
O3 C9 C10 C15 19.2(9) .
C15 C10 C11 C12 -1.9(9) .
C9 C10 C11 C12 173.6(5) .
C10 C11 C12 C13 1.2(9) .
C10 C11 C12 C7 -174.9(5) .
C6 C7 C12 C13 120.3(6) .
C2 C7 C12 C13 -63.6(9) .
C6 C7 C12 C11 -63.8(8) .
C2 C7 C12 C11 112.2(7) .
C11 C12 C13 C14 1.4(9) .
C7 C12 C13 C14 177.2(6) .
C11 C12 C13 C16 -179.8(6) .
C7 C12 C13 C16 -4.0(9) .
C12 C13 C14 C15 -3.4(9) .
C16 C13 C14 C15 177.8(6) .
C13 C14 C15 C10 2.7(9) .
C11 C10 C15 C14 0.0(9) .
C9 C10 C15 C14 -175.6(6) .
Ni3 O6 C16 O5 9.8(11) .
Ni3 O6 C16 C13 -167.9(4) .
C12 C13 C16 O5 143.8(7) .
C14 C13 C16 O5 -37.4(9) .
C12 C13 C16 O6 -38.4(10) .
C14 C13 C16 O6 140.4(6) .
C19 N2 C17 C18 -167.1(5) 2_675
Ni1 N2 C17 C18 -42.1(5) 2_675
C20 N1 C18 C17 166.1(5) 2_675
Ni1 N1 C18 C17 39.5(6) 2_675
C20 N3 C19 N2 -76.1(7) .
C21 N3 C19 N2 158.7(6) .
C17 N2 C19 N3 178.5(5) .
Ni1 N2 C19 N3 59.0(6) .
C18 N1 C20 N3 178.6(5) .
Ni1 N1 C20 N3 -60.4(6) .
C19 N3 C20 N1 76.6(7) .
C21 N3 C20 N1 -156.1(6) .
C19 N3 C21 C22 -153.9(7) .
C20 N3 C21 C22 78.2(8) .
N3 C21 C22 O9 69.5(9) .
C26 N4 C23 C24 166.8(6) 2_776
Ni2 N4 C23 C24 40.4(7) 2_776
C25 N5 C24 C23 -169.8(5) 2_776
Ni2 N5 C24 C23 -41.3(6) 2_776
C26 N6 C25 N5 -69.9(7) .
C27 N6 C25 N5 68.3(8) .
C24 N5 C25 N6 178.0(5) .
Ni2 N5 C25 N6 54.0(7) .
C25 N6 C26 N4 72.1(8) .
C27 N6 C26 N4 -68.2(9) .
C23 N4 C26 N6 180.0(6) .
Ni2 N4 C26 N6 -57.4(7) .
C25 N6 C27 C28 44.3(11) .
C26 N6 C27 C28 -176.2(8) .
N6 C27 C28 O10 -74.4(11) .
C31 N7 C29 C30 -165.5(6) 2_665
Ni3 N7 C29 C30 -39.0(7) 2_665
C32 N8 C30 C29 164.6(6) 2_665
Ni3 N8 C30 C29 40.5(7) 2_665
C32 N9 C31 N7 -70.6(7) .
C33 N9 C31 N7 68.2(7) .
C29 N7 C31 N9 -180.0(6) .
Ni3 N7 C31 N9 56.8(7) .
C31 N9 C32 N8 70.6(8) .
C33 N9 C32 N8 -67.5(8) .
C30 N8 C32 N9 -176.6(6) .
Ni3 N8 C32 N9 -56.5(7) .
C31 N9 C33 C34 156.7(5) .
C32 N9 C33 C34 -64.2(7) .
N9 C33 C34 O11 80.9(7) .
C37 N10 C35 C36 -169.7(5) 2_666
Ni4 N10 C35 C36 -42.9(6) 2_666
C38 N11 C36 C35 167.8(6) 2_666
Ni4 N11 C36 C35 40.0(7) 2_666
C38 N12 C37 N10 -70.9(7) .
C39 N12 C37 N10 67.3(8) .
C35 N10 C37 N12 178.0(5) .
Ni4 N10 C37 N12 55.8(7) .
C37 N12 C38 N11 71.1(8) .
C39 N12 C38 N11 -68.8(9) .
C36 N11 C38 N12 -178.2(6) .
Ni4 N11 C38 N12 -55.5(7) .
C38 N12 C39 C40 -175.1(7) .
C37 N12 C39 C40 45.5(11) .
N12 C39 C40 O12 -75.2(11) .
