#------------------------------------------------------------------------------
#$Date: 2019-05-21 03:39:58 +0300 (Tue, 21 May 2019) $
#$Revision: 215335 $
#$URL: file:///home/coder/svn-repositories/cod/cif/7/12/35/7123503.cif $
#------------------------------------------------------------------------------
#
# This file is available in the Crystallography Open Database (COD),
# http://www.crystallography.net/
#
# All data on this site have been placed in the public domain by the
# contributors.
#
data_7123503
loop_
_publ_author_name
'Li, Bei-Bei'
'Wang, Wenjing'
'Hong, Zixiao'
'M. El-Sayed, El-Sayed'
'Yuan, Daqiang'
_publ_section_title
;
 Ratiometric fluorescent detecting trace water in organic solvent based on
 bimetallic lanthanide metal-organic frameworks
;
_journal_name_full               'Chemical Communications'
_journal_paper_doi               10.1039/C9CC02324K
_journal_year                    2019
_chemical_formula_moiety
'C92 H163 Eu5 N8 O88 P6, 2(C4 H9 N O), 44 (H2 O)'
_chemical_formula_sum            'C92 H163 Eu5 N8 O88 P6'
_chemical_formula_weight         3734.91
_space_group_crystal_system      monoclinic
_space_group_IT_number           15
_space_group_name_Hall           '-C 2yc'
_space_group_name_H-M_alt        'C 1 2/c 1'
_symmetry_space_group_name_Hall  '-C 2yc'
_symmetry_space_group_name_H-M   'C 1 2/c 1'
_atom_sites_solution_hydrogens   geom
_audit_creation_method           SHELXL-2018/3
_audit_update_record
;
2019-05-17 deposited with the CCDC.    2019-05-20 downloaded from the CCDC.
;
_cell_angle_alpha                90
_cell_angle_beta                 106.765(2)
_cell_angle_gamma                90
_cell_formula_units_Z            4
_cell_length_a                   33.9147(12)
_cell_length_b                   18.5857(8)
_cell_length_c                   29.5768(10)
_cell_measurement_reflns_used    9988
_cell_measurement_temperature    100(2)
_cell_measurement_theta_max      68.50
_cell_measurement_theta_min      2.74
_cell_volume                     17850.7(12)
_computing_cell_refinement       'Bruker SAINT'
_computing_data_collection       'Bruker APEX2'
_computing_data_reduction        'Bruker SAINT'
_computing_structure_refinement  'SHELXL-2018/3 (Sheldrick, 2018)'
_computing_structure_solution    'SHELXT 2018/2 (Sheldrick, 2018)'
_diffrn_ambient_temperature      100(2)
_diffrn_measured_fraction_theta_full 0.997
_diffrn_measured_fraction_theta_max 0.992
_diffrn_measurement_device_type  'Bruker APEX-II CCD'
_diffrn_measurement_method       '\f and \w scans'
_diffrn_radiation_type           CuK\a
_diffrn_radiation_wavelength     1.54178
_diffrn_reflns_av_R_equivalents  0.0491
_diffrn_reflns_av_unetI/netI     0.0542
_diffrn_reflns_Laue_measured_fraction_full 0.997
_diffrn_reflns_Laue_measured_fraction_max 0.992
_diffrn_reflns_limit_h_max       40
_diffrn_reflns_limit_h_min       -33
_diffrn_reflns_limit_k_max       22
_diffrn_reflns_limit_k_min       -22
_diffrn_reflns_limit_l_max       32
_diffrn_reflns_limit_l_min       -35
_diffrn_reflns_number            56195
_diffrn_reflns_point_group_measured_fraction_full 0.997
_diffrn_reflns_point_group_measured_fraction_max 0.992
_diffrn_reflns_theta_full        67.679
_diffrn_reflns_theta_max         68.625
_diffrn_reflns_theta_min         3.847
_exptl_absorpt_coefficient_mu    13.664
_exptl_absorpt_correction_T_max  1.00
_exptl_absorpt_correction_T_min  0.82
_exptl_absorpt_correction_type   multi-scan
_exptl_absorpt_process_details   sadabs
_exptl_crystal_colour            colourless
_exptl_crystal_density_diffrn    1.390
_exptl_crystal_description       block
_exptl_crystal_F_000             7520
_exptl_crystal_size_max          0.300
_exptl_crystal_size_mid          0.250
_exptl_crystal_size_min          0.100
_refine_diff_density_max         1.305
_refine_diff_density_min         -1.119
_refine_diff_density_rms         0.095
_refine_ls_extinction_method     none
_refine_ls_goodness_of_fit_ref   1.097
_refine_ls_hydrogen_treatment    constr
_refine_ls_matrix_type           full
_refine_ls_number_parameters     711
_refine_ls_number_reflns         16361
_refine_ls_number_restraints     759
_refine_ls_restrained_S_all      1.097
_refine_ls_R_factor_all          0.0844
_refine_ls_R_factor_gt           0.0688
_refine_ls_shift/su_max          0.001
_refine_ls_shift/su_mean         0.000
_refine_ls_structure_factor_coef Fsqd
_refine_ls_weighting_details
'w=1/[\s^2^(Fo^2^)+(0.1439P)^2^+9.1731P] where P=(Fo^2^+2Fc^2^)/3'
_refine_ls_weighting_scheme      calc
_refine_ls_wR_factor_gt          0.2121
_refine_ls_wR_factor_ref         0.2283
_reflns_Friedel_coverage         0.000
_reflns_number_gt                11818
_reflns_number_total             16361
_reflns_threshold_expression     'I > 2\s(I)'
_cod_data_source_file            c9cc02324k2.cif
_cod_data_source_block           Eu
_cod_database_code               7123503
_shelx_shelxl_version_number     2018/3
_shelx_space_group_comment
;
The symmetry employed for this shelxl refinement is uniquely defined
by the following loop, which should always be used as a source of
symmetry information in preference to the above space-group names.
They are only intended as comments.
;
_shelx_estimated_absorpt_t_min   0.105
_shelx_estimated_absorpt_t_max   0.342
_shelx_res_file
;
TITL G:\Eu-2018-05-25\raw_a.res in C2/c
    Eu.res
    created by SHELXL-2018/3 at 19:31:47 on 17-May-2019
REM Old TITL cu_2018051510_0m_a.res in C2/c
REM SHELXT solution in C2/c: R1 0.266, Rweak 0.024, Alpha 0.060
REM <I/s>   0.918 for  547 systematic absences,  Orientation as input
REM Formula found by SHELXT:  C94 N26 O23 P6 Eu5

CELL  1.54178  33.9147  18.5857  29.5768   90.000  106.765   90.000
ZERR  4.000   0.0012   0.0008   0.0010    0.000    0.002    0.000
LATT  7
SYMM -X, Y, 1/2-Z
SFAC C H N O P EU
UNIT 368 652 32 352 24 20
LIST 4 ! automatically inserted. Change 6 to 4 for CHECKCIF!!
ACTA
BOND
FREE Eu1 C14A
DFIX 1.45 0.02 C11 C14A
DFIX 1.45 0.02 C11 C14B
DFIX 1.25 0.02 O10A C14A
DFIX 1.25 0.02 O9A C14A
DFIX 1.25 0.02 O10B C14B
DFIX 1.25 0.02 O9B C14B
FMAP 2 1 53
PLAN 10 0 0
L.S. 10 0  304
SADI 0.02 C1 C2 C2 C3 C3 C4 C4 C5 C5 C6 C6 C1
SADI 0.04 C1 C3 C2 C4 C3 C5 C4 C6 C5 C1 C6 C2
FLAT C1 > C6
SIMU C1 > C6
RIGU C1 > C6
SADI 0.02 C8 C9A C9A C10A C10A C11 C11 C12A C12A C13A C13A C8
SADI 0.02 C8 C9B C9B C10B C10B C11 C11 C12B C12B C13B C13B C8
SADI 0.04 C8 C10A C9A C11 C10A C12A C11 C13A C12A C8 C13A C9A
SADI 0.04 C8 C10B C9B C11 C10B C12B C11 C13B C12B C8 C13B C9B
FLAT C8 C9A C10A C11 C12A C13A
FLAT C8 C9B C10B C11 C12B C13B
SIMU C8 C9A C10A C11 C12A C13A
SIMU C8 C9B C10B C11 C12B C13B
RIGU C8 C9A C10A C11 C12A C13A
RIGU C8 C9B C10B C11 C12B C13B
SADI 0.02 C15 C16 C16 C17 C17 C18 C18 C19 C19 C20 C20 C15
SADI 0.04 C15 C17 C16 C18 C17 C19 C18 C20 C19 C15 C20 C16
FLAT C15 > C20
SIMU C15 > C20
RIGU C15 > C20
SADI 0.02 C22 C23 C23 C24 C24 C25 C25 C26 C26 C27 C27 C22
SADI 0.04 C22 C24 C23 C25 C24 C26 C25 C27 C26 C22 C27 C23
FLAT C22 > C27
SIMU C22 > C27
RIGU C22 > C27
SADI 0.02 C29 C30 C30 C31 C31 C32 C32 C33 C33 C34 C34 C29
SADI 0.04 C29 C31 C30 C32 C31 C33 C32 C34 C33 C29 C34 C30
FLAT C29 > C34
SIMU C29 > C34
RIGU C29 > C34
SADI 0.02 C36 C37 C37 C38 C38 C39 C39 C40 C40 C41 C41 C36
SADI 0.04 C36 C38 C37 C39 C38 C40 C39 C41 C40 C36 C41 C37
FLAT C36 > C41
SIMU C36 > C41
RIGU C36 > C41
ISOR 0.01 O22 O12 O13
EADP O11 O12 C21
SIZE 0.30 0.25 0.10
TEMP -173
OMIT    -4   2   5
OMIT    -2   4   3
OMIT    -1   3   1
OMIT     1   1   4
OMIT    -5   3   5
OMIT    -4   2   4
OMIT    -2   0   6
OMIT     0   4   1
OMIT    -4   6   6
OMIT   -28   4  19
OMIT    -3   3   3
OMIT     1   1   0
OMIT     0   0   2
OMIT     2   0   0
OMIT     1   3   2
OMIT    -2   6   9
OMIT    -5   1   2
OMIT    -3   1   1
OMIT     1   1   1
OMIT    -1   7   5
OMIT    -6   0   6
OMIT     3   1   3
OMIT     3   3   3
ABIN
WGHT    0.143900    9.173100
FVAR       0.10710
EU1   6    0.122900    0.687675    0.426974    11.00000    0.05934    0.09020 =
         0.08537    0.01460    0.03261    0.01964
EU2   6    0.040958    0.616974    0.319593    11.00000    0.04829    0.09889 =
         0.12567    0.00364    0.02641    0.00607
EU3   6    0.250000    0.750000    0.500000    10.50000    0.05420    0.15857 =
         0.05981   -0.01260    0.01050    0.02822
P1    5    0.302702    0.513232    0.277180    11.00000    0.05905    0.14094 =
         0.10630   -0.02946    0.02446    0.02467
P2    5    0.382164    0.494167    0.333221    11.00000    0.05910    0.10030 =
         0.08823   -0.00753    0.02780    0.01730
P3    5    0.319445    0.405175    0.342377    11.00000    0.08662    0.09799 =
         0.18457   -0.01763    0.07671    0.01069
O1    4    0.280158    0.584601    0.286922    11.00000    0.06597    0.14601 =
         0.11416   -0.02205    0.02667    0.03332
O2    4    0.408399    0.552868    0.367917    11.00000    0.05778    0.09593 =
         0.09666   -0.00289    0.02393    0.01854
O3    4    0.298992    0.396216    0.383873    11.00000    0.12802    0.09937 =
         0.24101    0.03310    0.12299    0.04266
O4    4    0.283719    0.509156    0.221804    11.00000    0.07422    0.20147 =
         0.10003   -0.03827    0.00771    0.05454
O5    4    0.416833    0.462891    0.312129    11.00000    0.06484    0.10999 =
         0.08813   -0.00479    0.02643    0.02379
O6    4    0.320022    0.322181    0.331618    11.00000    0.10007    0.10574 =
         0.30725   -0.04444    0.11619    0.00477
O7    4    0.095787    0.558609    0.295796    11.00000    0.05422    0.13196 =
         0.15093   -0.03381    0.01518    0.00794
O8    4    0.119590    0.645219    0.347768    11.00000    0.05655    0.10796 =
         0.09247   -0.01264    0.02901    0.01138
O11   4    0.291313    0.749691    0.445036    11.00000    0.16105    0.16215 =
         0.13854   -0.02929    0.06406    0.05111
O12   4    0.333769    0.739130    0.506201    11.00000    0.16105    0.16215 =
         0.13854   -0.02929    0.06406    0.05111
O13   4    0.297707    0.267527    0.076718    11.00000    0.22197    0.22221 =
         0.15332   -0.04458    0.06572   -0.06682
O14   4    0.359311    0.289682    0.106836    11.00000    0.14533    0.14544 =
         0.07599   -0.02397    0.00080    0.05960
O15   4    0.449972    0.192000    0.237171    11.00000    0.08803    0.11203 =
         0.20374   -0.04149    0.06220   -0.00634
O16   4    0.476606    0.160582    0.312244    11.00000    0.05965    0.13019 =
         0.21906   -0.02910    0.02873    0.01292
O17   4    0.557575    0.227979    0.361915    11.00000    0.06427    0.11294 =
         0.15678   -0.01894    0.02306    0.02495
O18   4    0.567224    0.274167    0.432357    11.00000    0.12364    0.20097 =
         0.11637    0.01540    0.02395    0.09700
O20   4    0.070669    0.596901    0.404377    11.00000    0.13747    0.17688 =
         0.14858    0.01198    0.06554   -0.04250
AFIX  43
H21   2    0.063282    0.561608    0.423707    11.00000   -1.20000
AFIX   0
O22   4    0.012663    0.496054    0.312564    10.50000    0.10272    0.07647 =
         0.26408    0.01991    0.05953   -0.03979
O23   4    0.000000    0.548610    0.250000    10.50000    0.05063    0.12543 =
         0.15869    0.00000    0.02078    0.00000
AFIX  43
H22   2   -0.000001    0.497495    0.250001    10.50000   -1.20000
AFIX   0
N1    3    0.289100    0.446192    0.300185    11.00000    0.07054    0.12851 =
         0.12792   -0.03265    0.04170    0.01861
N2    3    0.350120    0.531680    0.290398    11.00000    0.05996    0.12142 =
         0.08462    0.00026    0.02634    0.02721
N3    3    0.365404    0.436403    0.361064    11.00000    0.07710    0.09529 =
         0.11363   -0.00181    0.04126    0.02357
C1    1    0.240256    0.584821    0.292048    11.00000    0.05020    0.13629 =
         0.09309   -0.01920    0.01497    0.02544
C2    1    0.210320    0.537137    0.271061    11.00000    0.06863    0.20976 =
         0.15795   -0.10554    0.02731    0.00923
AFIX  43
H2    2    0.215490    0.499330    0.251914    11.00000   -1.20000
AFIX   0
C3    1    0.172154    0.545032    0.278278    11.00000    0.05301    0.18828 =
         0.14365   -0.08637    0.01458    0.00860
AFIX  43
H3    2    0.150410    0.513761    0.262392    11.00000   -1.20000
AFIX   0
C4    1    0.164840    0.596773    0.307742    11.00000    0.05225    0.10192 =
         0.08261   -0.01033    0.01084    0.02327
C5    1    0.194924    0.644682    0.328007    11.00000    0.06669    0.08954 =
         0.11399   -0.01302    0.04019    0.00783
AFIX  43
H5    2    0.190024    0.681383    0.348085    11.00000   -1.20000
AFIX   0
C6    1    0.232980    0.639790    0.319237    11.00000    0.05948    0.11331 =
         0.10118   -0.01510    0.03036    0.01255
AFIX  43
H6    2    0.253780    0.674459    0.332075    11.00000   -1.20000
AFIX   0
C7    1    0.124314    0.598753    0.318227    11.00000    0.04960    0.10024 =
         0.09603   -0.00236    0.01668    0.01975
C8    1    0.276254    0.448281    0.398801    11.00000    0.07231    0.08714 =
         0.13147    0.01230    0.04480    0.01548
C11   1    0.229279    0.542940    0.431281    11.00000    0.09466    0.08280 =
         0.08713    0.00871    0.04022    0.01570
C15   1    0.389646    0.599931    0.392166    11.00000    0.05838    0.08846 =
         0.07510    0.00339    0.01889    0.01209
C16   1    0.360553    0.648287    0.367896    11.00000    0.09213    0.12139 =
         0.07203    0.00699    0.02290    0.03708
AFIX  43
H16   2    0.353733    0.651657    0.334477    11.00000   -1.20000
AFIX   0
C17   1    0.341504    0.691687    0.392864    11.00000    0.07638    0.11724 =
         0.07599   -0.00481    0.01635    0.02775
AFIX  43
H17   2    0.320896    0.724458    0.376268    11.00000   -1.20000
AFIX   0
C18   1    0.351629    0.688756    0.441528    11.00000    0.06602    0.08602 =
         0.07044   -0.00195    0.02769   -0.00756
C19   1    0.382073    0.642196    0.464335    11.00000    0.11117    0.11963 =
         0.06700   -0.00674    0.01521    0.01715
AFIX  43
H19   2    0.390367    0.640748    0.497866    11.00000   -1.20000
AFIX   0
C20   1    0.400845    0.597770    0.440188    11.00000    0.08234    0.10642 =
         0.08077    0.00208    0.00486    0.01710
AFIX  43
H20   2    0.421675    0.565413    0.456836    11.00000   -1.20000
AFIX   0
C21   1    0.326976    0.727807    0.466456    11.00000    0.16105    0.16215 =
         0.13854   -0.02929    0.06406    0.05111
C22   1    0.449974    0.418115    0.334088    11.00000    0.04739    0.09488 =
         0.08846   -0.01093    0.01538    0.01184
C23   1    0.464544    0.409711    0.382260    11.00000    0.06999    0.10687 =
         0.08624   -0.01871    0.01942    0.02646
AFIX  43
H23   2    0.452899    0.435861    0.402866    11.00000   -1.20000
AFIX   0
C24   1    0.496392    0.362444    0.399666    11.00000    0.07851    0.12439 =
         0.09694   -0.00816    0.02064    0.03387
AFIX  43
H24   2    0.506254    0.354982    0.432801    11.00000   -1.20000
AFIX   0
C25   1    0.514407    0.325650    0.370626    11.00000    0.06116    0.09400 =
         0.10046   -0.00354    0.02406    0.01441
C26   1    0.499001    0.335155    0.321589    11.00000    0.05577    0.09137 =
         0.10159   -0.01160    0.03599    0.00487
AFIX  43
H26   2    0.510789    0.309549    0.300885    11.00000   -1.20000
AFIX   0
C27   1    0.466650    0.381875    0.303609    11.00000    0.05091    0.09432 =
         0.09296   -0.01204    0.02812   -0.00034
AFIX  43
H27   2    0.456050    0.388856    0.270489    11.00000   -1.20000
AFIX   0
C28   1    0.548356    0.270910    0.391255    11.00000    0.06661    0.10618 =
         0.15381   -0.01500    0.03824    0.03134
C29   1    0.351784    0.289870    0.316252    11.00000    0.06776    0.08636 =
         0.20491   -0.01674    0.06405   -0.00028
C30   1    0.383160    0.259359    0.351004    11.00000    0.10423    0.12663 =
         0.17765   -0.00059    0.07519   -0.00331
AFIX  43
H30   2    0.382836    0.261237    0.382993    11.00000   -1.20000
AFIX   0
C31   1    0.414877    0.226258    0.339450    11.00000    0.08859    0.09668 =
         0.16166    0.00841    0.05160    0.00819
AFIX  43
H31   2    0.436752    0.204807    0.363211    11.00000   -1.20000
AFIX   0
C32   1    0.414683    0.224439    0.293004    11.00000    0.05038    0.07933 =
         0.15527   -0.01251    0.04459   -0.00500
C33   1    0.382781    0.253591    0.258038    11.00000    0.06260    0.10181 =
         0.14881   -0.03597    0.02512   -0.00396
AFIX  43
H33   2    0.382316    0.249523    0.225870    11.00000   -1.20000
AFIX   0
C34   1    0.351345    0.288919    0.270090    11.00000    0.06623    0.09415 =
         0.18842   -0.01689    0.02944    0.00920
AFIX  43
H34   2    0.329913    0.312018    0.246652    11.00000   -1.20000
AFIX   0
C35   1    0.449238    0.188095    0.279920    11.00000    0.06262    0.09462 =
         0.19885   -0.03139    0.06040   -0.01638
C36   1    0.294640    0.454512    0.194050    11.00000    0.06372    0.14985 =
         0.08372   -0.03344    0.00571    0.02315
C37   1    0.333991    0.450757    0.191452    11.00000    0.06278    0.17134 =
         0.12459   -0.06729    0.01544    0.00844
AFIX  43
H37   2    0.354744    0.482051    0.209532    11.00000   -1.20000
AFIX   0
C38   1    0.342764    0.400050    0.161722    11.00000    0.06234    0.15145 =
         0.10849   -0.04997    0.00646    0.01348
AFIX  43
H38   2    0.370213    0.395881    0.160007    11.00000   -1.20000
AFIX   0
C39   1    0.313155    0.355591    0.134639    11.00000    0.07562    0.11570 =
         0.06745   -0.00686    0.01081   -0.00815
C40   1    0.274217    0.360873    0.139380    11.00000    0.09332    0.19775 =
         0.10404   -0.05044    0.01748   -0.02127
AFIX  43
H40   2    0.253481    0.328961    0.121973    11.00000   -1.20000
AFIX   0
C41   1    0.264135    0.411360    0.168801    11.00000    0.06710    0.19667 =
         0.11785   -0.04834    0.00803   -0.00759
AFIX  43
H41   2    0.236856    0.415418    0.171097    11.00000   -1.20000
AFIX   0
C42   1    0.324794    0.304220    0.102833    11.00000    0.15411    0.09355 =
         0.07427   -0.02594    0.01298   -0.02494
PART 1
O19A  4    0.264109    0.617269    0.526976    10.50000    0.08642    0.09928 =
         0.08108   -0.00965    0.01446    0.01677
O9A   4    0.156781    0.567302    0.436805    10.50000    0.05224    0.08216 =
         0.14250    0.01061    0.03066    0.01928
O10A  4    0.200094    0.660279    0.443324    10.50000    0.06124    0.07547 =
         0.09950   -0.01421    0.01664   -0.00057
C9A   1    0.285667    0.520464    0.403953    10.50000    0.08117    0.09452 =
         0.07810    0.00673    0.03172    0.00015
AFIX  43
H9A   2    0.310180    0.537766    0.398306    10.50000   -1.20000
AFIX   0
C10A  1    0.259945    0.567387    0.417149    10.50000    0.08486    0.09264 =
         0.04830    0.01137    0.01944    0.01277
AFIX  43
H10A  2    0.264335    0.617760    0.416059    10.50000   -1.20000
AFIX   0
C12A  1    0.216712    0.472231    0.423869    10.50000    0.05350    0.09942 =
         0.11733   -0.00194    0.01796    0.01058
AFIX  43
H12A  2    0.190570    0.457292    0.426166    10.50000   -1.20000
AFIX   0
C13A  1    0.243467    0.424190    0.413030    10.50000    0.09553    0.07849 =
         0.17116    0.01013    0.06853    0.01447
AFIX  43
H13A  2    0.239227    0.373974    0.415408    10.50000   -1.20000
AFIX   0
C14A  1    0.193180    0.591446    0.437269    10.50000    0.08312    0.08318 =
         0.09077    0.01194    0.05659    0.04017
PART 2
O19B  4    0.110621    0.655741    0.499131    10.50000    0.10164    0.16810 =
         0.08071    0.06019    0.06420    0.04143
O9B   4    0.174780    0.598766    0.443047    10.50000    0.06588    0.09559 =
         0.07383    0.01303    0.02749    0.03601
O10B  4    0.234776    0.647085    0.483163    10.50000    0.07171    0.10042 =
         0.06906   -0.01410   -0.01157    0.02515
C9B   1    0.296628    0.497627    0.427630    10.50000    0.06388    0.11818 =
         0.10061    0.00532    0.03170    0.00186
AFIX  43
H9B   2    0.325834    0.500257    0.436460    10.50000   -1.20000
AFIX   0
C10B  1    0.273449    0.545362    0.444394    10.50000    0.08991    0.08619 =
         0.09133    0.00920    0.02993    0.00576
AFIX  43
H10B  2    0.287233    0.581751    0.465679    10.50000   -1.20000
AFIX   0
C12B  1    0.211799    0.491584    0.400585    10.50000    0.05009    0.11859 =
         0.08836   -0.00112   -0.00051    0.03341
AFIX  43
H12B  2    0.182624    0.487801    0.390884    10.50000   -1.20000
AFIX   0
C13B  1    0.234141    0.443934    0.382391    10.50000    0.06561    0.10338 =
         0.11630   -0.00615    0.03005    0.01709
AFIX  43
H13B  2    0.220969    0.409312    0.359348    10.50000   -1.20000
AFIX   0
C14B  1    0.214275    0.600181    0.456379    10.50000    0.07512    0.13345 =
         0.07982    0.03341   -0.00094    0.02875
PART 0
HKLF 4




REM  G:\Eu-2018-05-25\raw_a.res in C2/c
REM wR2 = 0.2283, GooF = S = 1.097, Restrained GooF = 1.097 for all data
REM R1 = 0.0688 for 11818 Fo > 4sig(Fo) and 0.0844 for all 16361 data
REM 711 parameters refined using 759 restraints

END

WGHT      0.1438      9.2131

REM Highest difference peak  1.305,  deepest hole -1.119,  1-sigma level  0.095
Q1    1   0.3620  0.7697  0.5020  11.00000  0.05    1.30
Q2    1   0.0805  0.6093  0.4631  11.00000  0.05    1.29
Q3    1   0.2755  0.5610  0.5390  11.00000  0.05    1.20
Q4    1   0.2978  0.3199  0.0558  11.00000  0.05    1.15
Q5    1   0.0593  0.5818  0.4370  11.00000  0.05    0.97
Q6    1   0.0009  0.5454  0.3595  11.00000  0.05    0.94
Q7    1   0.1132  0.6399  0.5376  11.00000  0.05    0.88
Q8    1   0.1001  0.6539  0.5285  11.00000  0.05    0.83
Q9    1   0.1422  0.7256  0.4163  11.00000  0.05    0.71
Q10   1   0.0612  0.6425  0.3165  11.00000  0.05    0.70
;
_shelx_res_checksum              42396
_shelx_fab_file
;
    2    0    0    284.14      0.00
    4    0    0    -51.68      0.00
    6    0    0    -41.49      0.00
    8    0    0    -41.54      0.00
   10    0    0      4.57      0.00
   12    0    0     18.83      0.00
   14    0    0    -10.92      0.00
   16    0    0     -9.63      0.00
   18    0    0     31.47      0.00
   20    0    0      3.53      0.00
   22    0    0      2.94      0.00
   24    0    0     10.12      0.00
   26    0    0      1.45      0.00
   28    0    0     -0.42      0.00
   30    0    0     -4.59      0.00
   32    0    0     -1.75      0.00
   34    0    0     -1.83      0.00
   36    0    0     -0.52      0.00
   38    0    0      0.34      0.00
    1    1    0    -47.80      0.00
    3    1    0    235.26      0.00
    5    1    0      7.34      0.00
    7    1    0    -21.41      0.00
    9    1    0     10.08      0.00
   11    1    0    -11.05      0.00
   13    1    0     -1.04      0.00
   15    1    0     21.10      0.00
   17    1    0     20.93      0.00
   19    1    0     -0.41      0.00
   21    1    0      0.64      0.00
   23    1    0     -4.29      0.00
   25    1    0     -0.47      0.00
   27    1    0      4.54      0.00
   29    1    0     -0.90      0.00
   31    1    0     -1.94      0.00
   33    1    0     -1.17      0.00
   35    1    0     -1.77      0.00
   37    1    0     -0.28      0.00
   39    1    0     -1.77      0.00
    0    2    0    -15.26      0.00
    2    2    0    130.38      0.00
    4    2    0   -129.54      0.00
    6    2    0    -55.71      0.00
    8    2    0     33.09      0.00
   10    2    0      5.78      0.00
   12    2    0      5.16      0.00
   14    2    0     -8.47      0.00
   16    2    0     -9.03      0.00
   18    2    0      9.66      0.00
   20    2    0     -3.23      0.00
   22    2    0     -2.14      0.00
   24    2    0     -1.96      0.00
   26    2    0      1.52      0.00
   28    2    0      4.90      0.00
   30    2    0      0.31      0.00
   32    2    0      0.02      0.00
   34    2    0      1.84      0.00
   36    2    0     -3.03      0.00
   38    2    0     -2.49      0.00
    1    3    0    103.93      0.00
    3    3    0   -154.35      0.00
    7    3    0     -1.73      0.00
    9    3    0    -32.40      0.00
   11    3    0     -9.61      0.00
   13    3    0    -12.37      0.00
   15    3    0      3.01      0.00
   17    3    0     14.88      0.00
   19    3    0      1.78      0.00
   21    3    0     -2.48      0.00
   23    3    0     -3.97      0.00
   25    3    0     -0.98      0.00
   27    3    0     -4.63      0.00
   29    3    0     -0.85      0.00
   31    3    0      0.81      0.00
   33    3    0      0.22      0.00
   35    3    0      0.60      0.00
   37    3    0      0.82      0.00
    0    4    0    -16.17      0.00
    2    4    0    -33.63      0.00
    4    4    0    165.81      0.00
    6    4    0    -81.28      0.00
    8    4    0    -57.37      0.00
   10    4    0    -36.78      0.00
   12    4    0     -9.41      0.00
   14    4    0      5.24      0.00
   16    4    0     -9.66      0.00
   18    4    0     -4.77      0.00
   20    4    0     -4.25      0.00
   22    4    0      1.15      0.00
   24    4    0     -1.68      0.00
   26    4    0     -1.33      0.00
   28    4    0     -4.51      0.00
   30    4    0     -4.27      0.00
   32    4    0      3.78      0.00
   34    4    0     -0.50      0.00
   36    4    0      1.28      0.00
   38    4    0     -0.38      0.00
    1    5    0     11.11      0.00
    3    5    0    -22.29      0.00
    5    5    0    -37.97      0.00
    7    5    0     31.80      0.00
    9    5    0      4.49      0.00
   11    5    0     -0.44      0.00
   13    5    0      2.74      0.00
   15    5    0      2.10      0.00
   17    5    0      5.80      0.00
   19    5    0     -4.91      0.00
   21    5    0     -3.09      0.00
   23    5    0     -2.33      0.00
   25    5    0      0.51      0.00
   27    5    0     -7.23      0.00
   29    5    0      0.44      0.00
   31    5    0     -3.21      0.00
   33    5    0     -1.57      0.00
   35    5    0      1.70      0.00
   37    5    0      0.90      0.00
    0    6    0      0.65      0.00
    2    6    0      4.06      0.00
    4    6    0    -11.47      0.00
    6    6    0    -51.84      0.00
    8    6    0    -41.98      0.00
   10    6    0     -0.86      0.00
   12    6    0     12.48      0.00
   14    6    0     13.68      0.00
   16    6    0     10.73      0.00
   18    6    0     -9.97      0.00
   20    6    0     -3.42      0.00
   22    6    0     -5.60      0.00
   24    6    0     -5.27      0.00
   26    6    0     -3.36      0.00
   28    6    0     -0.24      0.00
   30    6    0      0.25      0.00
   32    6    0     -0.23      0.00
   34    6    0     -1.50      0.00
   36    6    0      1.33      0.00
    1    7    0     -4.09      0.00
    3    7    0      6.08      0.00
    5    7    0     32.79      0.00
    7    7    0     32.20      0.00
    9    7    0     -9.58      0.00
   11    7    0     -6.20      0.00
   13    7    0      6.78      0.00
   15    7    0      3.25      0.00
   17    7    0      1.91      0.00
   19    7    0      0.35      0.00
   21    7    0     -0.05      0.00
   23    7    0     -7.31      0.00
   25    7    0      1.43      0.00
   27    7    0      2.96      0.00
   29    7    0     -1.73      0.00
   31    7    0      2.06      0.00
   33    7    0     -0.69      0.00
   35    7    0     -0.29      0.00
   37    7    0     -0.55      0.00
    0    8    0     16.02      0.00
    2    8    0     -2.14      0.00
    4    8    0     -2.72      0.00
    6    8    0    -17.59      0.00
    8    8    0     12.70      0.00
   10    8    0      5.10      0.00
   12    8    0     -2.34      0.00
   14    8    0     12.66      0.00
   16    8    0     11.32      0.00
   18    8    0      1.21      0.00
   20    8    0     -0.42      0.00
   22    8    0     -3.52      0.00
   24    8    0     -0.80      0.00
   26    8    0      1.89      0.00
   28    8    0      2.11      0.00
   30    8    0      3.84      0.00
   32    8    0      0.07      0.00
   34    8    0     -0.23      0.00
   36    8    0     -2.24      0.00
    1    9    0      7.86      0.00
    3    9    0      6.28      0.00
    5    9    0    -12.67      0.00
    7    9    0     -3.58      0.00
    9    9    0     15.13      0.00
   11    9    0     -5.11      0.00
   13    9    0    -12.46      0.00
   15    9    0     -5.17      0.00
   17    9    0      1.84      0.00
   19    9    0      6.07      0.00
   21    9    0      4.78      0.00
   23    9    0     -3.66      0.00
   25    9    0      0.71      0.00
   27    9    0     -2.78      0.00
   29    9    0      2.21      0.00
   31    9    0      0.17      0.00
   33    9    0      2.36      0.00
   35    9    0      1.54      0.00
    0   10    0    -12.72      0.00
    2   10    0     -1.10      0.00
    4   10    0      8.99      0.00
    6   10    0     -2.19      0.00
    8   10    0     -7.90      0.00
   10   10    0     -8.52      0.00
   12   10    0     10.16      0.00
   14   10    0     13.13      0.00
   16   10    0      9.76      0.00
   18   10    0      6.94      0.00
   20   10    0     -0.33      0.00
   22   10    0      0.98      0.00
   24   10    0      0.73      0.00
   26   10    0     -0.51      0.00
   28   10    0      0.74      0.00
   30   10    0     -2.31      0.00
   32   10    0     -1.04      0.00
   34   10    0     -1.66      0.00
    1   11    0      4.35      0.00
    3   11    0      4.06      0.00
    5   11    0     -1.55      0.00
    7   11    0     -2.25      0.00
    9   11    0     -7.36      0.00
   11   11    0     -6.27      0.00
   13   11    0     -3.94      0.00
   15   11    0      4.21      0.00
   17   11    0      2.29      0.00
   19   11    0      2.50      0.00
   21   11    0     -0.13      0.00
   23   11    0     -3.31      0.00
   25   11    0     -0.98      0.00
   27   11    0      0.10      0.00
   29   11    0     -0.66      0.00
   31   11    0      0.79      0.00
   33   11    0      0.15      0.00
    0   12    0      2.37      0.00
    2   12    0     -1.86      0.00
    4   12    0      0.28      0.00
    6   12    0      0.94      0.00
    8   12    0      0.71      0.00
   10   12    0     -0.99      0.00
   12   12    0      2.05      0.00
   14   12    0      7.01      0.00
   16   12    0      2.07      0.00
   18   12    0      1.60      0.00
   20   12    0      1.43      0.00
   22   12    0     -2.49      0.00
   24   12    0     -0.69      0.00
   26   12    0      2.82      0.00
   28   12    0     -4.97      0.00
   30   12    0     -1.14      0.00
   32   12    0     -0.25      0.00
    1   13    0     -7.77      0.00
    3   13    0      0.88      0.00
    5   13    0      3.93      0.00
    7   13    0     -0.20      0.00
    9   13    0      1.41      0.00
   11   13    0     -3.52      0.00
   13   13    0      3.23      0.00
   15   13    0     -2.18      0.00
   17   13    0      1.97      0.00
   19   13    0      4.25      0.00
   21   13    0     -2.23      0.00
   23   13    0      0.52      0.00
   25   13    0      4.66      0.00
   27   13    0      3.10      0.00
   29   13    0      1.23      0.00
   31   13    0      0.68      0.00
    0   14    0     11.10      0.00
    2   14    0      2.08      0.00
    4   14    0     -5.59      0.00
    6   14    0     -1.93      0.00
    8   14    0      1.16      0.00
   10   14    0      1.03      0.00
   12   14    0     -6.96      0.00
   14   14    0      2.28      0.00
   16   14    0      3.15      0.00
   18   14    0      1.35      0.00
   20   14    0     -0.68      0.00
   22   14    0      5.36      0.00
   24   14    0     -4.16      0.00
   26   14    0     -2.06      0.00
   28   14    0      1.87      0.00
   30   14    0      0.63      0.00
    1   15    0     -6.28      0.00
    3   15    0      5.05      0.00
    5   15    0      0.46      0.00
    7   15    0     -2.32      0.00
    9   15    0      6.21      0.00
   11   15    0      1.96      0.00
   13   15    0      6.56      0.00
   15   15    0      2.07      0.00
   17   15    0     -4.24      0.00
   19   15    0     -3.34      0.00
   21   15    0     -1.22      0.00
   23   15    0      1.32      0.00
   25   15    0      0.75      0.00
   27   15    0     -0.53      0.00
   29   15    0     -1.05      0.00
    0   16    0      4.46      0.00
    2   16    0     -1.18      0.00
    4   16    0      7.78      0.00
    6   16    0      1.76      0.00
    8   16    0      4.17      0.00
   10   16    0      1.01      0.00
   12   16    0     -1.26      0.00
   14   16    0     -0.37      0.00
   16   16    0     -2.57      0.00
   18   16    0     -6.02      0.00
   20   16    0      0.62      0.00
   22   16    0      0.47      0.00
   24   16    0      1.14      0.00
   26   16    0     -0.63      0.00
    1   17    0      2.73      0.00
    3   17    0      0.78      0.00
    5   17    0      5.46      0.00
    7   17    0      1.60      0.00
    9   17    0      1.87      0.00
   11   17    0     -1.10      0.00
   13   17    0      0.65      0.00
   15   17    0      3.56      0.00
   17   17    0      5.76      0.00
   19   17    0     -1.69      0.00
   21   17    0      0.87      0.00
   23   17    0     -3.82      0.00
   25   17    0      2.72      0.00
    0   18    0     -3.75      0.00
    2   18    0     -0.20      0.00
    4   18    0     -1.40      0.00
    6   18    0     -0.63      0.00
    8   18    0     -3.87      0.00
   10   18    0      9.32      0.00
   12   18    0     -2.00      0.00
   14   18    0      0.78      0.00
   16   18    0     -2.71      0.00
   18   18    0      1.26      0.00
   20   18    0      0.94      0.00
   22   18    0      1.12      0.00
    1   19    0      2.18      0.00
    3   19    0      1.05      0.00
    5   19    0      1.66      0.00
    7   19    0      2.19      0.00
    9   19    0      6.30      0.00
   11   19    0     -1.36      0.00
   13   19    0      0.80      0.00
   15   19    0     -1.64      0.00
   17   19    0     -4.07      0.00
   19   19    0     -1.86      0.00
    0   20    0      3.35      0.00
    2   20    0      0.08      0.00
    4   20    0     -1.83      0.00
    6   20    0      0.47      0.00
    8   20    0     -0.35      0.00
   10   20    0     -0.49      0.00
   12   20    0      3.33      0.00
   14   20    0      0.05      0.00
   16   20    0     -0.16      0.00
    1   21    0      0.66      0.00
    3   21    0      1.70      0.00
    5   21    0      0.72      0.00
    7   21    0     -1.97      0.00
    9   21    0      2.61      0.00
   11   21    0      1.60      0.00
   13   21    0      2.15      0.00
    0   22    0     -0.78      0.00
    2   22    0     -0.14      0.00
    4   22    0      4.66      0.00
    6   22    0      0.69      0.00
  -39    1    1     -1.36      0.00
  -37    1    1     -0.62      0.00
  -35    1    1      0.63      0.00
  -33    1    1      0.52      0.00
  -31    1    1      0.79      0.00
  -29    1    1     -3.07      0.00
  -27    1    1     -3.28      0.00
  -25    1    1     -0.04      0.00
  -23    1    1     -2.00      0.00
  -21    1    1      1.57      0.00
  -19    1    1     -3.74      0.00
  -17    1    1     -5.44      0.00
  -15    1    1      7.34      0.00
  -13    1    1    -14.54      0.00
  -11    1    1    -21.71      0.00
   -9    1    1      6.89      0.00
   -7    1    1     -3.85      0.00
   -5    1    1    -91.76      0.00
   -3    1    1     -5.30      0.00
    1    1    1    -52.64      0.00
    3    1    1    115.64      0.00
    5    1    1     13.84      0.00
    7    1    1    -11.19      0.00
    9    1    1     -0.19      0.00
   11    1    1     12.49      0.00
   13    1    1      4.95      0.00
   15    1    1      3.03      0.00
   17    1    1     -0.64      0.00
   19    1    1     -3.08      0.00
   21    1    1      1.42      0.00
   23    1    1     -1.45      0.00
   25    1    1      4.22      0.00
   27    1    1      6.22      0.00
   29    1    1      2.91      0.00
   31    1    1      0.70      0.00
   33    1    1      2.76      0.00
   35    1    1     -2.58      0.00
   37    1    1     -0.54      0.00
  -38    2    1     -1.32      0.00
  -36    2    1      0.52      0.00
  -34    2    1      0.52      0.00
  -32    2    1     -6.55      0.00
  -30    2    1     -2.96      0.00
  -28    2    1     -1.31      0.00
  -26    2    1     -5.53      0.00
  -24    2    1     -1.53      0.00
  -22    2    1     -6.02      0.00
  -20    2    1     -5.87      0.00
  -18    2    1      6.81      0.00
  -16    2    1     -7.52      0.00
  -14    2    1    -20.19      0.00
  -12    2    1      3.84      0.00
  -10    2    1    -27.05      0.00
   -8    2    1     -3.40      0.00
   -6    2    1     60.66      0.00
   -4    2    1   -216.27      0.00
   -2    2    1    -94.47      0.00
    0    2    1    -81.18      0.00
    2    2    1    -18.37      0.00
    4    2    1      6.36      0.00
    6    2    1     32.15      0.00
    8    2    1    -14.33      0.00
   10    2    1     12.41      0.00
   12    2    1     -7.73      0.00
   14    2    1     -6.27      0.00
   16    2    1     -5.57      0.00
   18    2    1     -4.41      0.00
   20    2    1      0.61      0.00
   22    2    1      0.46      0.00
   24    2    1      3.59      0.00
   26    2    1     -4.23      0.00
   28    2    1      0.57      0.00
   30    2    1      1.19      0.00
   32    2    1     -0.36      0.00
   34    2    1      0.49      0.00
   36    2    1      1.83      0.00
   38    2    1      3.31      0.00
  -39    3    1      2.16      0.00
  -37    3    1      1.15      0.00
  -35    3    1     -3.07      0.00
  -33    3    1      0.75      0.00
  -31    3    1     -1.98      0.00
  -29    3    1     -8.10      0.00
  -27    3    1      0.63      0.00
  -25    3    1      5.39      0.00
  -23    3    1     -3.50      0.00
  -21    3    1     -3.10      0.00
  -19    3    1     -4.93      0.00
  -17    3    1     -1.16      0.00
  -15    3    1     15.47      0.00
  -13    3    1      6.65      0.00
  -11    3    1    -31.76      0.00
   -9    3    1    -28.40      0.00
   -7    3    1    -56.51      0.00
   -5    3    1      0.10      0.00
   -3    3    1   -170.21      0.00
   -1    3    1    -48.13      0.00
    1    3    1     -5.26      0.00
    3    3    1    101.66      0.00
    5    3    1    134.96      0.00
    7    3    1    -46.43      0.00
    9    3    1     -3.52      0.00
   11    3    1     35.57      0.00
   13    3    1     -0.84      0.00
   15    3    1     -3.92      0.00
   17    3    1     -6.07      0.00
   19    3    1     -1.24      0.00
   21    3    1      6.75      0.00
   23    3    1      5.24      0.00
   25    3    1     -1.04      0.00
   27    3    1      1.59      0.00
   29    3    1     -0.52      0.00
   31    3    1     -0.84      0.00
   33    3    1     -2.00      0.00
   35    3    1     -1.17      0.00
   37    3    1     -1.01      0.00
  -38    4    1     -2.25      0.00
  -36    4    1      1.27      0.00
  -34    4    1      0.71      0.00
  -32    4    1     -3.95      0.00
  -30    4    1      4.93      0.00
  -28    4    1     -3.20      0.00
  -26    4    1     -2.17      0.00
  -24    4    1     -0.25      0.00
  -22    4    1     -4.26      0.00
  -20    4    1     -5.67      0.00
  -18    4    1      8.20      0.00
  -16    4    1     -6.32      0.00
  -14    4    1     -2.95      0.00
  -12    4    1      5.42      0.00
  -10    4    1    -63.07      0.00
   -8    4    1    -42.30      0.00
   -6    4    1    -90.38      0.00
   -4    4    1     78.87      0.00
   -2    4    1      0.91      0.00
    0    4    1    -65.57      0.00
    2    4    1    -12.83      0.00
    4    4    1     -8.18      0.00
    6    4    1     44.93      0.00
    8    4    1     83.79      0.00
   10    4    1      6.39      0.00
   12    4    1    -11.96      0.00
   14    4    1     -1.77      0.00
   16    4    1      1.42      0.00
   18    4    1     -4.24      0.00
   20    4    1      2.23      0.00
   22    4    1     -2.09      0.00
   24    4    1      0.68      0.00
   26    4    1     -2.14      0.00
   28    4    1     -2.52      0.00
   30    4    1     -2.87      0.00
   32    4    1      1.12      0.00
   34    4    1     -0.59      0.00
   36    4    1      1.85      0.00
   38    4    1     -0.08      0.00
  -37    5    1     -1.67      0.00
  -35    5    1     -1.72      0.00
  -33    5    1     -0.55      0.00
  -31    5    1     -3.28      0.00
  -29    5    1      1.98      0.00
  -27    5    1     -2.98      0.00
  -25    5    1     -4.80      0.00
  -23    5    1     -4.65      0.00
  -21    5    1     -0.50      0.00
  -19    5    1     -2.32      0.00
  -17    5    1      6.70      0.00
  -15    5    1      5.57      0.00
  -13    5    1    -10.27      0.00
  -11    5    1     17.29      0.00
   -9    5    1      8.38      0.00
   -7    5    1     77.75      0.00
   -5    5    1   -112.31      0.00
   -3    5    1     -1.59      0.00
   -1    5    1     -2.29      0.00
    1    5    1     24.19      0.00
    3    5    1     -6.47      0.00
    5    5    1    -19.37      0.00
    7    5    1     -2.82      0.00
    9    5    1      7.93      0.00
   11    5    1     31.58      0.00
   13    5    1      9.21      0.00
   15    5    1      5.98      0.00
   17    5    1     -0.07      0.00
   19    5    1     -7.51      0.00
   21    5    1      0.82      0.00
   23    5    1      3.93      0.00
   25    5    1     -1.23      0.00
   27    5    1      2.42      0.00
   29    5    1      5.87      0.00
   31    5    1     -0.76      0.00
   33    5    1      1.55      0.00
   35    5    1     -1.51      0.00
   37    5    1     -0.53      0.00
  -38    6    1     -2.67      0.00
  -36    6    1      0.07      0.00
  -34    6    1     -0.20      0.00
  -32    6    1      1.96      0.00
  -30    6    1      4.05      0.00
  -28    6    1      1.96      0.00
  -26    6    1      3.91      0.00
  -24    6    1     -4.89      0.00
  -22    6    1     -2.35      0.00
  -20    6    1      1.06      0.00
  -18    6    1      4.53      0.00
  -16    6    1     -4.62      0.00
  -14    6    1      6.52      0.00
  -12    6    1     -4.48      0.00
  -10    6    1    -13.70      0.00
   -8    6    1    -35.32      0.00
   -6    6    1    -13.94      0.00
   -4    6    1    -15.62      0.00
   -2    6    1     -2.38      0.00
    0    6    1    -22.68      0.00
    2    6    1    -56.72      0.00
    4    6    1     23.01      0.00
    6    6    1    118.53      0.00
   10    6    1      4.61      0.00
   12    6    1    -21.39      0.00
   14    6    1      0.10      0.00
   16    6    1      4.92      0.00
   18    6    1      1.36      0.00
   20    6    1      2.83      0.00
   22    6    1      1.89      0.00
   24    6    1      1.90      0.00
   26    6    1      3.69      0.00
   28    6    1     -0.85      0.00
   30    6    1     -2.25      0.00
   32    6    1     -0.35      0.00
   34    6    1     -2.36      0.00
   36    6    1     -2.13      0.00
  -37    7    1     -4.19      0.00
  -35    7    1     -0.47      0.00
  -33    7    1     -0.96      0.00
  -31    7    1     -0.44      0.00
  -29    7    1     -0.40      0.00
  -27    7    1      0.39      0.00
  -25    7    1      2.87      0.00
  -23    7    1      0.92      0.00
  -21    7    1      2.34      0.00
  -19    7    1      6.84      0.00
  -17    7    1     -0.04      0.00
  -15    7    1    -10.93      0.00
  -13    7    1     -0.51      0.00
  -11    7    1     13.31      0.00
   -9    7    1     12.34      0.00
   -7    7    1      2.09      0.00
   -5    7    1     14.68      0.00
   -3    7    1    -13.83      0.00
   -1    7    1     30.73      0.00
    1    7    1      2.29      0.00
    3    7    1     18.63      0.00
    5    7    1      0.90      0.00
    7    7    1     22.15      0.00
    9    7    1     33.69      0.00
   11    7    1    -11.93      0.00
   13    7    1     -0.62      0.00
   15    7    1     -1.30      0.00
   17    7    1     -0.78      0.00
   19    7    1     -4.89      0.00
   21    7    1     -2.07      0.00
   23    7    1     -0.35      0.00
   25    7    1     -2.76      0.00
   27    7    1      3.29      0.00
   29    7    1      3.49      0.00
   31    7    1      2.11      0.00
   33    7    1      0.00      0.00
   35    7    1     -0.71      0.00
  -36    8    1      2.26      0.00
  -34    8    1      1.84      0.00
  -32    8    1      3.05      0.00
  -30    8    1      6.34      0.00
  -28    8    1      6.18      0.00
  -26    8    1      0.08      0.00
  -24    8    1      4.01      0.00
  -22    8    1      4.40      0.00
  -20    8    1      7.22      0.00
  -18    8    1      9.83      0.00
  -16    8    1      3.56      0.00
  -14    8    1     -9.46      0.00
  -12    8    1     -3.28      0.00
  -10    8    1     -3.26      0.00
   -8    8    1     23.61      0.00
   -6    8    1    -13.11      0.00
   -4    8    1    -18.62      0.00
   -2    8    1     10.25      0.00
    0    8    1     -6.68      0.00
    2    8    1    -18.70      0.00
    4    8    1      5.73      0.00
    6    8    1    -18.83      0.00
    8    8    1     -1.08      0.00
   10    8    1      0.02      0.00
   12    8    1     -0.64      0.00
   14    8    1      1.94      0.00
   16    8    1      4.82      0.00
   18    8    1      0.39      0.00
   20    8    1      0.99      0.00
   22    8    1     -1.02      0.00
   24    8    1      0.77      0.00
   26    8    1     -9.10      0.00
   28    8    1      0.08      0.00
   30    8    1     -5.64      0.00
   32    8    1      0.07      0.00
   34    8    1     -0.42      0.00
   36    8    1     -2.38      0.00
  -35    9    1      1.19      0.00
  -33    9    1     -0.07      0.00
  -31    9    1     -2.62      0.00
  -29    9    1     -0.62      0.00
  -27    9    1     -1.32      0.00
  -25    9    1      4.48      0.00
  -23    9    1     -0.79      0.00
  -21    9    1      3.52      0.00
  -19    9    1      1.96      0.00
  -17    9    1    -11.93      0.00
  -15    9    1     -4.46      0.00
  -13    9    1      2.17      0.00
  -11    9    1     17.54      0.00
   -9    9    1     -5.30      0.00
   -7    9    1      0.27      0.00
   -5    9    1      9.35      0.00
   -3    9    1     -3.04      0.00
   -1    9    1     -0.24      0.00
    1    9    1    -15.44      0.00
    3    9    1      9.39      0.00
    5    9    1     17.33      0.00
    7    9    1      5.60      0.00
    9    9    1      1.91      0.00
   11    9    1      1.01      0.00
   13    9    1      2.58      0.00
   15    9    1      0.15      0.00
   17    9    1      8.97      0.00
   19    9    1     -8.07      0.00
   21    9    1     -1.29      0.00
   23    9    1     -4.04      0.00
   25    9    1     -2.70      0.00
   27    9    1      2.23      0.00
   29    9    1      0.05      0.00
   31    9    1     -1.07      0.00
   33    9    1     -1.32      0.00
   35    9    1     -0.71      0.00
  -34   10    1      0.75      0.00
  -32   10    1      0.86      0.00
  -30   10    1      0.73      0.00
  -28   10    1      0.66      0.00
  -26   10    1      0.89      0.00
  -24   10    1     -0.15      0.00
  -22   10    1     -0.24      0.00
  -20   10    1     -3.85      0.00
  -18   10    1      8.15      0.00
  -16   10    1     10.41      0.00
  -14   10    1     14.89      0.00
  -12   10    1      5.02      0.00
  -10   10    1      4.35      0.00
   -8   10    1      1.95      0.00
   -6   10    1      7.32      0.00
   -4   10    1    -14.19      0.00
   -2   10    1    -18.49      0.00
    0   10    1     10.50      0.00
    2   10    1     -3.33      0.00
    4   10    1     -4.34      0.00
    6   10    1    -10.06      0.00
    8   10    1    -29.44      0.00
   10   10    1      6.83      0.00
   12   10    1      2.12      0.00
   14   10    1      5.16      0.00
   16   10    1     -1.06      0.00
   18   10    1      1.88      0.00
   20   10    1      0.93      0.00
   22   10    1     -0.86      0.00
   24   10    1     -0.95      0.00
   26   10    1      2.63      0.00
   28   10    1     -1.53      0.00
   30   10    1     -1.48      0.00
   32   10    1     -2.21      0.00
   34   10    1     -0.01      0.00
  -33   11    1      0.31      0.00
  -31   11    1      2.33      0.00
  -29   11    1      1.27      0.00
  -27   11    1      1.79      0.00
  -25   11    1     -1.14      0.00
  -23   11    1      0.37      0.00
  -21   11    1      3.50      0.00
  -19   11    1      4.05      0.00
  -17   11    1     -7.08      0.00
  -15   11    1      2.50      0.00
  -13   11    1     -2.77      0.00
  -11   11    1      7.48      0.00
   -9   11    1      4.89      0.00
   -7   11    1      8.81      0.00
   -5   11    1      4.53      0.00
   -3   11    1     -6.61      0.00
   -1   11    1     17.48      0.00
    1   11    1    -17.10      0.00
    3   11    1     15.93      0.00
    5   11    1     -2.47      0.00
    7   11    1     -1.26      0.00
    9   11    1     -2.04      0.00
   11   11    1     -3.44      0.00
   13   11    1      3.33      0.00
   15   11    1     -5.27      0.00
   17   11    1     -2.08      0.00
   19   11    1     -3.81      0.00
   21   11    1     -3.76      0.00
   23   11    1     -6.01      0.00
   25   11    1     -0.76      0.00
   27   11    1     -1.57      0.00
   29   11    1     -0.48      0.00
   31   11    1     -0.51      0.00
   33   11    1      1.64      0.00
  -32   12    1     -0.54      0.00
  -30   12    1      1.48      0.00
  -28   12    1      4.08      0.00
  -26   12    1      2.69      0.00
  -24   12    1      1.49      0.00
  -22   12    1      3.48      0.00
  -20   12    1     -0.03      0.00
  -18   12    1      7.19      0.00
  -16   12    1      4.70      0.00
  -14   12    1      6.63      0.00
  -12   12    1      6.10      0.00
  -10   12    1     -3.16      0.00
   -8   12    1     -8.14      0.00
   -6   12    1     -0.65      0.00
   -4   12    1      1.49      0.00
   -2   12    1     -5.21      0.00
    0   12    1      0.26      0.00
    2   12    1    -11.22      0.00
    4   12    1      1.14      0.00
    6   12    1     -3.62      0.00
    8   12    1     22.56      0.00
   10   12    1      6.54      0.00
   12   12    1      8.46      0.00
   14   12    1      6.34      0.00
   16   12    1      0.42      0.00
   18   12    1      4.38      0.00
   20   12    1     -6.81      0.00
   22   12    1     -0.80      0.00
   24   12    1      0.24      0.00
   26   12    1     -1.48      0.00
   28   12    1     -4.08      0.00
   30   12    1     -2.03      0.00
   32   12    1     -0.77      0.00
  -31   13    1     -0.32      0.00
  -29   13    1     -0.81      0.00
  -27   13    1     -5.09      0.00
  -25   13    1     -2.78      0.00
  -23   13    1      3.40      0.00
  -21   13    1      3.24      0.00
  -19   13    1     -0.32      0.00
  -17   13    1     -1.69      0.00
  -15   13    1      1.41      0.00
  -13   13    1      1.43      0.00
  -11   13    1     -3.40      0.00
   -9   13    1      4.15      0.00
   -7   13    1     -3.54      0.00
   -5   13    1      5.26      0.00
   -3   13    1     -4.13      0.00
   -1   13    1      4.40      0.00
    1   13    1     -4.91      0.00
    3   13    1     -2.47      0.00
    5   13    1     -3.77      0.00
    7   13    1     -7.13      0.00
    9   13    1     -1.45      0.00
   11   13    1      4.27      0.00
   13   13    1     -4.18      0.00
   15   13    1      1.48      0.00
   17   13    1      1.97      0.00
   19   13    1     -1.20      0.00
   21   13    1      1.31      0.00
   23   13    1     -7.22      0.00
   25   13    1     -3.18      0.00
   27   13    1      9.49      0.00
   29   13    1      3.15      0.00
   31   13    1     -1.49      0.00
  -30   14    1      0.48      0.00
  -28   14    1      0.54      0.00
  -26   14    1     -3.71      0.00
  -24   14    1     -2.51      0.00
  -22   14    1      0.66      0.00
  -20   14    1     -3.11      0.00
  -18   14    1     -3.73      0.00
  -16   14    1      6.16      0.00
  -14   14    1     -2.86      0.00
  -12   14    1      2.33      0.00
  -10   14    1      4.42      0.00
   -8   14    1     -1.01      0.00
   -6   14    1      0.57      0.00
   -4   14    1      1.93      0.00
   -2   14    1      4.31      0.00
    0   14    1      0.21      0.00
    2   14    1     -0.69      0.00
    4   14    1      1.28      0.00
    6   14    1    -10.07      0.00
    8   14    1     10.93      0.00
   10   14    1      3.76      0.00
   12   14    1      7.97      0.00
   14   14    1      6.57      0.00
   16   14    1     -4.99      0.00
   18   14    1      0.16      0.00
   20   14    1      0.99      0.00
   22   14    1     -1.14      0.00
   24   14    1      0.96      0.00
   26   14    1     -0.29      0.00
   28   14    1      0.99      0.00
   30   14    1     -0.19      0.00
  -29   15    1     -1.06      0.00
  -27   15    1      0.91      0.00
  -25   15    1      1.30      0.00
  -23   15    1      4.71      0.00
  -21   15    1      3.98      0.00
  -19   15    1      5.33      0.00
  -17   15    1     -2.88      0.00
  -15   15    1      1.37      0.00
  -13   15    1      4.86      0.00
  -11   15    1     -6.57      0.00
   -9   15    1     -3.67      0.00
   -7   15    1     -4.06      0.00
   -5   15    1      9.76      0.00
   -3   15    1     -4.16      0.00
   -1   15    1     -5.01      0.00
    1   15    1      2.35      0.00
    3   15    1      5.13      0.00
    5   15    1     -2.13      0.00
    7   15    1      4.50      0.00
    9   15    1     -1.02      0.00
   11   15    1     -0.09      0.00
   13   15    1     -3.08      0.00
   15   15    1      1.53      0.00
   17   15    1      4.87      0.00
   19   15    1     -2.37      0.00
   21   15    1     -1.40      0.00
   23   15    1     -5.69      0.00
   25   15    1     -0.41      0.00
   27   15    1      0.90      0.00
  -26   16    1      1.00      0.00
  -22   16    1     -2.70      0.00
  -20   16    1      2.67      0.00
  -18   16    1      3.24      0.00
  -16   16    1      4.93      0.00
  -14   16    1      3.55      0.00
  -12   16    1      0.37      0.00
  -10   16    1      5.57      0.00
   -8   16    1     -2.45      0.00
   -6   16    1      1.47      0.00
   -4   16    1      1.46      0.00
   -2   16    1      1.97      0.00
    0   16    1      2.41      0.00
    2   16    1     -2.75      0.00
    4   16    1     -1.50      0.00
    6   16    1      0.56      0.00
    8   16    1     -7.39      0.00
   10   16    1      3.93      0.00
   12   16    1      3.23      0.00
   14   16    1     -0.51      0.00
   16   16    1      3.73      0.00
   18   16    1     -0.79      0.00
   20   16    1     -0.13      0.00
   22   16    1     -6.40      0.00
   24   16    1      0.72      0.00
   26   16    1      2.86      0.00
  -25   17    1     -0.64      0.00
  -23   17    1      0.42      0.00
  -21   17    1      1.07      0.00
  -19   17    1      2.00      0.00
  -17   17    1     -1.09      0.00
  -15   17    1     -3.40      0.00
  -13   17    1      5.64      0.00
  -11   17    1      8.17      0.00
   -9   17    1     -0.47      0.00
   -7   17    1      1.86      0.00
   -5   17    1     -5.98      0.00
   -3   17    1     -2.85      0.00
   -1   17    1    -10.31      0.00
    1   17    1     -0.18      0.00
    3   17    1     -2.11      0.00
    5   17    1     -4.04      0.00
    7   17    1     -2.94      0.00
    9   17    1     -0.80      0.00
   11   17    1     -5.40      0.00
   13   17    1     -0.69      0.00
   15   17    1      1.79      0.00
   17   17    1      4.67      0.00
   19   17    1      1.60      0.00
   21   17    1     -0.61      0.00
   23   17    1     -3.44      0.00
   25   17    1      3.98      0.00
  -22   18    1     -1.63      0.00
  -20   18    1      0.94      0.00
  -18   18    1     -5.16      0.00
  -16   18    1     -3.08      0.00
  -14   18    1      0.85      0.00
  -12   18    1     -0.74      0.00
  -10   18    1      1.36      0.00
   -8   18    1      2.79      0.00
   -6   18    1     -3.48      0.00
   -4   18    1      1.80      0.00
   -2   18    1      1.97      0.00
    0   18    1     -2.86      0.00
    2   18    1     -0.46      0.00
    4   18    1     -3.68      0.00
    6   18    1      1.76      0.00
    8   18    1     -0.79      0.00
   10   18    1      2.28      0.00
   12   18    1      2.29      0.00
   14   18    1      2.46      0.00
   16   18    1      0.10      0.00
   18   18    1      6.84      0.00
   20   18    1     -4.99      0.00
   22   18    1      4.90      0.00
  -21   19    1      0.43      0.00
  -19   19    1      2.05      0.00
  -17   19    1      0.48      0.00
  -15   19    1     -0.89      0.00
  -13   19    1      0.95      0.00
  -11   19    1     -3.69      0.00
   -9   19    1      2.37      0.00
   -7   19    1      0.86      0.00
   -5   19    1     -5.79      0.00
   -3   19    1      3.02      0.00
   -1   19    1     -0.37      0.00
    1   19    1     -1.21      0.00
    3   19    1      0.13      0.00
    5   19    1      1.12      0.00
    7   19    1      0.30      0.00
    9   19    1     -4.43      0.00
   11   19    1      5.89      0.00
   13   19    1      1.17      0.00
   15   19    1     -0.07      0.00
   17   19    1      3.79      0.00
   19   19    1      1.95      0.00
  -18   20    1     -0.50      0.00
  -16   20    1      2.88      0.00
  -14   20    1     -2.67      0.00
  -12   20    1      0.70      0.00
  -10   20    1     -1.72      0.00
   -8   20    1     -0.47      0.00
   -6   20    1     -1.05      0.00
   -4   20    1     -0.67      0.00
   -2   20    1     -6.87      0.00
    0   20    1      1.06      0.00
    2   20    1      2.19      0.00
    4   20    1     -2.94      0.00
    6   20    1      2.24      0.00
    8   20    1     -1.85      0.00
   10   20    1     -1.18      0.00
   12   20    1     -1.43      0.00
   14   20    1     -0.44      0.00
   16   20    1      0.62      0.00
  -13   21    1      1.51      0.00
  -11   21    1      2.32      0.00
   -9   21    1      1.42      0.00
   -7   21    1      3.42      0.00
   -5   21    1     -0.03      0.00
   -3   21    1      0.84      0.00
   -1   21    1     -2.47      0.00
    1   21    1      1.53      0.00
    3   21    1      2.64      0.00
    5   21    1      1.34      0.00
    7   21    1     -2.17      0.00
    9   21    1      0.40      0.00
   11   21    1      0.27      0.00
   13   21    1     -2.67      0.00
   -8   22    1      0.85      0.00
   -6   22    1     -0.83      0.00
   -4   22    1      0.95      0.00
   -2   22    1      0.76      0.00
    0   22    1     -2.64      0.00
    2   22    1     -1.11      0.00
    4   22    1     -0.49      0.00
    6   22    1      2.60      0.00
  -38    0    2     -4.57      0.00
  -36    0    2      2.89      0.00
  -34    0    2      0.91      0.00
  -32    0    2      1.15      0.00
  -30    0    2     -3.63      0.00
  -28    0    2      0.49      0.00
  -26    0    2      4.93      0.00
  -24    0    2      3.27      0.00
  -22    0    2      2.37      0.00
  -20    0    2      7.03      0.00
  -18    0    2     -5.14      0.00
  -16    0    2      7.87      0.00
  -14    0    2      4.07      0.00
  -12    0    2    -52.50      0.00
  -10    0    2    -37.54      0.00
   -8    0    2     26.81      0.00
   -6    0    2    -29.06      0.00
   -4    0    2    -60.02      0.00
    0    0    2    339.50      0.00
    2    0    2    173.30      0.00
    4    0    2    136.92      0.00
    6    0    2    -55.35      0.00
    8    0    2     20.21      0.00
   10    0    2     15.99      0.00
   12    0    2      0.28      0.00
   14    0    2    -10.01      0.00
   16    0    2      7.36      0.00
   18    0    2     22.14      0.00
   20    0    2      6.78      0.00
   22    0    2      6.57      0.00
   24    0    2     -0.33      0.00
   26    0    2     -2.64      0.00
   28    0    2      1.95      0.00
   30    0    2     -2.68      0.00
   32    0    2     -2.24      0.00
   34    0    2     -1.51      0.00
   36    0    2      1.48      0.00
   38    0    2     -0.82      0.00
  -39    1    2      0.21      0.00
  -37    1    2     -0.35      0.00
  -35    1    2     -3.58      0.00
  -33    1    2     -3.49      0.00
  -31    1    2     -4.79      0.00
  -29    1    2     -2.97      0.00
  -27    1    2     -2.26      0.00
  -25    1    2      0.73      0.00
  -23    1    2      2.96      0.00
  -21    1    2     -7.31      0.00
  -19    1    2    -11.04      0.00
  -17    1    2     18.75      0.00
  -15    1    2    -26.60      0.00
  -13    1    2     -0.13      0.00
  -11    1    2     45.12      0.00
   -9    1    2     11.18      0.00
   -7    1    2     32.46      0.00
   -5    1    2     18.16      0.00
   -3    1    2   -240.98      0.00
   -1    1    2   -371.19      0.00
    1    1    2    365.58      0.00
    3    1    2    102.07      0.00
    5    1    2     57.33      0.00
    7    1    2      6.03      0.00
    9    1    2    -15.43      0.00
   11    1    2     -8.76      0.00
   13    1    2      3.17      0.00
   15    1    2     -9.68      0.00
   17    1    2     -7.08      0.00
   19    1    2      6.62      0.00
   21    1    2      0.43      0.00
   23    1    2      1.91      0.00
   25    1    2      5.78      0.00
   27    1    2      2.34      0.00
   29    1    2     -0.58      0.00
   31    1    2     -3.96      0.00
   33    1    2     -0.20      0.00
   35    1    2     -1.20      0.00
   37    1    2     -1.09      0.00
  -38    2    2      2.17      0.00
  -36    2    2     -0.95      0.00
  -34    2    2      0.73      0.00
  -32    2    2      0.99      0.00
  -30    2    2     -2.02      0.00
  -28    2    2      3.44      0.00
  -26    2    2      2.02      0.00
  -24    2    2     -2.31      0.00
  -22    2    2     -4.56      0.00
  -20    2    2    -10.01      0.00
  -18    2    2     -5.81      0.00
  -16    2    2     -7.72      0.00
  -14    2    2      5.46      0.00
  -12    2    2    -17.43      0.00
  -10    2    2     -4.29      0.00
   -8    2    2     43.80      0.00
   -6    2    2    -60.28      0.00
   -4    2    2    -46.08      0.00
   -2    2    2    -89.11      0.00
    0    2    2    153.38      0.00
    2    2    2    -92.82      0.00
    4    2    2    115.73      0.00
    6    2    2     88.51      0.00
    8    2    2      7.43      0.00
   10    2    2     33.42      0.00
   12    2    2    -12.51      0.00
   14    2    2    -15.04      0.00
   16    2    2     -7.08      0.00
   18    2    2     12.45      0.00
   20    2    2      1.25      0.00
   22    2    2      3.29      0.00
   24    2    2     -3.96      0.00
   26    2    2     -3.32      0.00
   28    2    2     -0.16      0.00
   30    2    2     -3.48      0.00
   32    2    2     -4.51      0.00
   34    2    2     -2.17      0.00
   36    2    2      0.76      0.00
   38    2    2      2.32      0.00
  -39    3    2      0.44      0.00
  -37    3    2     -1.28      0.00
  -35    3    2     -0.18      0.00
  -33    3    2     -0.78      0.00
  -29    3    2     -2.13      0.00
  -27    3    2     -4.01      0.00
  -25    3    2      0.93      0.00
  -23    3    2     -0.96      0.00
  -21    3    2      1.43      0.00
  -19    3    2     -5.08      0.00
  -17    3    2     -0.43      0.00
  -15    3    2     -0.69      0.00
  -13    3    2      9.55      0.00
  -11    3    2     -3.45      0.00
   -9    3    2    -37.34      0.00
   -7    3    2     23.66      0.00
   -5    3    2    -37.52      0.00
   -3    3    2    -31.60      0.00
   -1    3    2     66.01      0.00
    1    3    2     64.18      0.00
    3    3    2    151.54      0.00
    5    3    2     38.08      0.00
    7    3    2     33.35      0.00
    9    3    2    -20.87      0.00
   11    3    2    -20.79      0.00
   13    3    2     -2.57      0.00
   15    3    2     -4.75      0.00
   17    3    2     -5.51      0.00
   19    3    2      2.43      0.00
   21    3    2     -0.34      0.00
   23    3    2     -2.53      0.00
   25    3    2      0.39      0.00
   27    3    2     -1.49      0.00
   29    3    2      2.48      0.00
   31    3    2      0.96      0.00
   33    3    2      1.05      0.00
   35    3    2     -0.50      0.00
   37    3    2     -3.70      0.00
  -38    4    2     -0.50      0.00
  -36    4    2      0.81      0.00
  -34    4    2      1.08      0.00
  -32    4    2     -0.07      0.00
  -30    4    2      0.21      0.00
  -28    4    2      1.86      0.00
  -26    4    2     -5.24      0.00
  -24    4    2      1.01      0.00
  -22    4    2     -1.92      0.00
  -20    4    2    -11.58      0.00
  -18    4    2     -4.72      0.00
  -16    4    2      6.21      0.00
  -14    4    2    -18.05      0.00
  -12    4    2     10.77      0.00
  -10    4    2     25.67      0.00
   -8    4    2     -8.21      0.00
   -6    4    2     -0.69      0.00
   -4    4    2    113.80      0.00
   -2    4    2   -132.33      0.00
    0    4    2     12.27      0.00
    2    4    2     32.42      0.00
    4    4    2    -19.67      0.00
    6    4    2     35.33      0.00
    8    4    2      4.75      0.00
   10    4    2    -19.52      0.00
   12    4    2     -7.53      0.00
   14    4    2    -16.12      0.00
   16    4    2     -6.95      0.00
   18    4    2     -0.85      0.00
   20    4    2     -4.94      0.00
   22    4    2     -0.90      0.00
   24    4    2     -6.83      0.00
   26    4    2     -2.46      0.00
   28    4    2     -2.19      0.00
   30    4    2      0.52      0.00
   32    4    2      3.35      0.00
   34    4    2     -1.21      0.00
   36    4    2      0.18      0.00
  -37    5    2     -1.62      0.00
  -35    5    2     -2.34      0.00
  -33    5    2     -2.19      0.00
  -31    5    2      1.70      0.00
  -29    5    2      3.92      0.00
  -27    5    2      4.44      0.00
  -25    5    2      4.58      0.00
  -23    5    2     -2.01      0.00
  -21    5    2      0.04      0.00
  -19    5    2     -8.63      0.00
  -17    5    2    -10.65      0.00
  -15    5    2      8.93      0.00
  -13    5    2     14.37      0.00
  -11    5    2     15.44      0.00
   -9    5    2     52.72      0.00
   -7    5    2     35.56      0.00
   -5    5    2    -98.26      0.00
   -3    5    2    -27.80      0.00
   -1    5    2     15.22      0.00
    1    5    2    -27.80      0.00
    3    5    2    -96.14      0.00
    5    5    2     78.10      0.00
    7    5    2    -52.63      0.00
    9    5    2     -6.84      0.00
   11    5    2      0.93      0.00
   13    5    2     -0.18      0.00
   15    5    2      3.52      0.00
   17    5    2     -1.53      0.00
   19    5    2     -4.22      0.00
   21    5    2      5.26      0.00
   23    5    2      0.83      0.00
   25    5    2      0.53      0.00
   27    5    2     -1.75      0.00
   29    5    2     -1.26      0.00
   31    5    2     -1.44      0.00
   33    5    2     -1.15      0.00
   35    5    2     -0.01      0.00
   37    5    2      2.20      0.00
  -38    6    2      1.55      0.00
  -36    6    2      0.97      0.00
  -34    6    2     -0.54      0.00
  -32    6    2      2.05      0.00
  -30    6    2      0.09      0.00
  -28    6    2     -0.40      0.00
  -26    6    2     -0.26      0.00
  -24    6    2     -0.10      0.00
  -22    6    2     -1.88      0.00
  -20    6    2     -2.49      0.00
  -18    6    2     -7.75      0.00
  -16    6    2    -15.69      0.00
  -14    6    2     11.12      0.00
  -12    6    2     26.82      0.00
  -10    6    2     -1.14      0.00
   -8    6    2    -62.22      0.00
   -6    6    2     20.10      0.00
   -4    6    2     11.39      0.00
   -2    6    2     15.15      0.00
    0    6    2     14.71      0.00
    2    6    2     41.01      0.00
    4    6    2     23.75      0.00
    6    6    2    -19.13      0.00
    8    6    2     35.20      0.00
   10    6    2     -6.59      0.00
   12    6    2    -18.62      0.00
   14    6    2    -13.83      0.00
   16    6    2    -13.02      0.00
   18    6    2     -5.77      0.00
   20    6    2     -6.53      0.00
   22    6    2     -1.52      0.00
   24    6    2     -3.14      0.00
   26    6    2      2.07      0.00
   28    6    2     -2.87      0.00
   30    6    2     -3.29      0.00
   32    6    2     -2.00      0.00
   34    6    2     -0.82      0.00
   36    6    2     -3.17      0.00
  -37    7    2     -0.24      0.00
  -35    7    2      0.74      0.00
  -33    7    2      1.27      0.00
  -31    7    2     -1.76      0.00
  -29    7    2      1.95      0.00
  -27    7    2      1.89      0.00
  -25    7    2      7.72      0.00
  -23    7    2      1.31      0.00
  -21    7    2      1.15      0.00
  -19    7    2     -4.11      0.00
  -17    7    2      4.82      0.00
  -15    7    2     14.74      0.00
  -13    7    2     16.58      0.00
  -11    7    2     17.26      0.00
   -9    7    2     35.19      0.00
   -7    7    2      5.47      0.00
   -5    7    2      1.53      0.00
   -3    7    2      8.40      0.00
   -1    7    2      0.70      0.00
    1    7    2    -10.30      0.00
    3    7    2     -7.38      0.00
    5    7    2    -15.54      0.00
    7    7    2     17.23      0.00
    9    7    2      4.86      0.00
   11    7    2      6.43      0.00
   13    7    2      1.31      0.00
   15    7    2      4.65      0.00
   17    7    2      4.50      0.00
   19    7    2     -0.06      0.00
   21    7    2      3.90      0.00
   23    7    2     -5.78      0.00
   25    7    2     -2.62      0.00
   27    7    2     -2.08      0.00
   29    7    2     -0.83      0.00
   31    7    2     -0.72      0.00
   33    7    2      0.23      0.00
   35    7    2      1.13      0.00
  -36    8    2      2.62      0.00
  -34    8    2     -0.60      0.00
  -32    8    2     -1.26      0.00
  -30    8    2      1.89      0.00
  -28    8    2      0.80      0.00
  -26    8    2      1.81      0.00
  -24    8    2      1.18      0.00
  -22    8    2     -5.37      0.00
  -20    8    2      1.66      0.00
  -18    8    2    -10.04      0.00
  -16    8    2      2.66      0.00
  -14    8    2      8.78      0.00
  -12    8    2     11.50      0.00
  -10    8    2     -3.35      0.00
   -8    8    2     18.11      0.00
   -6    8    2    -24.30      0.00
   -4    8    2     -8.01      0.00
   -2    8    2    -21.06      0.00
    0    8    2      5.73      0.00
    2    8    2     -3.27      0.00
    4    8    2     25.59      0.00
    6    8    2      1.12      0.00
    8    8    2      4.18      0.00
   10    8    2      1.45      0.00
   12    8    2     -1.91      0.00
   14    8    2     -7.51      0.00
   16    8    2     -0.63      0.00
   18    8    2     -6.08      0.00
   20    8    2     -1.63      0.00
   22    8    2     -0.15      0.00
   24    8    2      4.20      0.00
   26    8    2      2.84      0.00
   28    8    2      0.13      0.00
   30    8    2     -1.29      0.00
   32    8    2     -1.59      0.00
   34    8    2     -3.84      0.00
  -35    9    2     -0.54      0.00
  -33    9    2      1.35      0.00
  -31    9    2     -0.31      0.00
  -29    9    2     -3.84      0.00
  -27    9    2      1.38      0.00
  -25    9    2      3.31      0.00
  -23    9    2     -2.90      0.00
  -21    9    2     -4.20      0.00
  -19    9    2     -5.77      0.00
  -17    9    2     -4.04      0.00
  -15    9    2      8.20      0.00
  -13    9    2     17.57      0.00
  -11    9    2     24.01      0.00
   -9    9    2      5.89      0.00
   -7    9    2     -3.76      0.00
   -5    9    2      3.85      0.00
   -3    9    2     10.06      0.00
   -1    9    2      3.41      0.00
    1    9    2    -13.81      0.00
    3    9    2    -20.83      0.00
    5    9    2     -5.52      0.00
    7    9    2    -14.77      0.00
    9    9    2     21.60      0.00
   11    9    2      2.77      0.00
   13    9    2     -5.77      0.00
   15    9    2      2.48      0.00
   17    9    2      3.90      0.00
   19    9    2      3.66      0.00
   21    9    2      3.38      0.00
   23    9    2     -2.03      0.00
   25    9    2      1.35      0.00
   27    9    2     -2.25      0.00
   29    9    2     -0.30      0.00
   31    9    2      1.05      0.00
   33    9    2      1.81      0.00
   35    9    2      0.69      0.00
  -34   10    2     -1.47      0.00
  -32   10    2     -0.73      0.00
  -30   10    2     -0.76      0.00
  -28   10    2      2.24      0.00
  -26   10    2     -0.21      0.00
  -24   10    2      0.63      0.00
  -22   10    2     -3.72      0.00
  -20   10    2     -2.50      0.00
  -18   10    2      3.25      0.00
  -16   10    2      5.93      0.00
  -14   10    2      7.94      0.00
  -12   10    2     -1.21      0.00
  -10   10    2     -2.58      0.00
   -8   10    2     10.04      0.00
   -6   10    2      3.38      0.00
   -4   10    2    -24.73      0.00
   -2   10    2     -2.44      0.00
    0   10    2     11.69      0.00
    2   10    2     20.52      0.00
    4   10    2     11.36      0.00
    6   10    2     -0.71      0.00
    8   10    2     -9.01      0.00
   10   10    2    -15.20      0.00
   12   10    2      5.10      0.00
   14   10    2      2.61      0.00
   16   10    2     -7.02      0.00
   18   10    2     -1.23      0.00
   20   10    2      5.43      0.00
   22   10    2      2.31      0.00
   24   10    2      0.83      0.00
   26   10    2      2.43      0.00
   28   10    2      1.01      0.00
   30   10    2      2.00      0.00
   32   10    2      0.54      0.00
   34   10    2      2.59      0.00
  -33   11    2      0.97      0.00
  -31   11    2     -0.41      0.00
  -29   11    2     -2.43      0.00
  -27   11    2     -2.96      0.00
  -25   11    2     -0.32      0.00
  -23   11    2     -4.00      0.00
  -21   11    2     -3.64      0.00
  -19   11    2     -3.09      0.00
  -17   11    2     -1.24      0.00
  -15   11    2      1.03      0.00
  -13   11    2      7.78      0.00
  -11   11    2     -4.79      0.00
   -9   11    2      3.69      0.00
   -7   11    2      0.97      0.00
   -5   11    2      8.60      0.00
   -3   11    2     19.55      0.00
   -1   11    2     -6.08      0.00
    1   11    2     -9.95      0.00
    3   11    2      8.22      0.00
    5   11    2      6.41      0.00
    7   11    2     22.61      0.00
    9   11    2     12.85      0.00
   11   11    2     -4.34      0.00
   13   11    2     -2.88      0.00
   15   11    2      0.56      0.00
   17   11    2      5.97      0.00
   19   11    2     -2.72      0.00
   21   11    2      2.79      0.00
   23   11    2      0.14      0.00
   25   11    2     -1.93      0.00
   27   11    2     -3.35      0.00
   29   11    2     -0.75      0.00
   31   11    2      1.13      0.00
   33   11    2     -3.52      0.00
  -32   12    2     -0.01      0.00
  -30   12    2     -1.40      0.00
  -28   12    2     -0.68      0.00
  -26   12    2      1.69      0.00
  -24   12    2     -2.19      0.00
  -22   12    2      1.04      0.00
  -20   12    2     -2.14      0.00
  -18   12    2      7.36      0.00
  -16   12    2     -0.27      0.00
  -14   12    2      2.44      0.00
  -12   12    2     -2.23      0.00
  -10   12    2      0.23      0.00
   -8   12    2      2.44      0.00
   -6   12    2    -14.10      0.00
   -4   12    2     -9.25      0.00
   -2   12    2    -11.82      0.00
    0   12    2      1.17      0.00
    2   12    2     -2.87      0.00
    4   12    2      7.14      0.00
    6   12    2     -5.27      0.00
    8   12    2     -4.36      0.00
   10   12    2      1.42      0.00
   12   12    2     -3.99      0.00
   14   12    2      8.48      0.00
   16   12    2     -3.20      0.00
   18   12    2      2.63      0.00
   20   12    2      0.67      0.00
   22   12    2      1.10      0.00
   24   12    2     -1.59      0.00
   26   12    2      5.65      0.00
   28   12    2      4.32      0.00
   30   12    2     -0.09      0.00
   32   12    2      2.52      0.00
  -31   13    2      2.70      0.00
  -29   13    2      0.04      0.00
  -27   13    2     -1.09      0.00
  -25   13    2      1.94      0.00
  -23   13    2     -2.81      0.00
  -21   13    2      1.40      0.00
  -19   13    2     -7.81      0.00
  -17   13    2     -3.37      0.00
  -15   13    2     -0.40      0.00
  -13   13    2     -1.56      0.00
  -11   13    2     -1.34      0.00
   -9   13    2      1.49      0.00
   -7   13    2      7.29      0.00
   -5   13    2      9.36      0.00
   -3   13    2      8.05      0.00
   -1   13    2      3.72      0.00
    1   13    2      2.80      0.00
    3   13    2      0.40      0.00
    5   13    2      4.00      0.00
    7   13    2      3.24      0.00
    9   13    2      3.89      0.00
   11   13    2     -1.49      0.00
   13   13    2     -5.04      0.00
   15   13    2     -2.27      0.00
   17   13    2     -1.49      0.00
   19   13    2      6.20      0.00
   21   13    2      1.27      0.00
   23   13    2     -3.03      0.00
   25   13    2      1.14      0.00
   27   13    2      6.14      0.00
   29   13    2      3.67      0.00
   31   13    2      3.44      0.00
  -30   14    2      0.73      0.00
  -28   14    2     -0.30      0.00
  -26   14    2     -1.57      0.00
  -24   14    2      3.01      0.00
  -22   14    2     -2.23      0.00
  -20   14    2      1.38      0.00
  -18   14    2      4.27      0.00
  -16   14    2      5.48      0.00
  -14   14    2     -3.40      0.00
  -12   14    2      0.04      0.00
  -10   14    2      0.91      0.00
   -8   14    2      1.41      0.00
   -6   14    2     -2.90      0.00
   -4   14    2     -3.18      0.00
   -2   14    2     -0.35      0.00
    0   14    2      0.48      0.00
    2   14    2      3.48      0.00
    4   14    2      0.60      0.00
    6   14    2      0.53      0.00
    8   14    2     -4.36      0.00
   10   14    2     -6.84      0.00
   12   14    2      0.40      0.00
   14   14    2      2.56      0.00
   16   14    2      9.63      0.00
   18   14    2      3.38      0.00
   20   14    2      5.32      0.00
   22   14    2     -0.45      0.00
   24   14    2      2.47      0.00
   26   14    2     -2.62      0.00
   28   14    2      1.79      0.00
  -29   15    2      1.04      0.00
  -27   15    2      0.73      0.00
  -25   15    2      0.42      0.00
  -23   15    2     -5.18      0.00
  -21   15    2      3.47      0.00
  -19   15    2      2.76      0.00
  -17   15    2     -4.71      0.00
  -15   15    2      5.93      0.00
  -13   15    2      7.14      0.00
  -11   15    2     -4.82      0.00
   -9   15    2     -1.37      0.00
   -7   15    2      1.55      0.00
   -5   15    2      7.57      0.00
   -3   15    2      4.99      0.00
   -1   15    2     -3.70      0.00
    1   15    2      0.58      0.00
    3   15    2     -9.06      0.00
    5   15    2     -2.20      0.00
    7   15    2    -10.36      0.00
    9   15    2      5.75      0.00
   11   15    2      2.27      0.00
   13   15    2     -4.23      0.00
   15   15    2      6.21      0.00
   17   15    2     -5.24      0.00
   19   15    2     -0.92      0.00
   21   15    2     -3.44      0.00
   23   15    2     -2.59      0.00
   25   15    2     -1.42      0.00
   27   15    2     -2.97      0.00
  -28   16    2     -0.32      0.00
  -26   16    2      2.26      0.00
  -24   16    2      0.60      0.00
  -22   16    2      4.30      0.00
  -20   16    2     -3.87      0.00
  -18   16    2     -0.46      0.00
  -16   16    2      0.54      0.00
  -14   16    2     -0.51      0.00
  -12   16    2      9.61      0.00
  -10   16    2      1.56      0.00
   -8   16    2      1.79      0.00
   -6   16    2     -4.02      0.00
   -4   16    2      0.23      0.00
   -2   16    2     -1.46      0.00
    0   16    2     -5.43      0.00
    2   16    2     -2.06      0.00
    4   16    2      0.45      0.00
    6   16    2     -0.82      0.00
    8   16    2     -1.70      0.00
   10   16    2      2.93      0.00
   12   16    2      0.61      0.00
   14   16    2      4.79      0.00
   16   16    2     -1.30      0.00
   18   16    2      2.03      0.00
   20   16    2     -1.90      0.00
   22   16    2      3.68      0.00
   24   16    2      2.14      0.00
   26   16    2      1.98      0.00
  -25   17    2     -0.34      0.00
  -23   17    2      2.67      0.00
  -21   17    2     -0.51      0.00
  -19   17    2     -0.36      0.00
  -17   17    2      0.21      0.00
  -15   17    2     -2.05      0.00
  -13   17    2      1.43      0.00
  -11   17    2     -4.97      0.00
   -9   17    2      7.46      0.00
   -7   17    2      2.31      0.00
   -5   17    2      0.93      0.00
   -3   17    2      4.95      0.00
   -1   17    2     -0.06      0.00
    1   17    2      1.74      0.00
    3   17    2      0.87      0.00
    5   17    2     -3.14      0.00
    7   17    2      1.45      0.00
    9   17    2     -0.01      0.00
   11   17    2     -0.87      0.00
   13   17    2      1.24      0.00
   15   17    2      2.28      0.00
   17   17    2      9.29      0.00
   19   17    2     -1.97      0.00
   21   17    2      2.33      0.00
   23   17    2     -2.64      0.00
  -22   18    2     -0.35      0.00
  -20   18    2      6.28      0.00
  -18   18    2     -3.39      0.00
  -16   18    2     -0.99      0.00
  -14   18    2     -3.00      0.00
  -12   18    2     -3.97      0.00
  -10   18    2      2.57      0.00
   -8   18    2      0.04      0.00
   -6   18    2      1.55      0.00
   -4   18    2      4.18      0.00
   -2   18    2      1.58      0.00
    0   18    2      0.91      0.00
    2   18    2      0.46      0.00
    4   18    2      1.85      0.00
    6   18    2      0.24      0.00
    8   18    2     -4.64      0.00
   10   18    2      8.01      0.00
   12   18    2      2.69      0.00
   14   18    2      2.63      0.00
   16   18    2      6.35      0.00
   18   18    2     -0.08      0.00
   20   18    2      3.12      0.00
   22   18    2      3.25      0.00
  -21   19    2     -0.49      0.00
  -19   19    2     -0.56      0.00
  -17   19    2      0.41      0.00
  -15   19    2     -6.53      0.00
  -13   19    2     -4.28      0.00
  -11   19    2     -2.01      0.00
   -9   19    2      2.64      0.00
   -7   19    2      2.13      0.00
   -5   19    2     -1.36      0.00
   -3   19    2     -3.63      0.00
   -1   19    2      0.62      0.00
    1   19    2      0.21      0.00
    3   19    2     -2.45      0.00
    5   19    2     -1.34      0.00
    7   19    2      0.60      0.00
    9   19    2     -2.20      0.00
   11   19    2     -3.27      0.00
   13   19    2     -1.35      0.00
   15   19    2      3.66      0.00
   17   19    2     -6.20      0.00
   19   19    2      2.30      0.00
  -18   20    2      0.32      0.00
  -16   20    2     -2.00      0.00
  -14   20    2      1.68      0.00
  -12   20    2     -0.33      0.00
  -10   20    2     -0.45      0.00
   -8   20    2      0.29      0.00
   -6   20    2      3.08      0.00
   -4   20    2      0.29      0.00
   -2   20    2     -1.49      0.00
    0   20    2      3.28      0.00
    2   20    2      3.09      0.00
    4   20    2      4.45      0.00
    6   20    2      6.54      0.00
    8   20    2     -0.76      0.00
   10   20    2      3.64      0.00
   12   20    2     -4.98      0.00
   14   20    2      1.47      0.00
   16   20    2      0.89      0.00
  -13   21    2      2.63      0.00
  -11   21    2     -2.28      0.00
   -9   21    2      3.26      0.00
   -7   21    2     -2.04      0.00
   -5   21    2      0.65      0.00
   -3   21    2      3.93      0.00
   -1   21    2      0.31      0.00
    1   21    2     -3.37      0.00
    3   21    2     -3.82      0.00
    5   21    2      0.53      0.00
    7   21    2     -2.83      0.00
    9   21    2     -3.13      0.00
   11   21    2     -0.74      0.00
   13   21    2     -0.09      0.00
   -6   22    2     -1.21      0.00
   -4   22    2      1.84      0.00
   -2   22    2      0.73      0.00
    0   22    2     -0.10      0.00
    2   22    2     -0.06      0.00
    4   22    2      5.03      0.00
    6   22    2      3.67      0.00
  -39    1    3      5.99      0.00
  -37    1    3     -3.11      0.00
  -35    1    3      0.04      0.00
  -33    1    3      0.99      0.00
  -31    1    3     -2.51      0.00
  -29    1    3     -2.79      0.00
  -27    1    3      0.64      0.00
  -25    1    3     -3.53      0.00
  -23    1    3     -1.62      0.00
  -21    1    3     -4.28      0.00
  -19    1    3     -7.48      0.00
  -17    1    3     -3.41      0.00
  -15    1    3    -14.13      0.00
  -13    1    3     -8.02      0.00
  -11    1    3      6.50      0.00
   -9    1    3     -5.92      0.00
   -7    1    3   -112.46      0.00
   -5    1    3     64.96      0.00
   -3    1    3   -180.32      0.00
   -1    1    3    -15.46      0.00
    1    1    3      1.64      0.00
    3    1    3    -34.12      0.00
    5    1    3    114.81      0.00
    7    1    3    -17.81      0.00
    9    1    3     -3.05      0.00
   11    1    3     -5.52      0.00
   13    1    3    -12.13      0.00
   15    1    3     -6.36      0.00
   17    1    3     -2.95      0.00
   19    1    3     -1.58      0.00
   21    1    3     -0.83      0.00
   23    1    3      2.30      0.00
   25    1    3      4.82      0.00
   27    1    3      0.31      0.00
   29    1    3      2.74      0.00
   31    1    3      0.59      0.00
   33    1    3      0.63      0.00
   35    1    3      1.33      0.00
   37    1    3      0.48      0.00
  -38    2    3      0.31      0.00
  -36    2    3      1.69      0.00
  -34    2    3     -1.74      0.00
  -32    2    3     -0.84      0.00
  -30    2    3      2.63      0.00
  -28    2    3     -6.12      0.00
  -26    2    3     -3.63      0.00
  -24    2    3     -0.32      0.00
  -22    2    3     -2.77      0.00
  -20    2    3      6.22      0.00
  -18    2    3      0.38      0.00
  -16    2    3     -5.16      0.00
  -14    2    3     17.63      0.00
  -12    2    3     -9.82      0.00
  -10    2    3    -43.82      0.00
   -8    2    3     44.54      0.00
   -6    2    3   -133.94      0.00
   -4    2    3   -140.13      0.00
   -2    2    3     74.42      0.00
    0    2    3    -98.68      0.00
    2    2    3     60.79      0.00
    4    2    3    -15.84      0.00
    6    2    3    -10.96      0.00
    8    2    3     -6.65      0.00
   10    2    3     -1.48      0.00
   12    2    3      2.80      0.00
   14    2    3     -7.04      0.00
   16    2    3      1.46      0.00
   18    2    3     -6.42      0.00
   20    2    3     -3.10      0.00
   22    2    3     -2.09      0.00
   24    2    3     -4.77      0.00
   26    2    3      0.95      0.00
   28    2    3      5.85      0.00
   30    2    3      2.16      0.00
   32    2    3      2.59      0.00
   34    2    3     -0.56      0.00
   36    2    3     -2.01      0.00
  -39    3    3     -0.92      0.00
  -37    3    3     -0.96      0.00
  -35    3    3      1.03      0.00
  -33    3    3      1.81      0.00
  -31    3    3     -4.40      0.00
  -29    3    3      1.54      0.00
  -27    3    3      0.50      0.00
  -25    3    3      0.45      0.00
  -23    3    3     -2.84      0.00
  -21    3    3    -10.68      0.00
  -19    3    3    -11.24      0.00
  -17    3    3     12.00      0.00
  -15    3    3     -5.11      0.00
  -13    3    3     -4.40      0.00
  -11    3    3     35.27      0.00
   -9    3    3   -106.74      0.00
   -7    3    3     -6.61      0.00
   -5    3    3    -26.81      0.00
   -3    3    3     36.82      0.00
   -1    3    3     18.29      0.00
    1    3    3    -15.72      0.00
    3    3    3     22.69      0.00
    5    3    3      6.64      0.00
    7    3    3     26.49      0.00
    9    3    3    -12.38      0.00
   11    3    3      3.59      0.00
   13    3    3    -17.05      0.00
   15    3    3    -10.60      0.00
   17    3    3      0.36      0.00
   19    3    3     -2.06      0.00
   21    3    3      3.88      0.00
   23    3    3      0.40      0.00
   25    3    3      3.44      0.00
   27    3    3     -0.05      0.00
   29    3    3      1.45      0.00
   31    3    3      2.46      0.00
   33    3    3      0.67      0.00
   35    3    3     -1.65      0.00
   37    3    3      0.33      0.00
  -38    4    3      1.07      0.00
  -36    4    3     -0.78      0.00
  -34    4    3     -0.87      0.00
  -32    4    3      0.82      0.00
  -30    4    3     -2.17      0.00
  -28    4    3     -0.74      0.00
  -26    4    3      1.48      0.00
  -24    4    3      0.86      0.00
  -22    4    3     -2.06      0.00
  -20    4    3      4.82      0.00
  -18    4    3      8.17      0.00
  -16    4    3      2.97      0.00
  -14    4    3     10.14      0.00
  -12    4    3     -9.37      0.00
  -10    4    3      9.48      0.00
   -8    4    3    -49.21      0.00
   -6    4    3     -5.56      0.00
   -4    4    3     -7.11      0.00
   -2    4    3     14.26      0.00
    0    4    3    -29.60      0.00
    2    4    3   -145.55      0.00
    4    4    3    -57.35      0.00
    6    4    3     24.46      0.00
    8    4    3    -20.23      0.00
   10    4    3     18.51      0.00
   12    4    3      5.48      0.00
   14    4    3      8.29      0.00
   16    4    3      9.46      0.00
   18    4    3     -7.04      0.00
   20    4    3     -4.65      0.00
   22    4    3      1.78      0.00
   24    4    3      0.44      0.00
   26    4    3     -1.46      0.00
   28    4    3      3.02      0.00
   30    4    3      1.13      0.00
   32    4    3      1.41      0.00
   34    4    3      3.80      0.00
   36    4    3      1.59      0.00
  -39    5    3      2.54      0.00
  -37    5    3      2.26      0.00
  -35    5    3      3.55      0.00
  -33    5    3      2.06      0.00
  -31    5    3      1.29      0.00
  -29    5    3      4.12      0.00
  -27    5    3     -3.24      0.00
  -25    5    3      1.89      0.00
  -23    5    3     -0.46      0.00
  -21    5    3      1.94      0.00
  -19    5    3     -4.25      0.00
  -17    5    3     -8.54      0.00
  -15    5    3     -0.12      0.00
  -13    5    3     10.09      0.00
  -11    5    3    -28.48      0.00
   -9    5    3     -6.55      0.00
   -7    5    3     18.66      0.00
   -5    5    3     -5.88      0.00
   -3    5    3    104.69      0.00
   -1    5    3     54.00      0.00
    1    5    3     48.00      0.00
    3    5    3     18.01      0.00
    5    5    3    -18.77      0.00
    7    5    3     14.79      0.00
    9    5    3     28.26      0.00
   11    5    3     -2.43      0.00
   13    5    3    -19.44      0.00
   15    5    3     -5.18      0.00
   17    5    3     -3.74      0.00
   19    5    3     -6.32      0.00
   21    5    3      4.20      0.00
   23    5    3      4.92      0.00
   25    5    3      4.42      0.00
   27    5    3     -0.13      0.00
   29    5    3     -4.89      0.00
   31    5    3     -3.39      0.00
   33    5    3      0.87      0.00
   35    5    3     -0.14      0.00
   37    5    3     -0.09      0.00
  -38    6    3     -1.36      0.00
  -36    6    3     -0.41      0.00
  -34    6    3      0.43      0.00
  -32    6    3     -1.38      0.00
  -30    6    3     -4.58      0.00
  -28    6    3      0.87      0.00
  -26    6    3      2.79      0.00
  -24    6    3      0.16      0.00
  -22    6    3     -0.65      0.00
  -20    6    3     -2.46      0.00
  -18    6    3     10.59      0.00
  -16    6    3      7.61      0.00
  -14    6    3     -4.28      0.00
  -12    6    3     12.21      0.00
  -10    6    3    -12.46      0.00
   -8    6    3    -25.22      0.00
   -6    6    3      1.84      0.00
   -4    6    3    -38.12      0.00
   -2    6    3    -11.81      0.00
    0    6    3    -26.59      0.00
    2    6    3    -14.51      0.00
    4    6    3     34.56      0.00
    6    6    3     47.43      0.00
    8    6    3      9.80      0.00
   10    6    3     -0.67      0.00
   12    6    3      8.86      0.00
   14    6    3      6.21      0.00
   16    6    3      8.96      0.00
   18    6    3      2.72      0.00
   20    6    3      1.01      0.00
   22    6    3     -2.30      0.00
   24    6    3      4.02      0.00
   26    6    3     -2.78      0.00
   28    6    3      3.03      0.00
   30    6    3     -1.92      0.00
   32    6    3     -0.86      0.00
   34    6    3      0.71      0.00
   36    6    3      0.36      0.00
  -37    7    3      0.77      0.00
  -35    7    3      1.16      0.00
  -33    7    3     -0.49      0.00
  -31    7    3     -1.54      0.00
  -29    7    3      3.07      0.00
  -27    7    3      0.98      0.00
  -25    7    3      4.32      0.00
  -23    7    3      0.77      0.00
  -21    7    3      0.24      0.00
  -19    7    3      2.00      0.00
  -17    7    3      7.07      0.00
  -15    7    3      5.46      0.00
  -13    7    3    -13.86      0.00
  -11    7    3      4.60      0.00
   -9    7    3     -5.32      0.00
   -7    7    3      5.13      0.00
   -5    7    3     18.75      0.00
   -3    7    3    -13.95      0.00
   -1    7    3     19.07      0.00
    1    7    3    -17.63      0.00
    3    7    3    -14.21      0.00
    5    7    3     -2.27      0.00
    7    7    3     27.28      0.00
    9    7    3      0.49      0.00
   11    7    3      8.70      0.00
   13    7    3    -11.59      0.00
   15    7    3     -3.99      0.00
   17    7    3      2.19      0.00
   19    7    3     -0.29      0.00
   21    7    3      4.59      0.00
   23    7    3      8.36      0.00
   25    7    3     -0.18      0.00
   27    7    3     -2.00      0.00
   29    7    3      2.35      0.00
   31    7    3     -1.01      0.00
   33    7    3     -0.67      0.00
   35    7    3      0.38      0.00
  -36    8    3     -1.40      0.00
  -34    8    3     -1.61      0.00
  -32    8    3      0.64      0.00
  -30    8    3      1.70      0.00
  -28    8    3     -0.75      0.00
  -26    8    3      4.72      0.00
  -24    8    3      1.71      0.00
  -22    8    3      1.15      0.00
  -20    8    3      0.97      0.00
  -18    8    3     -0.99      0.00
  -16    8    3    -16.06      0.00
  -14    8    3     -6.23      0.00
  -12    8    3     -9.52      0.00
  -10    8    3      5.64      0.00
   -8    8    3     26.45      0.00
   -6    8    3    -16.43      0.00
   -4    8    3     -5.11      0.00
   -2    8    3     -1.94      0.00
    0    8    3     22.04      0.00
    4    8    3      6.76      0.00
    6    8    3    -17.89      0.00
    8    8    3     -8.73      0.00
   10    8    3     27.62      0.00
   12    8    3     -2.33      0.00
   14    8    3     14.67      0.00
   16    8    3      4.77      0.00
   18    8    3      1.68      0.00
   20    8    3     -4.72      0.00
   22    8    3      1.95      0.00
   24    8    3     -2.08      0.00
   26    8    3     -1.48      0.00
   28    8    3      2.16      0.00
   30    8    3      1.00      0.00
   32    8    3      0.86      0.00
   34    8    3     -1.02      0.00
  -35    9    3      1.01      0.00
  -33    9    3      0.80      0.00
  -31    9    3     -1.01      0.00
  -29    9    3      0.04      0.00
  -27    9    3      1.40      0.00
  -25    9    3      0.90      0.00
  -23    9    3     -0.15      0.00
  -21    9    3     -4.08      0.00
  -19    9    3     -2.08      0.00
  -17    9    3     -1.06      0.00
  -15    9    3     -2.35      0.00
  -13    9    3     -1.10      0.00
  -11    9    3     12.57      0.00
   -9    9    3    -14.97      0.00
   -7    9    3      7.83      0.00
   -5    9    3     10.97      0.00
   -3    9    3     -2.95      0.00
    1    9    3     -9.83      0.00
    3    9    3     -4.65      0.00
    5    9    3      5.00      0.00
    7    9    3      8.88      0.00
    9    9    3    -13.23      0.00
   11    9    3     -7.23      0.00
   13    9    3     10.94      0.00
   15    9    3     -4.26      0.00
   17    9    3      0.02      0.00
   19    9    3      6.49      0.00
   21    9    3      4.56      0.00
   23    9    3     -0.49      0.00
   25    9    3     -0.96      0.00
   27    9    3      0.64      0.00
   29    9    3      3.45      0.00
   31    9    3     -0.85      0.00
   33    9    3      2.62      0.00
  -34   10    3     -0.76      0.00
  -32   10    3     -2.51      0.00
  -30   10    3     -1.51      0.00
  -28   10    3      4.41      0.00
  -26   10    3     -0.07      0.00
  -24   10    3      2.48      0.00
  -22   10    3     -5.38      0.00
  -20   10    3     -1.18      0.00
  -18   10    3      0.27      0.00
  -16   10    3     -5.92      0.00
  -14   10    3     -0.28      0.00
  -12   10    3     -5.19      0.00
  -10   10    3      7.75      0.00
   -8   10    3      8.06      0.00
   -6   10    3     -1.16      0.00
   -4   10    3     -2.46      0.00
   -2   10    3     -2.36      0.00
    0   10    3     26.21      0.00
    2   10    3      4.63      0.00
    4   10    3     11.31      0.00
    6   10    3     -9.80      0.00
    8   10    3     -3.43      0.00
   10   10    3      0.36      0.00
   12   10    3      0.38      0.00
   14   10    3     -0.66      0.00
   16   10    3      5.46      0.00
   18   10    3      1.87      0.00
   20   10    3     -3.66      0.00
   22   10    3     -0.49      0.00
   24   10    3     -2.64      0.00
   26   10    3     -0.81      0.00
   28   10    3      1.28      0.00
   30   10    3     -0.66      0.00
   32   10    3     -3.22      0.00
  -33   11    3      1.83      0.00
  -31   11    3      5.26      0.00
  -29   11    3      1.66      0.00
  -27   11    3      1.54      0.00
  -25   11    3     -1.88      0.00
  -23   11    3      1.80      0.00
  -21   11    3      6.14      0.00
  -19   11    3      1.81      0.00
  -17   11    3     -1.88      0.00
  -15   11    3     -2.57      0.00
  -13   11    3     -2.46      0.00
  -11   11    3     -4.34      0.00
   -9   11    3      3.17      0.00
   -7   11    3    -12.81      0.00
   -5   11    3      8.47      0.00
   -3   11    3     -8.24      0.00
   -1   11    3    -11.13      0.00
    1   11    3    -15.89      0.00
    3   11    3     -1.12      0.00
    5   11    3     -2.36      0.00
    7   11    3     -7.44      0.00
    9   11    3      4.26      0.00
   11   11    3     -3.77      0.00
   13   11    3      0.84      0.00
   15   11    3     -0.06      0.00
   17   11    3      3.68      0.00
   19   11    3      0.96      0.00
   21   11    3     -0.41      0.00
   23   11    3     -2.86      0.00
   25   11    3     -1.96      0.00
   27   11    3      1.68      0.00
   29   11    3      0.74      0.00
   31   11    3      0.74      0.00
  -32   12    3     -0.81      0.00
  -30   12    3      1.95      0.00
  -28   12    3      1.20      0.00
  -26   12    3      5.36      0.00
  -24   12    3      1.23      0.00
  -22   12    3      1.92      0.00
  -20   12    3     -2.13      0.00
  -18   12    3     -3.53      0.00
  -16   12    3     -2.34      0.00
  -14   12    3     -5.47      0.00
  -12   12    3     10.21      0.00
  -10   12    3      2.32      0.00
   -8   12    3     -6.66      0.00
   -6   12    3     -0.12      0.00
   -4   12    3      3.37      0.00
   -2   12    3      8.51      0.00
    0   12    3     20.10      0.00
    2   12    3     -9.24      0.00
    4   12    3      8.93      0.00
    6   12    3     -0.15      0.00
    8   12    3     -6.02      0.00
   10   12    3     -4.75      0.00
   12   12    3      2.19      0.00
   14   12    3      6.76      0.00
   16   12    3     -2.46      0.00
   18   12    3      7.86      0.00
   20   12    3     -0.11      0.00
   22   12    3     -2.79      0.00
   24   12    3     -2.79      0.00
   26   12    3      1.19      0.00
   28   12    3      3.86      0.00
   30   12    3      2.10      0.00
  -31   13    3     -1.67      0.00
  -29   13    3      0.19      0.00
  -27   13    3     -1.08      0.00
  -25   13    3      3.82      0.00
  -23   13    3      1.61      0.00
  -21   13    3      1.32      0.00
  -19   13    3     -0.94      0.00
  -17   13    3      0.50      0.00
  -15   13    3      4.03      0.00
  -13   13    3     -0.69      0.00
  -11   13    3     -0.48      0.00
   -9   13    3      4.56      0.00
   -7   13    3      6.92      0.00
   -5   13    3      7.56      0.00
   -3   13    3     -1.38      0.00
   -1   13    3     -1.34      0.00
    1   13    3     -4.99      0.00
    3   13    3     -4.02      0.00
    5   13    3     -1.17      0.00
    7   13    3     -6.38      0.00
    9   13    3      2.27      0.00
   11   13    3      1.30      0.00
   13   13    3     -5.81      0.00
   15   13    3      6.78      0.00
   17   13    3      7.36      0.00
   19   13    3      7.99      0.00
   21   13    3      0.83      0.00
   23   13    3     -0.55      0.00
   25   13    3     -6.91      0.00
   27   13    3     -1.51      0.00
   29   13    3      2.68      0.00
  -30   14    3      1.18      0.00
  -28   14    3     -0.26      0.00
  -26   14    3      0.17      0.00
  -24   14    3     -3.33      0.00
  -22   14    3      1.55      0.00
  -20   14    3      0.31      0.00
  -18   14    3     -2.02      0.00
  -16   14    3     -3.09      0.00
  -14   14    3      3.98      0.00
  -12   14    3      1.34      0.00
  -10   14    3      0.55      0.00
   -8   14    3     -6.48      0.00
   -6   14    3     -6.26      0.00
   -4   14    3     -0.09      0.00
   -2   14    3     -6.34      0.00
    0   14    3      2.86      0.00
    2   14    3     -1.33      0.00
    4   14    3     -1.97      0.00
    6   14    3    -14.88      0.00
    8   14    3     -6.17      0.00
   10   14    3     -7.21      0.00
   12   14    3      3.30      0.00
   14   14    3      2.72      0.00
   16   14    3     -6.27      0.00
   18   14    3      1.00      0.00
   20   14    3     -0.20      0.00
   22   14    3      4.50      0.00
   24   14    3     -4.07      0.00
   26   14    3     -7.21      0.00
   28   14    3     -4.09      0.00
  -29   15    3      3.08      0.00
  -27   15    3      5.04      0.00
  -25   15    3      2.87      0.00
  -23   15    3      6.63      0.00
  -21   15    3      3.72      0.00
  -19   15    3      0.68      0.00
  -17   15    3     -4.41      0.00
  -15   15    3      2.27      0.00
  -13   15    3      4.56      0.00
  -11   15    3     -8.56      0.00
   -9   15    3      1.33      0.00
   -7   15    3      2.46      0.00
   -5   15    3      9.90      0.00
   -3   15    3      6.70      0.00
   -1   15    3      0.33      0.00
    1   15    3     -1.06      0.00
    3   15    3      0.60      0.00
    5   15    3      1.16      0.00
    7   15    3      0.85      0.00
    9   15    3     -2.23      0.00
   11   15    3      0.12      0.00
   13   15    3     -2.18      0.00
   15   15    3     -0.68      0.00
   17   15    3      2.91      0.00
   19   15    3     -1.23      0.00
   21   15    3      6.47      0.00
   23   15    3     -2.16      0.00
   25   15    3      1.97      0.00
   27   15    3      0.72      0.00
  -28   16    3      1.43      0.00
  -26   16    3      1.36      0.00
  -24   16    3      0.95      0.00
  -22   16    3     -0.97      0.00
  -20   16    3     -0.27      0.00
  -18   16    3      1.49      0.00
  -16   16    3      3.07      0.00
  -14   16    3     -3.49      0.00
  -12   16    3      2.94      0.00
  -10   16    3      4.42      0.00
   -8   16    3     -2.11      0.00
   -6   16    3     -9.04      0.00
   -4   16    3     -1.95      0.00
   -2   16    3      5.60      0.00
    0   16    3     -0.44      0.00
    2   16    3      8.06      0.00
    4   16    3      3.87      0.00
    6   16    3     -4.91      0.00
    8   16    3     -4.03      0.00
   10   16    3     -3.55      0.00
   12   16    3      2.34      0.00
   14   16    3     -0.39      0.00
   16   16    3      2.81      0.00
   18   16    3      4.77      0.00
   20   16    3     -1.83      0.00
   22   16    3      0.11      0.00
   24   16    3     -2.70      0.00
   26   16    3      0.20      0.00
  -25   17    3     -0.39      0.00
  -23   17    3     -3.54      0.00
  -21   17    3     -0.59      0.00
  -19   17    3     -2.77      0.00
  -17   17    3    -10.77      0.00
  -15   17    3     -2.37      0.00
  -13   17    3     -2.43      0.00
  -11   17    3     -0.83      0.00
   -9   17    3      4.86      0.00
   -7   17    3      2.75      0.00
   -5   17    3      4.13      0.00
   -3   17    3      3.02      0.00
   -1   17    3     -2.54      0.00
    1   17    3      0.04      0.00
    3   17    3     -0.55      0.00
    5   17    3      1.11      0.00
    7   17    3     -1.11      0.00
    9   17    3     -6.20      0.00
   11   17    3      2.78      0.00
   13   17    3     -1.63      0.00
   15   17    3      2.78      0.00
   17   17    3      0.11      0.00
   19   17    3      2.23      0.00
   21   17    3      1.52      0.00
   23   17    3     -2.34      0.00
  -24   18    3     -2.20      0.00
  -22   18    3     -1.78      0.00
  -20   18    3      1.78      0.00
  -18   18    3     -2.13      0.00
  -16   18    3     -2.33      0.00
  -14   18    3     -5.87      0.00
  -12   18    3      0.50      0.00
  -10   18    3     -4.27      0.00
   -8   18    3     -3.68      0.00
   -6   18    3     -4.27      0.00
   -4   18    3     -4.72      0.00
   -2   18    3      2.04      0.00
    0   18    3     -2.54      0.00
    2   18    3     -0.36      0.00
    4   18    3      0.35      0.00
    6   18    3      0.07      0.00
    8   18    3     -1.81      0.00
   10   18    3     -5.04      0.00
   12   18    3      2.36      0.00
   14   18    3      3.39      0.00
   16   18    3     -2.88      0.00
   18   18    3      3.21      0.00
   20   18    3      0.06      0.00
   22   18    3      0.46      0.00
  -21   19    3     -1.80      0.00
  -19   19    3      3.62      0.00
  -17   19    3     -1.43      0.00
  -15   19    3      3.81      0.00
  -13   19    3     -0.15      0.00
  -11   19    3     -2.46      0.00
   -9   19    3     -2.48      0.00
   -7   19    3      0.32      0.00
   -5   19    3      1.59      0.00
   -3   19    3      3.15      0.00
   -1   19    3     -2.96      0.00
    1   19    3      1.38      0.00
    3   19    3      1.28      0.00
    5   19    3      3.46      0.00
    7   19    3      5.30      0.00
    9   19    3      0.49      0.00
   11   19    3     -1.69      0.00
   13   19    3     -6.38      0.00
   15   19    3     -4.13      0.00
   17   19    3     -1.91      0.00
   19   19    3     -1.90      0.00
  -18   20    3      2.71      0.00
  -16   20    3      1.10      0.00
  -14   20    3      2.70      0.00
  -12   20    3      2.33      0.00
  -10   20    3      0.43      0.00
   -8   20    3      1.15      0.00
   -6   20    3      0.10      0.00
   -4   20    3     -1.17      0.00
   -2   20    3      1.18      0.00
    0   20    3     -1.40      0.00
    2   20    3     -0.01      0.00
    4   20    3      0.53      0.00
    6   20    3      4.64      0.00
    8   20    3     -5.88      0.00
   10   20    3     -2.27      0.00
   12   20    3     -0.32      0.00
   14   20    3     -4.87      0.00
   16   20    3     -1.83      0.00
  -13   21    3      0.39      0.00
  -11   21    3      4.93      0.00
   -9   21    3     -0.36      0.00
   -7   21    3      0.15      0.00
   -5   21    3     -3.15      0.00
   -3   21    3      4.66      0.00
   -1   21    3     -2.03      0.00
    1   21    3      2.28      0.00
    3   21    3      2.71      0.00
    5   21    3     -1.79      0.00
    7   21    3      4.45      0.00
    9   21    3      2.05      0.00
   11   21    3      4.47      0.00
   -6   22    3      1.84      0.00
   -4   22    3     -2.24      0.00
   -2   22    3     -1.05      0.00
    0   22    3      3.09      0.00
    2   22    3      5.47      0.00
    4   22    3     -1.28      0.00
  -40    0    4      5.67      0.00
  -38    0    4     -0.70      0.00
  -36    0    4     -1.39      0.00
  -34    0    4      0.87      0.00
  -32    0    4      1.02      0.00
  -30    0    4     -3.12      0.00
  -28    0    4      3.31      0.00
  -26    0    4     -3.72      0.00
  -24    0    4     -2.20      0.00
  -22    0    4     10.50      0.00
  -20    0    4    -10.97      0.00
  -18    0    4     -9.41      0.00
  -16    0    4      7.83      0.00
  -14    0    4    -55.79      0.00
  -12    0    4    -51.58      0.00
  -10    0    4    -38.68      0.00
   -8    0    4   -163.63      0.00
   -6    0    4     19.43      0.00
   -2    0    4     18.80      0.00
    0    0    4    127.97      0.00
    2    0    4     46.71      0.00
    4    0    4     87.69      0.00
    6    0    4     42.06      0.00
    8    0    4    -33.11      0.00
   10    0    4    -37.60      0.00
   12    0    4    -15.89      0.00
   14    0    4      7.72      0.00
   16    0    4     -6.42      0.00
   18    0    4      2.15      0.00
   20    0    4     -1.40      0.00
   22    0    4     -0.89      0.00
   24    0    4      0.18      0.00
   26    0    4     -1.94      0.00
   28    0    4      5.60      0.00
   30    0    4      1.19      0.00
   32    0    4     -1.05      0.00
   34    0    4      2.12      0.00
   36    0    4      1.16      0.00
  -39    1    4      0.10      0.00
  -37    1    4     -0.54      0.00
  -35    1    4     -1.34      0.00
  -33    1    4     -0.82      0.00
  -31    1    4      2.02      0.00
  -29    1    4     -2.94      0.00
  -27    1    4     -0.97      0.00
  -25    1    4      2.76      0.00
  -23    1    4      0.39      0.00
  -21    1    4      6.11      0.00
  -19    1    4      2.55      0.00
  -17    1    4     -2.87      0.00
  -15    1    4     -2.51      0.00
  -13    1    4     23.31      0.00
  -11    1    4    -13.08      0.00
   -9    1    4    -17.77      0.00
   -7    1    4     35.59      0.00
   -5    1    4    -49.34      0.00
   -3    1    4     14.57      0.00
   -1    1    4     -7.05      0.00
    1    1    4    128.13      0.00
    3    1    4    -56.35      0.00
    5    1    4      5.27      0.00
    7    1    4      7.12      0.00
    9    1    4     13.14      0.00
   11    1    4     18.27      0.00
   13    1    4    -10.31      0.00
   15    1    4     -2.82      0.00
   17    1    4     -2.10      0.00
   19    1    4      8.07      0.00
   21    1    4      5.86      0.00
   23    1    4      7.34      0.00
   25    1    4      5.08      0.00
   27    1    4      1.60      0.00
   29    1    4      0.12      0.00
   31    1    4     -0.07      0.00
   33    1    4      0.22      0.00
   35    1    4     -2.33      0.00
   37    1    4     -0.92      0.00
  -40    2    4     -0.85      0.00
  -38    2    4      2.34      0.00
  -36    2    4      1.63      0.00
  -34    2    4      1.35      0.00
  -32    2    4      0.02      0.00
  -30    2    4      0.42      0.00
  -28    2    4      4.11      0.00
  -26    2    4     -1.75      0.00
  -24    2    4      1.54      0.00
  -22    2    4     -5.54      0.00
  -20    2    4     -7.61      0.00
  -18    2    4     -9.97      0.00
  -16    2    4      3.64      0.00
  -14    2    4    -23.14      0.00
  -12    2    4    -18.42      0.00
  -10    2    4    -22.85      0.00
   -8    2    4     29.48      0.00
   -6    2    4     38.09      0.00
   -4    2    4     39.36      0.00
   -2    2    4   -123.87      0.00
    0    2    4   -172.71      0.00
    2    2    4     97.46      0.00
    4    2    4     64.95      0.00
    6    2    4     39.98      0.00
    8    2    4     13.41      0.00
   10    2    4    -19.98      0.00
   12    2    4     -1.96      0.00
   14    2    4      6.02      0.00
   16    2    4     -1.42      0.00
   18    2    4     -4.95      0.00
   20    2    4     -1.95      0.00
   22    2    4     -0.29      0.00
   24    2    4     -3.38      0.00
   26    2    4      2.65      0.00
   28    2    4     -1.22      0.00
   30    2    4      1.34      0.00
   32    2    4     -4.05      0.00
   34    2    4     -0.91      0.00
   36    2    4     -0.29      0.00
  -39    3    4      1.72      0.00
  -37    3    4      1.93      0.00
  -35    3    4      1.76      0.00
  -33    3    4      3.31      0.00
  -31    3    4     -0.84      0.00
  -29    3    4     -4.27      0.00
  -27    3    4      0.88      0.00
  -25    3    4     -0.15      0.00
  -23    3    4      5.68      0.00
  -21    3    4      7.42      0.00
  -19    3    4     -4.55      0.00
  -17    3    4      8.97      0.00
  -15    3    4     -3.94      0.00
  -13    3    4     -2.66      0.00
  -11    3    4      4.73      0.00
   -9    3    4    -58.96      0.00
   -7    3    4     34.28      0.00
   -5    3    4    111.32      0.00
   -3    3    4    218.47      0.00
   -1    3    4    -45.40      0.00
    1    3    4     28.41      0.00
    3    3    4   -158.19      0.00
    5    3    4     40.47      0.00
    7    3    4     -3.69      0.00
    9    3    4    -12.50      0.00
   11    3    4     15.56      0.00
   13    3    4      4.41      0.00
   15    3    4    -10.14      0.00
   17    3    4    -10.03      0.00
   19    3    4     -1.41      0.00
   21    3    4     -1.09      0.00
   23    3    4      2.76      0.00
   25    3    4     -1.32      0.00
   27    3    4     -1.52      0.00
   29    3    4     -1.37      0.00
   31    3    4     -1.26      0.00
   33    3    4      3.30      0.00
   35    3    4     -1.40      0.00
   37    3    4      2.65      0.00
  -38    4    4      3.03      0.00
  -36    4    4      3.51      0.00
  -34    4    4      1.26      0.00
  -32    4    4      0.16      0.00
  -30    4    4      1.47      0.00
  -28    4    4     -0.76      0.00
  -26    4    4      0.62      0.00
  -24    4    4      4.24      0.00
  -22    4    4      5.36      0.00
  -20    4    4      9.52      0.00
  -18    4    4      3.69      0.00
  -16    4    4     -3.55      0.00
  -14    4    4      2.25      0.00
  -12    4    4    -30.64      0.00
  -10    4    4     37.20      0.00
   -8    4    4     48.96      0.00
   -6    4    4    117.90      0.00
   -4    4    4      9.82      0.00
   -2    4    4   -155.49      0.00
    0    4    4     40.12      0.00
    2    4    4     60.89      0.00
    4    4    4     53.00      0.00
    6    4    4    -24.02      0.00
    8    4    4     15.02      0.00
   10    4    4      4.26      0.00
   12    4    4    -15.91      0.00
   14    4    4      7.75      0.00
   16    4    4      4.31      0.00
   18    4    4      0.49      0.00
   20    4    4     -2.75      0.00
   22    4    4      3.98      0.00
   24    4    4     -1.43      0.00
   26    4    4     -0.86      0.00
   28    4    4     -1.83      0.00
   30    4    4      0.04      0.00
   32    4    4     -0.92      0.00
   34    4    4     -0.67      0.00
   36    4    4      1.07      0.00
  -39    5    4     -1.77      0.00
  -37    5    4     -0.02      0.00
  -35    5    4      0.16      0.00
  -33    5    4     -1.18      0.00
  -31    5    4      0.76      0.00
  -29    5    4      3.49      0.00
  -27    5    4      0.43      0.00
  -25    5    4      3.44      0.00
  -23    5    4      2.66      0.00
  -21    5    4     -2.23      0.00
  -19    5    4    -14.61      0.00
  -17    5    4     -6.50      0.00
  -15    5    4    -10.74      0.00
  -13    5    4     -5.36      0.00
  -11    5    4     16.37      0.00
   -9    5    4     43.18      0.00
   -7    5    4     -3.59      0.00
   -5    5    4     -9.09      0.00
   -3    5    4      5.77      0.00
   -1    5    4    -38.93      0.00
    1    5    4    -32.50      0.00
    3    5    4      9.03      0.00
    5    5    4      5.44      0.00
    7    5    4     19.43      0.00
    9    5    4     -7.03      0.00
   11    5    4     13.69      0.00
   13    5    4      5.88      0.00
   15    5    4    -14.42      0.00
   17    5    4     -7.22      0.00
   19    5    4      1.19      0.00
   21    5    4     -3.63      0.00
   23    5    4     -0.28      0.00
   25    5    4     -0.50      0.00
   27    5    4     -3.04      0.00
   29    5    4     -2.44      0.00
   31    5    4     -3.46      0.00
   33    5    4     -1.98      0.00
   35    5    4      0.56      0.00
  -38    6    4      0.83      0.00
  -36    6    4      0.78      0.00
  -34    6    4     -0.32      0.00
  -32    6    4     -1.20      0.00
  -30    6    4     -6.27      0.00
  -28    6    4     -0.32      0.00
  -26    6    4     -1.01      0.00
  -24    6    4      3.65      0.00
  -22    6    4     -3.50      0.00
  -20    6    4     12.52      0.00
  -18    6    4      6.18      0.00
  -16    6    4      1.84      0.00
  -14    6    4     -4.47      0.00
  -12    6    4     33.35      0.00
  -10    6    4    -11.39      0.00
   -8    6    4     16.47      0.00
   -6    6    4    -15.26      0.00
   -4    6    4    -51.70      0.00
   -2    6    4    -39.81      0.00
    0    6    4      4.73      0.00
    2    6    4    -15.12      0.00
    4    6    4    -16.80      0.00
    6    6    4     21.83      0.00
    8    6    4     -4.77      0.00
   10    6    4     13.12      0.00
   12    6    4     -3.60      0.00
   14    6    4    -12.47      0.00
   16    6    4      6.58      0.00
   18    6    4      4.86      0.00
   20    6    4      1.16      0.00
   22    6    4      7.02      0.00
   24    6    4     -3.61      0.00
   26    6    4     -1.80      0.00
   28    6    4      0.26      0.00
   30    6    4     -0.10      0.00
   32    6    4      1.18      0.00
   34    6    4     -3.45      0.00
   36    6    4      0.67      0.00
  -37    7    4     -1.44      0.00
  -35    7    4      0.67      0.00
  -33    7    4     -3.13      0.00
  -31    7    4      0.35      0.00
  -29    7    4     -4.24      0.00
  -27    7    4     -1.88      0.00
  -25    7    4      4.43      0.00
  -23    7    4      4.33      0.00
  -21    7    4      4.37      0.00
  -19    7    4     -0.47      0.00
  -17    7    4    -11.43      0.00
  -15    7    4     -5.22      0.00
  -13    7    4    -11.77      0.00
  -11    7    4     -2.93      0.00
   -9    7    4     20.46      0.00
   -7    7    4     11.29      0.00
   -5    7    4     21.90      0.00
   -3    7    4     19.28      0.00
   -1    7    4      5.25      0.00
    1    7    4     27.82      0.00
    3    7    4    -12.75      0.00
    5    7    4     -7.25      0.00
    7    7    4    -29.22      0.00
    9    7    4     30.91      0.00
   11    7    4     -2.83      0.00
   13    7    4     10.98      0.00
   15    7    4      0.17      0.00
   17    7    4     -6.24      0.00
   19    7    4     -7.51      0.00
   21    7    4      1.13      0.00
   23    7    4     -2.71      0.00
   25    7    4      0.91      0.00
   27    7    4      1.27      0.00
   29    7    4      1.13      0.00
   31    7    4      0.81      0.00
   33    7    4     -1.38      0.00
   35    7    4      0.80      0.00
  -36    8    4      2.11      0.00
  -34    8    4     -1.06      0.00
  -32    8    4      0.07      0.00
  -30    8    4     -2.98      0.00
  -28    8    4     -3.03      0.00
  -26    8    4     -2.15      0.00
  -24    8    4      0.25      0.00
  -22    8    4     -0.29      0.00
  -20    8    4      1.11      0.00
  -18    8    4     -2.78      0.00
  -16    8    4     -7.44      0.00
  -14    8    4      7.19      0.00
  -12    8    4      6.85      0.00
  -10    8    4     23.48      0.00
   -8    8    4      8.79      0.00
   -6    8    4    -31.17      0.00
   -4    8    4    -22.41      0.00
   -2    8    4     -2.81      0.00
    0    8    4     -1.25      0.00
    2    8    4    -17.17      0.00
    4    8    4      6.47      0.00
    6    8    4      6.85      0.00
    8    8    4      3.07      0.00
   10    8    4    -15.85      0.00
   12    8    4      6.12      0.00
   14    8    4     -1.28      0.00
   16    8    4     -2.52      0.00
   18    8    4      3.56      0.00
   20    8    4      0.04      0.00
   22    8    4     -0.12      0.00
   24    8    4     -1.13      0.00
   26    8    4      5.58      0.00
   28    8    4      2.44      0.00
   30    8    4      1.31      0.00
   32    8    4     -1.18      0.00
   34    8    4     -0.85      0.00
  -35    9    4     -0.37      0.00
  -33    9    4      1.14      0.00
  -31    9    4     -1.03      0.00
  -29    9    4      2.49      0.00
  -27    9    4     -2.44      0.00
  -25    9    4      2.49      0.00
  -23    9    4     -2.65      0.00
  -21    9    4     -2.45      0.00
  -19    9    4     -2.66      0.00
  -17    9    4     -4.57      0.00
  -15    9    4     -2.41      0.00
  -13    9    4     11.75      0.00
  -11    9    4      6.30      0.00
   -9    9    4    -27.48      0.00
   -7    9    4      8.35      0.00
   -5    9    4     12.47      0.00
   -3    9    4      8.49      0.00
   -1    9    4    -13.64      0.00
    1    9    4    -17.30      0.00
    3    9    4    -11.82      0.00
    5    9    4     -8.91      0.00
    7    9    4      2.18      0.00
    9    9    4     11.39      0.00
   11    9    4      4.62      0.00
   13    9    4     -4.55      0.00
   15    9    4      5.03      0.00
   17    9    4     -1.04      0.00
   19    9    4     -5.69      0.00
   21    9    4      2.52      0.00
   23    9    4     -0.74      0.00
   25    9    4      1.75      0.00
   27    9    4     -0.86      0.00
   29    9    4      1.02      0.00
   31    9    4      1.03      0.00
   33    9    4      0.98      0.00
  -36   10    4      0.96      0.00
  -34   10    4     -2.66      0.00
  -32   10    4     -0.21      0.00
  -30   10    4      1.17      0.00
  -28   10    4     -0.71      0.00
  -26   10    4     -3.39      0.00
  -24   10    4     -3.81      0.00
  -22   10    4     -1.49      0.00
  -20   10    4      3.21      0.00
  -18   10    4     -2.95      0.00
  -16   10    4     -2.50      0.00
  -14   10    4      1.90      0.00
  -12   10    4     -7.20      0.00
  -10   10    4     -2.02      0.00
   -8   10    4     14.48      0.00
   -6   10    4    -16.84      0.00
   -4   10    4    -13.76      0.00
   -2   10    4    -11.13      0.00
    0   10    4      4.23      0.00
    2   10    4      0.84      0.00
    4   10    4     12.73      0.00
    6   10    4     -6.58      0.00
    8   10    4     -8.73      0.00
   10   10    4      4.91      0.00
   12   10    4     -6.16      0.00
   14   10    4      1.33      0.00
   16   10    4      0.86      0.00
   18   10    4      2.19      0.00
   20   10    4     -0.47      0.00
   22   10    4      1.28      0.00
   24   10    4      1.63      0.00
   26   10    4      1.70      0.00
   28   10    4      0.69      0.00
   30   10    4      0.65      0.00
   32   10    4      0.49      0.00
  -35   11    4     -2.57      0.00
  -33   11    4      0.31      0.00
  -31   11    4     -0.08      0.00
  -29   11    4    -10.05      0.00
  -27   11    4     -1.26      0.00
  -25   11    4      2.71      0.00
  -23   11    4     -0.15      0.00
  -21   11    4     -3.50      0.00
  -19   11    4      0.10      0.00
  -17   11    4      4.65      0.00
  -15   11    4     -5.02      0.00
  -13   11    4     -0.54      0.00
  -11   11    4     -6.89      0.00
   -9   11    4    -10.34      0.00
   -7   11    4     -5.40      0.00
   -5   11    4      3.59      0.00
   -3   11    4      2.09      0.00
   -1   11    4    -10.40      0.00
    1   11    4    -12.12      0.00
    3   11    4     -4.40      0.00
    5   11    4     11.98      0.00
    7   11    4     -0.24      0.00
    9   11    4      6.08      0.00
   11   11    4     -3.10      0.00
   13   11    4      5.03      0.00
   15   11    4      1.80      0.00
   17   11    4     -1.88      0.00
   19   11    4      2.78      0.00
   21   11    4      2.73      0.00
   23   11    4      1.44      0.00
   25   11    4      0.30      0.00
   27   11    4      0.87      0.00
   29   11    4      2.27      0.00
   31   11    4      1.42      0.00
  -34   12    4     -1.53      0.00
  -32   12    4     -5.44      0.00
  -30   12    4      1.58      0.00
  -28   12    4      0.96      0.00
  -26   12    4      0.90      0.00
  -24   12    4     -0.73      0.00
  -22   12    4     -2.66      0.00
  -20   12    4     -1.49      0.00
  -18   12    4     -5.82      0.00
  -16   12    4     -2.09      0.00
  -14   12    4     -1.00      0.00
  -12   12    4      7.25      0.00
  -10   12    4     -3.25      0.00
   -8   12    4      8.11      0.00
   -6   12    4      5.08      0.00
   -4   12    4     -4.40      0.00
   -2   12    4      3.39      0.00
    0   12    4     -1.14      0.00
    2   12    4      3.15      0.00
    4   12    4      3.62      0.00
    6   12    4      4.49      0.00
    8   12    4      1.66      0.00
   10   12    4      0.10      0.00
   12   12    4      1.12      0.00
   14   12    4      0.71      0.00
   16   12    4      2.62      0.00
   18   12    4      2.21      0.00
   20   12    4      0.92      0.00
   22   12    4      5.66      0.00
   24   12    4     -5.48      0.00
   26   12    4     -0.39      0.00
   28   12    4     -1.78      0.00
   30   12    4     -1.50      0.00
  -31   13    4      0.88      0.00
  -29   13    4     -0.83      0.00
  -27   13    4     -2.67      0.00
  -25   13    4      2.08      0.00
  -23   13    4      2.96      0.00
  -21   13    4      2.38      0.00
  -19   13    4     -1.90      0.00
  -17   13    4     -2.01      0.00
  -15   13    4      3.54      0.00
  -13   13    4     -8.42      0.00
  -11   13    4     -9.13      0.00
   -9   13    4      1.34      0.00
   -7   13    4     -0.67      0.00
   -5   13    4     -9.74      0.00
   -3   13    4     -4.04      0.00
   -1   13    4     -5.88      0.00
    1   13    4     -1.85      0.00
    3   13    4     -8.82      0.00
    5   13    4     -5.63      0.00
    7   13    4     -5.47      0.00
    9   13    4      0.49      0.00
   11   13    4      2.70      0.00
   13   13    4     -1.73      0.00
   15   13    4      2.27      0.00
   17   13    4     -3.06      0.00
   19   13    4      6.80      0.00
   21   13    4      7.26      0.00
   23   13    4      2.03      0.00
   25   13    4     -2.17      0.00
   27   13    4     -4.02      0.00
   29   13    4     -0.48      0.00
  -30   14    4      1.31      0.00
  -28   14    4      0.03      0.00
  -26   14    4     -2.52      0.00
  -24   14    4     -1.28      0.00
  -22   14    4     -3.52      0.00
  -20   14    4     -1.75      0.00
  -18   14    4     -1.93      0.00
  -16   14    4     -7.24      0.00
  -14   14    4      1.17      0.00
  -12   14    4     -0.78      0.00
  -10   14    4     -5.75      0.00
   -8   14    4      1.63      0.00
   -6   14    4      1.40      0.00
   -4   14    4      9.76      0.00
   -2   14    4      4.72      0.00
    0   14    4      1.17      0.00
    2   14    4     11.66      0.00
    4   14    4      3.38      0.00
    6   14    4      4.98      0.00
    8   14    4     -6.97      0.00
   10   14    4      0.76      0.00
   12   14    4     -4.68      0.00
   14   14    4     -0.84      0.00
   16   14    4      4.05      0.00
   18   14    4      0.20      0.00
   20   14    4      4.64      0.00
   22   14    4      0.36      0.00
   24   14    4      3.62      0.00
   26   14    4      0.09      0.00
   28   14    4     -0.40      0.00
  -29   15    4      0.26      0.00
  -27   15    4     -1.75      0.00
  -25   15    4      0.30      0.00
  -23   15    4      2.24      0.00
  -21   15    4      3.43      0.00
  -19   15    4     -4.85      0.00
  -17   15    4      1.01      0.00
  -15   15    4      2.21      0.00
  -13   15    4     -1.09      0.00
  -11   15    4      2.57      0.00
   -9   15    4      0.35      0.00
   -7   15    4     -0.31      0.00
   -5   15    4     -1.21      0.00
   -3   15    4      8.82      0.00
   -1   15    4      2.12      0.00
    1   15    4     -2.26      0.00
    3   15    4     -2.30      0.00
    5   15    4     -4.56      0.00
    7   15    4      0.65      0.00
    9   15    4      5.25      0.00
   11   15    4     -0.90      0.00
   13   15    4      1.30      0.00
   15   15    4     -0.64      0.00
   17   15    4      0.89      0.00
   19   15    4     -1.51      0.00
   21   15    4      2.48      0.00
   23   15    4     -0.63      0.00
   25   15    4      1.95      0.00
   27   15    4     -2.07      0.00
  -28   16    4     -0.88      0.00
  -26   16    4     -0.81      0.00
  -24   16    4     -1.54      0.00
  -22   16    4     -7.36      0.00
  -20   16    4     -4.00      0.00
  -18   16    4     -4.12      0.00
  -16   16    4     -2.13      0.00
  -14   16    4     -5.50      0.00
  -12   16    4      2.87      0.00
  -10   16    4     -1.29      0.00
   -8   16    4     -3.45      0.00
   -6   16    4      0.71      0.00
   -4   16    4      1.50      0.00
   -2   16    4     -1.68      0.00
    0   16    4     -1.24      0.00
    2   16    4      3.99      0.00
    4   16    4      5.21      0.00
    6   16    4     -1.49      0.00
    8   16    4     -4.92      0.00
   10   16    4      3.12      0.00
   12   16    4      2.34      0.00
   14   16    4     -1.01      0.00
   16   16    4      1.45      0.00
   18   16    4     -0.68      0.00
   20   16    4     -1.16      0.00
   22   16    4     -1.35      0.00
   24   16    4     -0.12      0.00
  -25   17    4      1.44      0.00
  -23   17    4     -0.28      0.00
  -21   17    4      1.91      0.00
  -19   17    4      3.39      0.00
  -17   17    4     -1.32      0.00
  -15   17    4      1.79      0.00
  -13   17    4      5.77      0.00
  -11   17    4     -1.83      0.00
   -9   17    4      1.50      0.00
   -7   17    4      3.13      0.00
   -5   17    4      1.82      0.00
   -3   17    4      4.42      0.00
   -1   17    4      2.17      0.00
    1   17    4      2.94      0.00
    3   17    4     -2.82      0.00
    5   17    4      0.76      0.00
    7   17    4      2.51      0.00
    9   17    4     -2.21      0.00
   11   17    4      3.93      0.00
   13   17    4     -0.62      0.00
   15   17    4      7.46      0.00
   17   17    4      3.92      0.00
   19   17    4      1.75      0.00
   21   17    4      0.57      0.00
   23   17    4      0.27      0.00
  -24   18    4     -3.18      0.00
  -22   18    4      0.45      0.00
  -20   18    4      1.58      0.00
  -18   18    4      1.39      0.00
  -16   18    4      2.95      0.00
  -14   18    4     -4.44      0.00
  -12   18    4      1.59      0.00
  -10   18    4     -5.02      0.00
   -8   18    4     -1.51      0.00
   -6   18    4      4.04      0.00
   -4   18    4     -0.42      0.00
   -2   18    4      1.60      0.00
    0   18    4      1.32      0.00
    2   18    4      4.15      0.00
    4   18    4      2.72      0.00
    6   18    4      4.13      0.00
    8   18    4     -0.31      0.00
   10   18    4     -2.10      0.00
   12   18    4     -7.73      0.00
   14   18    4     -1.48      0.00
   16   18    4      1.11      0.00
   18   18    4     -0.05      0.00
   20   18    4      0.98      0.00
  -21   19    4     -1.42      0.00
  -19   19    4      3.45      0.00
  -17   19    4     -1.84      0.00
  -15   19    4     -1.01      0.00
  -13   19    4      0.33      0.00
  -11   19    4      2.37      0.00
   -9   19    4      7.63      0.00
   -7   19    4      1.08      0.00
   -5   19    4      5.62      0.00
   -3   19    4      4.97      0.00
   -1   19    4      0.74      0.00
    1   19    4      0.25      0.00
    3   19    4     -1.66      0.00
    5   19    4      2.44      0.00
    7   19    4      0.51      0.00
    9   19    4     -1.98      0.00
   11   19    4      2.71      0.00
   13   19    4     -3.43      0.00
   15   19    4     -0.85      0.00
   17   19    4      2.75      0.00
  -18   20    4     -0.08      0.00
  -16   20    4      0.14      0.00
  -14   20    4     -2.33      0.00
  -12   20    4      4.38      0.00
  -10   20    4     -0.30      0.00
   -8   20    4      3.66      0.00
   -6   20    4      0.00      0.00
   -4   20    4     -2.02      0.00
   -2   20    4      1.60      0.00
    0   20    4      6.47      0.00
    2   20    4      4.18      0.00
    4   20    4      1.61      0.00
    6   20    4      3.90      0.00
    8   20    4      0.26      0.00
   10   20    4      1.23      0.00
   12   20    4      0.23      0.00
   14   20    4      2.89      0.00
  -13   21    4     -1.71      0.00
  -11   21    4     -1.02      0.00
   -9   21    4      2.46      0.00
   -7   21    4      1.12      0.00
   -5   21    4      0.64      0.00
   -3   21    4      2.90      0.00
   -1   21    4      3.68      0.00
    1   21    4      1.08      0.00
    3   21    4     -4.29      0.00
    5   21    4     -2.47      0.00
    7   21    4      3.47      0.00
    9   21    4      0.34      0.00
   11   21    4      0.66      0.00
   -6   22    4      2.35      0.00
   -4   22    4     -0.12      0.00
   -2   22    4      0.01      0.00
    0   22    4      2.27      0.00
    2   22    4      0.91      0.00
    4   22    4      4.45      0.00
  -39    1    5      0.00      0.00
  -37    1    5      1.44      0.00
  -35    1    5      1.47      0.00
  -33    1    5     -1.44      0.00
  -31    1    5     -2.49      0.00
  -29    1    5      2.17      0.00
  -27    1    5     -1.81      0.00
  -25    1    5      4.04      0.00
  -23    1    5     -2.05      0.00
  -21    1    5      0.49      0.00
  -19    1    5      3.84      0.00
  -17    1    5    -11.16      0.00
  -15    1    5     -0.91      0.00
  -13    1    5      3.58      0.00
  -11    1    5     14.16      0.00
   -9    1    5     33.48      0.00
   -7    1    5     89.46      0.00
   -5    1    5   -106.84      0.00
   -3    1    5    -22.74      0.00
   -1    1    5    -88.49      0.00
    1    1    5    -12.05      0.00
    3    1    5     84.46      0.00
    5    1    5    -21.88      0.00
    7    1    5      5.97      0.00
    9    1    5     -0.77      0.00
   11    1    5      4.08      0.00
   13    1    5     -4.33      0.00
   15    1    5     -1.35      0.00
   17    1    5     -2.89      0.00
   19    1    5     -4.51      0.00
   21    1    5      0.06      0.00
   23    1    5     -0.89      0.00
   25    1    5      2.55      0.00
   27    1    5     -2.82      0.00
   29    1    5      0.56      0.00
   31    1    5     -1.44      0.00
   33    1    5      0.50      0.00
   35    1    5      0.46      0.00
   37    1    5      0.55      0.00
  -40    2    5      0.04      0.00
  -38    2    5      1.90      0.00
  -36    2    5     -0.01      0.00
  -34    2    5      1.51      0.00
  -32    2    5      2.14      0.00
  -30    2    5     -3.93      0.00
  -28    2    5     -0.26      0.00
  -26    2    5     -0.60      0.00
  -24    2    5      0.99      0.00
  -22    2    5     -0.75      0.00
  -20    2    5     -2.00      0.00
  -18    2    5      8.05      0.00
  -16    2    5     13.26      0.00
  -14    2    5     -7.24      0.00
  -12    2    5    -10.99      0.00
  -10    2    5     31.57      0.00
   -8    2    5    -25.26      0.00
   -6    2    5    -24.68      0.00
   -4    2    5    -27.22      0.00
   -2    2    5   -111.36      0.00
    0    2    5    102.56      0.00
    2    2    5     -7.48      0.00
    4    2    5    -30.86      0.00
    6    2    5     21.77      0.00
    8    2    5    -18.30      0.00
   10    2    5      0.29      0.00
   12    2    5     -0.24      0.00
   14    2    5    -18.77      0.00
   16    2    5    -17.73      0.00
   18    2    5     -9.74      0.00
   20    2    5     -6.86      0.00
   22    2    5     -2.96      0.00
   24    2    5     -2.43      0.00
   26    2    5      2.86      0.00
   28    2    5      1.93      0.00
   30    2    5     -1.82      0.00
   32    2    5      0.18      0.00
   34    2    5     -0.44      0.00
   36    2    5      0.81      0.00
  -39    3    5     -1.26      0.00
  -37    3    5      1.17      0.00
  -35    3    5     -0.18      0.00
  -33    3    5     -1.11      0.00
  -31    3    5      2.00      0.00
  -29    3    5      0.25      0.00
  -27    3    5     -1.95      0.00
  -25    3    5     -1.78      0.00
  -23    3    5      0.96      0.00
  -21    3    5      1.17      0.00
  -19    3    5      8.60      0.00
  -17    3    5      3.77      0.00
  -15    3    5    -10.61      0.00
  -13    3    5     24.74      0.00
  -11    3    5     21.21      0.00
   -9    3    5    -16.54      0.00
   -7    3    5     -2.93      0.00
   -5    3    5    -28.81      0.00
   -3    3    5    -69.48      0.00
   -1    3    5     21.55      0.00
    1    3    5     -2.22      0.00
    3    3    5     21.73      0.00
    5    3    5     -7.09      0.00
    7    3    5      6.45      0.00
    9    3    5     17.81      0.00
   11    3    5      7.39      0.00
   13    3    5     -8.89      0.00
   15    3    5      4.08      0.00
   17    3    5     22.47      0.00
   19    3    5     -1.12      0.00
   21    3    5     -0.45      0.00
   23    3    5      2.07      0.00
   25    3    5     -4.00      0.00
   27    3    5     -1.41      0.00
   29    3    5      2.44      0.00
   31    3    5     -1.31      0.00
   33    3    5     -2.96      0.00
   35    3    5      1.17      0.00
  -38    4    5     -3.80      0.00
  -36    4    5     -3.22      0.00
  -34    4    5      0.47      0.00
  -32    4    5     -2.89      0.00
  -30    4    5     -0.37      0.00
  -28    4    5      0.83      0.00
  -26    4    5      0.40      0.00
  -24    4    5      1.84      0.00
  -22    4    5     -1.40      0.00
  -20    4    5     -0.11      0.00
  -18    4    5      6.07      0.00
  -16    4    5      7.44      0.00
  -14    4    5     -2.70      0.00
  -12    4    5     -2.03      0.00
  -10    4    5     26.51      0.00
   -8    4    5      6.18      0.00
   -6    4    5    -18.34      0.00
   -4    4    5   -179.35      0.00
   -2    4    5     28.66      0.00
    0    4    5     10.26      0.00
    2    4    5     53.91      0.00
    4    4    5      2.66      0.00
    6    4    5     17.30      0.00
    8    4    5     10.63      0.00
   10    4    5     -4.01      0.00
   12    4    5      3.17      0.00
   14    4    5    -19.44      0.00
   16    4    5     -7.49      0.00
   18    4    5     -6.36      0.00
   20    4    5     -4.54      0.00
   22    4    5     -0.76      0.00
   24    4    5      1.25      0.00
   26    4    5      4.25      0.00
   28    4    5      5.57      0.00
   30    4    5     -0.40      0.00
   32    4    5     -1.71      0.00
   34    4    5      2.03      0.00
   36    4    5     -0.49      0.00
  -39    5    5      1.63      0.00
  -37    5    5      1.34      0.00
  -35    5    5     -0.17      0.00
  -33    5    5      0.05      0.00
  -31    5    5     -0.54      0.00
  -29    5    5      0.64      0.00
  -27    5    5     -1.70      0.00
  -25    5    5      0.84      0.00
  -23    5    5     -1.18      0.00
  -21    5    5      1.53      0.00
  -19    5    5     -2.96      0.00
  -17    5    5     -4.07      0.00
  -15    5    5     -8.98      0.00
  -13    5    5      6.61      0.00
  -11    5    5      3.01      0.00
   -9    5    5     -7.75      0.00
   -7    5    5    -47.29      0.00
   -5    5    5    -25.33      0.00
   -3    5    5     18.15      0.00
   -1    5    5     59.01      0.00
    1    5    5    -28.24      0.00
    3    5    5    -39.03      0.00
    5    5    5     22.87      0.00
    7    5    5     16.91      0.00
    9    5    5     -4.04      0.00
   11    5    5     14.31      0.00
   13    5    5     -9.64      0.00
   15    5    5     -0.03      0.00
   17    5    5      4.69      0.00
   19    5    5     -1.22      0.00
   21    5    5     -1.03      0.00
   23    5    5     -0.32      0.00
   25    5    5     -3.04      0.00
   27    5    5     -5.74      0.00
   29    5    5     -1.32      0.00
   31    5    5      0.86      0.00
   33    5    5     -0.33      0.00
   35    5    5      0.81      0.00
  -38    6    5     -6.76      0.00
  -36    6    5     -2.56      0.00
  -34    6    5     -1.43      0.00
  -32    6    5      0.22      0.00
  -30    6    5     -8.05      0.00
  -28    6    5     -1.49      0.00
  -26    6    5     -3.87      0.00
  -24    6    5     -0.66      0.00
  -22    6    5      0.69      0.00
  -20    6    5      5.26      0.00
  -18    6    5      9.52      0.00
  -16    6    5     -0.94      0.00
  -14    6    5      7.29      0.00
  -12    6    5    -10.36      0.00
  -10    6    5    -20.55      0.00
   -8    6    5    -11.65      0.00
   -6    6    5    -43.00      0.00
   -4    6    5    -18.50      0.00
   -2    6    5    -18.35      0.00
    0    6    5     39.53      0.00
    2    6    5     20.17      0.00
    4    6    5     27.85      0.00
    6    6    5     -3.95      0.00
    8    6    5     11.96      0.00
   10    6    5     11.03      0.00
   12    6    5     -3.11      0.00
   14    6    5     -4.28      0.00
   16    6    5     -2.16      0.00
   18    6    5     -5.38      0.00
   20    6    5     -1.84      0.00
   22    6    5      4.42      0.00
   24    6    5      1.44      0.00
   26    6    5      1.67      0.00
   28    6    5      1.58      0.00
   30    6    5     -1.19      0.00
   32    6    5     -2.31      0.00
   34    6    5     -0.68      0.00
  -37    7    5      1.38      0.00
  -35    7    5     -0.21      0.00
  -33    7    5     -4.35      0.00
  -31    7    5      1.41      0.00
  -29    7    5     -1.25      0.00
  -27    7    5     -8.30      0.00
  -25    7    5      2.03      0.00
  -23    7    5      4.33      0.00
  -21    7    5      1.03      0.00
  -19    7    5     -5.81      0.00
  -17    7    5      1.01      0.00
  -15    7    5     -4.92      0.00
  -13    7    5    -18.12      0.00
  -11    7    5      1.78      0.00
   -9    7    5    -23.00      0.00
   -7    7    5     26.79      0.00
   -5    7    5     15.17      0.00
   -3    7    5    -11.78      0.00
   -1    7    5     -0.91      0.00
    1    7    5     -2.06      0.00
    3    7    5     -4.46      0.00
    5    7    5     19.68      0.00
    7    7    5     20.36      0.00
    9    7    5    -15.51      0.00
   11    7    5      0.62      0.00
   13    7    5      9.34      0.00
   15    7    5     -0.88      0.00
   17    7    5      1.25      0.00
   19    7    5     -4.08      0.00
   21    7    5     -2.50      0.00
   23    7    5     -1.43      0.00
   25    7    5      1.92      0.00
   27    7    5     -2.17      0.00
   29    7    5      3.90      0.00
   31    7    5     -2.01      0.00
   33    7    5     -0.03      0.00
   35    7    5     -2.80      0.00
  -36    8    5     -6.07      0.00
  -34    8    5      0.20      0.00
  -32    8    5      3.61      0.00
  -30    8    5      1.63      0.00
  -28    8    5      3.86      0.00
  -26    8    5     -0.55      0.00
  -24    8    5      0.20      0.00
  -22    8    5     -0.62      0.00
  -20    8    5     -2.96      0.00
  -18    8    5     -4.62      0.00
  -16    8    5     -5.82      0.00
  -14    8    5      4.78      0.00
  -12    8    5      7.83      0.00
  -10    8    5      5.30      0.00
   -8    8    5    -23.61      0.00
   -6    8    5    -20.69      0.00
   -4    8    5     -5.76      0.00
   -2    8    5      0.49      0.00
    0    8    5     -1.24      0.00
    2    8    5    -19.56      0.00
    4    8    5     -2.54      0.00
    6    8    5     -5.01      0.00
    8    8    5     14.51      0.00
   10    8    5     19.65      0.00
   12    8    5     -4.02      0.00
   14    8    5      4.81      0.00
   16    8    5      2.42      0.00
   18    8    5     -1.77      0.00
   20    8    5     -0.02      0.00
   22    8    5      0.58      0.00
   24    8    5      5.50      0.00
   26    8    5      0.60      0.00
   28    8    5      3.85      0.00
   30    8    5      2.28      0.00
   32    8    5      0.12      0.00
   34    8    5     -1.47      0.00
  -37    9    5      0.64      0.00
  -35    9    5      0.15      0.00
  -33    9    5     -2.36      0.00
  -31    9    5     -0.25      0.00
  -29    9    5      0.22      0.00
  -27    9    5     -2.14      0.00
  -25    9    5     -3.59      0.00
  -23    9    5     -2.76      0.00
  -21    9    5     -2.48      0.00
  -19    9    5     -3.71      0.00
  -17    9    5     -6.68      0.00
  -15    9    5     -7.35      0.00
  -13    9    5     -8.22      0.00
  -11    9    5    -22.07      0.00
   -9    9    5     -0.28      0.00
   -7    9    5     20.20      0.00
   -5    9    5     12.82      0.00
   -3    9    5    -16.82      0.00
   -1    9    5     -4.64      0.00
    1    9    5     16.60      0.00
    3    9    5     15.00      0.00
    5    9    5     14.72      0.00
    7    9    5    -11.95      0.00
    9    9    5      0.07      0.00
   11    9    5      1.71      0.00
   13    9    5     -1.49      0.00
   15    9    5      2.48      0.00
   17    9    5      2.59      0.00
   19    9    5      0.50      0.00
   21    9    5      0.20      0.00
   23    9    5      4.39      0.00
   25    9    5     -3.46      0.00
   27    9    5     -3.81      0.00
   29    9    5     -0.21      0.00
   31    9    5      0.16      0.00
   33    9    5      0.19      0.00
  -36   10    5     -2.06      0.00
  -34   10    5     -1.67      0.00
  -32   10    5     -1.81      0.00
  -30   10    5     -2.97      0.00
  -28   10    5     -0.75      0.00
  -26   10    5      5.52      0.00
  -24   10    5      1.30      0.00
  -22   10    5     -2.56      0.00
  -20   10    5      1.49      0.00
  -18   10    5      2.78      0.00
  -16   10    5     -2.58      0.00
  -14   10    5     -2.30      0.00
  -12   10    5      3.36      0.00
  -10   10    5     11.00      0.00
   -8   10    5     -4.53      0.00
   -6   10    5    -21.83      0.00
   -4   10    5     -3.22      0.00
   -2   10    5     -8.65      0.00
    0   10    5     17.28      0.00
    2   10    5    -18.19      0.00
    4   10    5      4.13      0.00
    6   10    5     -5.02      0.00
    8   10    5      2.43      0.00
   10   10    5      2.03      0.00
   12   10    5     -4.10      0.00
   14   10    5      4.73      0.00
   16   10    5     -1.64      0.00
   18   10    5      5.96      0.00
   20   10    5      2.53      0.00
   22   10    5      0.20      0.00
   24   10    5      0.12      0.00
   26   10    5     -0.71      0.00
   28   10    5      1.54      0.00
   30   10    5      0.32      0.00
   32   10    5      1.13      0.00
  -35   11    5      3.60      0.00
  -33   11    5      1.00      0.00
  -31   11    5     -0.10      0.00
  -29   11    5      0.71      0.00
  -27   11    5      0.04      0.00
  -25   11    5      3.66      0.00
  -23   11    5      4.70      0.00
  -21   11    5      2.77      0.00
  -19   11    5      2.49      0.00
  -17   11    5     -5.11      0.00
  -15   11    5    -11.25      0.00
  -13   11    5    -16.58      0.00
  -11   11    5     -0.41      0.00
   -9   11    5     -0.99      0.00
   -7   11    5      6.72      0.00
   -5   11    5      4.86      0.00
   -3   11    5     -0.73      0.00
   -1   11    5     -0.99      0.00
    1   11    5      7.00      0.00
    3   11    5      0.34      0.00
    5   11    5      9.02      0.00
    7   11    5      1.99      0.00
    9   11    5     -0.23      0.00
   11   11    5      2.80      0.00
   13   11    5      1.58      0.00
   15   11    5     -2.06      0.00
   17   11    5     -1.33      0.00
   19   11    5      0.05      0.00
   21   11    5      2.68      0.00
   23   11    5     -2.74      0.00
   25   11    5     -3.67      0.00
   27   11    5     -3.40      0.00
   29   11    5     -2.12      0.00
   31   11    5     -3.09      0.00
  -34   12    5      1.21      0.00
  -32   12    5      0.29      0.00
  -30   12    5      1.04      0.00
  -28   12    5      0.72      0.00
  -26   12    5     -1.67      0.00
  -24   12    5      0.92      0.00
  -22   12    5      6.68      0.00
  -20   12    5     -5.31      0.00
  -18   12    5     -6.30      0.00
  -16   12    5     -2.59      0.00
  -14   12    5      6.92      0.00
  -12   12    5      6.32      0.00
  -10   12    5      1.83      0.00
   -8   12    5      6.22      0.00
   -6   12    5     -3.36      0.00
   -4   12    5      5.28      0.00
   -2   12    5     -2.10      0.00
    0   12    5     10.77      0.00
    2   12    5     -6.36      0.00
    4   12    5      4.38      0.00
    6   12    5      0.15      0.00
    8   12    5     -4.33      0.00
   10   12    5      2.88      0.00
   12   12    5      2.95      0.00
   14   12    5      3.95      0.00
   16   12    5     -1.61      0.00
   18   12    5      4.55      0.00
   20   12    5      4.07      0.00
   22   12    5      2.98      0.00
   24   12    5     -2.52      0.00
   26   12    5     -3.65      0.00
   28   12    5     -2.59      0.00
   30   12    5      6.40      0.00
  -31   13    5     -0.33      0.00
  -29   13    5      1.76      0.00
  -27   13    5     -0.94      0.00
  -25   13    5      1.28      0.00
  -23   13    5     -3.26      0.00
  -21   13    5      2.20      0.00
  -19   13    5      3.64      0.00
  -17   13    5     -1.45      0.00
  -15   13    5      0.82      0.00
  -13   13    5     -8.25      0.00
  -11   13    5     -5.63      0.00
   -9   13    5      5.52      0.00
   -7   13    5     -8.00      0.00
   -5   13    5      1.90      0.00
   -3   13    5      1.15      0.00
   -1   13    5      3.16      0.00
    1   13    5      4.81      0.00
    3   13    5     -0.09      0.00
    5   13    5      7.26      0.00
    7   13    5     -1.17      0.00
    9   13    5      3.93      0.00
   11   13    5     -4.48      0.00
   13   13    5     -4.30      0.00
   15   13    5      3.38      0.00
   17   13    5     -0.29      0.00
   19   13    5      4.66      0.00
   21   13    5     -2.11      0.00
   23   13    5      8.50      0.00
   25   13    5     -3.65      0.00
   27   13    5     -3.66      0.00
   29   13    5     -2.74      0.00
  -30   14    5     -1.78      0.00
  -28   14    5     -1.83      0.00
  -26   14    5     -2.62      0.00
  -24   14    5     -1.95      0.00
  -22   14    5     -1.30      0.00
  -20   14    5      0.87      0.00
  -18   14    5     -3.94      0.00
  -16   14    5     -0.04      0.00
  -14   14    5      4.07      0.00
  -12   14    5     10.54      0.00
  -10   14    5     -1.29      0.00
   -8   14    5      1.44      0.00
   -6   14    5     -1.49      0.00
   -4   14    5      1.47      0.00
   -2   14    5     -4.21      0.00
    0   14    5     -0.27      0.00
    2   14    5      1.70      0.00
    4   14    5      4.06      0.00
    6   14    5      1.17      0.00
    8   14    5      8.21      0.00
   10   14    5     -6.45      0.00
   12   14    5      4.54      0.00
   14   14    5     -9.83      0.00
   16   14    5     -7.40      0.00
   18   14    5     -3.18      0.00
   20   14    5     -0.45      0.00
   22   14    5     -1.09      0.00
   24   14    5      2.35      0.00
   26   14    5     -1.57      0.00
   28   14    5     -0.34      0.00
  -29   15    5      1.50      0.00
  -27   15    5      1.44      0.00
  -25   15    5     -0.21      0.00
  -23   15    5      0.69      0.00
  -21   15    5      0.92      0.00
  -19   15    5      2.24      0.00
  -17   15    5      2.91      0.00
  -15   15    5     -0.78      0.00
  -13   15    5     -0.64      0.00
  -11   15    5     -2.25      0.00
   -9   15    5     -1.84      0.00
   -7   15    5     -3.00      0.00
   -5   15    5      0.32      0.00
   -3   15    5      0.42      0.00
   -1   15    5      2.12      0.00
    1   15    5     -4.97      0.00
    3   15    5     -0.06      0.00
    5   15    5      3.89      0.00
    7   15    5     -1.88      0.00
    9   15    5     -2.63      0.00
   11   15    5      3.45      0.00
   13   15    5     -0.27      0.00
   15   15    5     -1.62      0.00
   17   15    5     -6.86      0.00
   19   15    5     -2.90      0.00
   21   15    5      3.52      0.00
   23   15    5      2.35      0.00
   25   15    5      2.11      0.00
  -28   16    5      0.26      0.00
  -26   16    5      3.81      0.00
  -24   16    5     -2.40      0.00
  -22   16    5      2.99      0.00
  -20   16    5      8.15      0.00
  -18   16    5      1.09      0.00
  -16   16    5     -1.15      0.00
  -14   16    5      9.80      0.00
  -12   16    5      4.59      0.00
  -10   16    5      1.26      0.00
   -8   16    5      3.93      0.00
   -6   16    5     -0.84      0.00
   -4   16    5     -2.66      0.00
   -2   16    5      4.07      0.00
    0   16    5      3.34      0.00
    2   16    5      4.39      0.00
    4   16    5      7.68      0.00
    6   16    5      4.57      0.00
    8   16    5      1.16      0.00
   10   16    5      0.43      0.00
   12   16    5      2.97      0.00
   14   16    5      3.91      0.00
   16   16    5      2.63      0.00
   18   16    5      3.50      0.00
   20   16    5     -4.89      0.00
   22   16    5      0.27      0.00
   24   16    5     -0.10      0.00
  -25   17    5     -0.40      0.00
  -23   17    5      2.20      0.00
  -21   17    5     -0.66      0.00
  -19   17    5      1.82      0.00
  -17   17    5     -3.91      0.00
  -15   17    5     -1.67      0.00
  -13   17    5      2.71      0.00
  -11   17    5      2.89      0.00
   -9   17    5      1.39      0.00
   -7   17    5     -3.89      0.00
   -5   17    5     -8.16      0.00
   -3   17    5     -1.67      0.00
   -1   17    5     -2.91      0.00
    1   17    5     -2.14      0.00
    3   17    5      1.04      0.00
    5   17    5      5.53      0.00
    7   17    5      1.85      0.00
    9   17    5     -2.50      0.00
   11   17    5     -5.28      0.00
   13   17    5     -0.01      0.00
   15   17    5     -1.31      0.00
   17   17    5     -3.16      0.00
   19   17    5      2.34      0.00
   21   17    5      2.88      0.00
   23   17    5     -1.52      0.00
  -24   18    5      2.72      0.00
  -22   18    5      1.77      0.00
  -20   18    5     -3.75      0.00
  -18   18    5     -4.93      0.00
  -16   18    5     -7.18      0.00
  -14   18    5     -5.95      0.00
  -12   18    5     -1.68      0.00
  -10   18    5      1.74      0.00
   -8   18    5     -2.02      0.00
   -6   18    5      1.02      0.00
   -4   18    5      4.54      0.00
   -2   18    5      2.84      0.00
    0   18    5     -6.57      0.00
    2   18    5      1.58      0.00
    4   18    5     -0.53      0.00
    6   18    5      4.68      0.00
    8   18    5     -0.65      0.00
   10   18    5     -3.63      0.00
   12   18    5      3.79      0.00
   14   18    5     -0.80      0.00
   16   18    5      2.07      0.00
   18   18    5      1.50      0.00
   20   18    5     -2.21      0.00
  -21   19    5      2.10      0.00
  -19   19    5      5.04      0.00
  -17   19    5      0.70      0.00
  -15   19    5     -0.61      0.00
  -13   19    5     -0.04      0.00
  -11   19    5      2.43      0.00
   -9   19    5     -1.84      0.00
   -7   19    5      1.16      0.00
   -5   19    5     -3.19      0.00
   -3   19    5     -2.08      0.00
   -1   19    5     -0.01      0.00
    1   19    5     -1.88      0.00
    3   19    5     -0.45      0.00
    5   19    5     -3.81      0.00
    7   19    5      4.19      0.00
    9   19    5      1.38      0.00
   11   19    5      1.49      0.00
   13   19    5      1.28      0.00
   15   19    5      1.46      0.00
   17   19    5      0.41      0.00
  -18   20    5      0.70      0.00
  -16   20    5     -1.60      0.00
  -14   20    5      0.66      0.00
  -12   20    5     -1.10      0.00
  -10   20    5      1.12      0.00
   -8   20    5      1.87      0.00
   -6   20    5     -2.50      0.00
   -4   20    5     -2.92      0.00
   -2   20    5      5.97      0.00
    0   20    5     -1.70      0.00
    2   20    5      0.17      0.00
    4   20    5     -3.53      0.00
    6   20    5     -0.67      0.00
    8   20    5      0.01      0.00
   10   20    5     -3.91      0.00
   12   20    5     -0.45      0.00
   14   20    5      1.78      0.00
  -13   21    5     -0.07      0.00
  -11   21    5      2.92      0.00
   -9   21    5     -2.30      0.00
   -7   21    5     -2.78      0.00
   -5   21    5      2.28      0.00
   -3   21    5      2.12      0.00
   -1   21    5     -1.84      0.00
    1   21    5      1.64      0.00
    3   21    5      0.74      0.00
    5   21    5     -2.62      0.00
    7   21    5      8.60      0.00
    9   21    5      1.56      0.00
   -6   22    5     -3.59      0.00
   -4   22    5     -5.83      0.00
   -2   22    5     -4.94      0.00
    0   22    5     -2.70      0.00
    2   22    5      2.61      0.00
  -40    0    6      0.54      0.00
  -38    0    6      0.35      0.00
  -36    0    6      3.12      0.00
  -34    0    6     -0.47      0.00
  -32    0    6     -3.52      0.00
  -30    0    6     -0.72      0.00
  -28    0    6     -1.82      0.00
  -26    0    6      0.46      0.00
  -24    0    6      9.72      0.00
  -22    0    6      2.32      0.00
  -18    0    6      1.27      0.00
  -16    0    6      4.19      0.00
  -14    0    6      2.34      0.00
  -12    0    6      3.01      0.00
  -10    0    6    -31.93      0.00
   -8    0    6    -64.94      0.00
   -6    0    6    -11.32      0.00
   -4    0    6     65.55      0.00
   -2    0    6     72.67      0.00
    0    0    6    -11.31      0.00
    2    0    6     69.16      0.00
    4    0    6    -19.06      0.00
    6    0    6      1.68      0.00
    8    0    6    -16.07      0.00
   10    0    6     -9.45      0.00
   12    0    6      9.80      0.00
   14    0    6    -12.31      0.00
   16    0    6     -3.50      0.00
   18    0    6     -6.54      0.00
   20    0    6     -7.52      0.00
   22    0    6     -1.34      0.00
   24    0    6      4.92      0.00
   26    0    6      2.51      0.00
   28    0    6      1.45      0.00
   30    0    6      1.55      0.00
   32    0    6     -5.22      0.00
   34    0    6      0.70      0.00
   36    0    6      0.56      0.00
  -39    1    6      0.45      0.00
  -37    1    6      0.83      0.00
  -35    1    6     -1.61      0.00
  -33    1    6      3.08      0.00
  -31    1    6      2.74      0.00
  -29    1    6     -0.41      0.00
  -27    1    6      6.12      0.00
  -25    1    6     -4.30      0.00
  -23    1    6     -0.84      0.00
  -21    1    6      6.51      0.00
  -19    1    6    -12.17      0.00
  -17    1    6     -5.57      0.00
  -15    1    6    -10.16      0.00
  -13    1    6    -20.43      0.00
  -11    1    6     36.04      0.00
   -9    1    6     19.78      0.00
   -7    1    6    -30.02      0.00
   -5    1    6    -17.73      0.00
   -3    1    6    125.97      0.00
   -1    1    6     22.00      0.00
    1    1    6    140.34      0.00
    3    1    6    -18.22      0.00
    5    1    6     20.45      0.00
    7    1    6     15.07      0.00
    9    1    6    -11.26      0.00
   11    1    6    -32.00      0.00
   13    1    6    -12.99      0.00
   15    1    6      2.60      0.00
   17    1    6     -1.97      0.00
   19    1    6      6.07      0.00
   21    1    6      4.82      0.00
   23    1    6      3.03      0.00
   25    1    6      1.93      0.00
   27    1    6      2.16      0.00
   29    1    6     -1.22      0.00
   31    1    6      1.47      0.00
   33    1    6      1.99      0.00
   35    1    6      1.47      0.00
  -40    2    6     -1.51      0.00
  -38    2    6      0.38      0.00
  -36    2    6     -0.48      0.00
  -34    2    6     -0.87      0.00
  -32    2    6      1.57      0.00
  -30    2    6      0.24      0.00
  -28    2    6      0.92      0.00
  -26    2    6     -2.43      0.00
  -24    2    6     -2.06      0.00
  -22    2    6     -4.22      0.00
  -20    2    6     -2.02      0.00
  -18    2    6     -0.80      0.00
  -16    2    6     -1.09      0.00
  -14    2    6     12.87      0.00
  -12    2    6     24.17      0.00
  -10    2    6     -7.26      0.00
   -8    2    6    -89.58      0.00
   -6    2    6     -7.12      0.00
   -4    2    6    -84.00      0.00
   -2    2    6    -97.63      0.00
    0    2    6     11.17      0.00
    2    2    6     41.15      0.00
    4    2    6    -12.53      0.00
    6    2    6     39.14      0.00
    8    2    6      4.54      0.00
   10    2    6      3.25      0.00
   12    2    6      9.99      0.00
   14    2    6      0.44      0.00
   16    2    6     12.77      0.00
   18    2    6      1.03      0.00
   20    2    6     -2.74      0.00
   22    2    6      3.91      0.00
   24    2    6      2.49      0.00
   26    2    6      3.04      0.00
   28    2    6      4.93      0.00
   30    2    6     -1.05      0.00
   32    2    6     -4.26      0.00
   34    2    6     -1.37      0.00
   36    2    6     -2.68      0.00
  -39    3    6      0.44      0.00
  -37    3    6     -0.32      0.00
  -35    3    6      2.78      0.00
  -33    3    6     -0.34      0.00
  -31    3    6      0.28      0.00
  -29    3    6      0.52      0.00
  -27    3    6      0.12      0.00
  -25    3    6      1.54      0.00
  -23    3    6      4.53      0.00
  -21    3    6      2.29      0.00
  -19    3    6      0.75      0.00
  -17    3    6     -0.57      0.00
  -15    3    6      1.09      0.00
  -13    3    6      3.33      0.00
  -11    3    6    -21.38      0.00
   -9    3    6     -3.99      0.00
   -7    3    6     -1.01      0.00
   -5    3    6     25.93      0.00
   -3    3    6    200.51      0.00
   -1    3    6    -51.42      0.00
    1    3    6    -28.39      0.00
    3    3    6     18.30      0.00
    5    3    6     32.49      0.00
    7    3    6     -7.46      0.00
    9    3    6    -16.17      0.00
   11    3    6     -6.71      0.00
   13    3    6    -21.84      0.00
   15    3    6      3.64      0.00
   17    3    6      1.42      0.00
   19    3    6      0.90      0.00
   21    3    6     -3.25      0.00
   23    3    6     -0.56      0.00
   25    3    6      0.02      0.00
   27    3    6     -0.07      0.00
   29    3    6      0.19      0.00
   31    3    6      0.77      0.00
   33    3    6     -1.18      0.00
   35    3    6     -1.12      0.00
  -38    4    6     -0.05      0.00
  -36    4    6      1.55      0.00
  -34    4    6     -1.17      0.00
  -32    4    6     -1.33      0.00
  -30    4    6     -1.92      0.00
  -28    4    6      1.14      0.00
  -26    4    6     -2.51      0.00
  -24    4    6     -1.08      0.00
  -22    4    6      0.26      0.00
  -20    4    6      4.01      0.00
  -18    4    6     -6.89      0.00
  -16    4    6     23.43      0.00
  -14    4    6     -9.90      0.00
  -12    4    6     -8.92      0.00
  -10    4    6     17.07      0.00
   -8    4    6     -2.39      0.00
   -6    4    6    -19.99      0.00
   -4    4    6    -34.78      0.00
   -2    4    6     40.96      0.00
    0    4    6     30.65      0.00
    2    4    6     80.08      0.00
    4    4    6     -9.21      0.00
    6    4    6     14.44      0.00
    8    4    6      8.73      0.00
   10    4    6     -6.13      0.00
   12    4    6     19.77      0.00
   14    4    6     13.65      0.00
   16    4    6    -13.47      0.00
   18    4    6      0.92      0.00
   20    4    6      3.06      0.00
   22    4    6      3.40      0.00
   24    4    6     -0.11      0.00
   26    4    6      0.49      0.00
   28    4    6     -5.15      0.00
   30    4    6      0.13      0.00
   32    4    6      2.65      0.00
   34    4    6      0.78      0.00
  -39    5    6     -2.47      0.00
  -37    5    6     -0.73      0.00
  -35    5    6      0.16      0.00
  -33    5    6      4.04      0.00
  -31    5    6      2.59      0.00
  -29    5    6     -2.23      0.00
  -27    5    6     -2.19      0.00
  -25    5    6     -2.65      0.00
  -23    5    6     -3.63      0.00
  -21    5    6     -8.12      0.00
  -19    5    6     -1.48      0.00
  -17    5    6     -4.84      0.00
  -15    5    6     -5.62      0.00
  -13    5    6      0.40      0.00
  -11    5    6      0.67      0.00
   -9    5    6    -12.01      0.00
   -7    5    6     -8.59      0.00
   -5    5    6     63.36      0.00
   -3    5    6      1.98      0.00
   -1    5    6    -83.29      0.00
    1    5    6    -22.81      0.00
    3    5    6    -24.91      0.00
    5    5    6     46.11      0.00
    7    5    6    -19.05      0.00
    9    5    6      8.71      0.00
   11    5    6      2.73      0.00
   13    5    6    -14.08      0.00
   15    5    6     -5.12      0.00
   17    5    6      3.59      0.00
   19    5    6      1.67      0.00
   21    5    6      0.37      0.00
   23    5    6      0.67      0.00
   25    5    6     -3.51      0.00
   27    5    6     -3.79      0.00
   29    5    6     -3.52      0.00
   31    5    6     -1.30      0.00
   33    5    6     -2.64      0.00
   35    5    6     -0.71      0.00
  -38    6    6     -0.49      0.00
  -36    6    6      1.34      0.00
  -34    6    6      2.21      0.00
  -32    6    6     -0.30      0.00
  -30    6    6     -2.57      0.00
  -28    6    6     -7.19      0.00
  -26    6    6     -3.39      0.00
  -24    6    6      3.00      0.00
  -22    6    6     -1.22      0.00
  -20    6    6      0.70      0.00
  -18    6    6      7.39      0.00
  -16    6    6      7.06      0.00
  -14    6    6     12.12      0.00
  -12    6    6     -7.64      0.00
  -10    6    6     -4.46      0.00
   -8    6    6     15.25      0.00
   -6    6    6     -5.74      0.00
   -4    6    6     19.71      0.00
   -2    6    6     -7.15      0.00
    0    6    6     30.04      0.00
    2    6    6     22.20      0.00
    4    6    6      4.13      0.00
    6    6    6     -0.38      0.00
    8    6    6     13.36      0.00
   10    6    6     -5.81      0.00
   12    6    6      1.31      0.00
   14    6    6      6.59      0.00
   16    6    6     -2.53      0.00
   18    6    6     -3.33      0.00
   20    6    6      3.80      0.00
   22    6    6      3.40      0.00
   24    6    6      1.30      0.00
   26    6    6     -1.11      0.00
   28    6    6     -0.78      0.00
   30    6    6      0.34      0.00
   32    6    6      0.55      0.00
   34    6    6     -3.75      0.00
  -37    7    6     -2.10      0.00
  -35    7    6     -1.84      0.00
  -33    7    6     -2.45      0.00
  -31    7    6      3.33      0.00
  -29    7    6      1.35      0.00
  -27    7    6     -0.59      0.00
  -25    7    6     -0.95      0.00
  -23    7    6     -0.31      0.00
  -21    7    6     -3.06      0.00
  -19    7    6     -1.93      0.00
  -17    7    6      6.24      0.00
  -15    7    6      4.07      0.00
  -13    7    6     -3.21      0.00
  -11    7    6      0.39      0.00
   -9    7    6    -20.82      0.00
   -7    7    6     45.23      0.00
   -5    7    6      0.84      0.00
   -3    7    6     12.09      0.00
   -1    7    6    -16.24      0.00
    1    7    6      0.76      0.00
    3    7    6    -17.34      0.00
    5    7    6     -3.07      0.00
    7    7    6      0.10      0.00
    9    7    6      4.98      0.00
   11    7    6      4.29      0.00
   13    7    6      5.29      0.00
   15    7    6     -1.01      0.00
   17    7    6      2.68      0.00
   19    7    6      0.83      0.00
   21    7    6     -0.50      0.00
   23    7    6      7.09      0.00
   25    7    6      5.49      0.00
   27    7    6      2.53      0.00
   29    7    6     -0.28      0.00
   31    7    6     -0.40      0.00
   33    7    6      1.37      0.00
  -38    8    6      0.23      0.00
  -36    8    6      0.45      0.00
  -34    8    6      4.26      0.00
  -32    8    6     -0.98      0.00
  -30    8    6      1.10      0.00
  -28    8    6      5.18      0.00
  -26    8    6     -2.63      0.00
  -24    8    6     -0.77      0.00
  -22    8    6     -7.93      0.00
  -20    8    6      2.97      0.00
  -18    8    6     -4.42      0.00
  -16    8    6      2.08      0.00
  -14    8    6      3.99      0.00
  -12    8    6     11.62      0.00
  -10    8    6     20.99      0.00
   -8    8    6     -7.50      0.00
   -6    8    6    -15.06      0.00
   -4    8    6      6.82      0.00
   -2    8    6     13.76      0.00
    0    8    6     -1.52      0.00
    2    8    6      1.52      0.00
    4    8    6     10.06      0.00
    6    8    6      3.68      0.00
    8    8    6     -9.95      0.00
   10    8    6     11.62      0.00
   12    8    6    -12.23      0.00
   14    8    6     -1.09      0.00
   16    8    6     -0.26      0.00
   18    8    6     -1.94      0.00
   20    8    6     -0.16      0.00
   22    8    6      8.41      0.00
   24    8    6      0.48      0.00
   26    8    6      0.23      0.00
   28    8    6     -1.04      0.00
   30    8    6      1.45      0.00
   32    8    6      0.47      0.00
   34    8    6     -0.02      0.00
  -37    9    6      0.51      0.00
  -35    9    6      0.48      0.00
  -33    9    6     -0.58      0.00
  -31    9    6      2.48      0.00
  -29    9    6     -2.83      0.00
  -27    9    6      0.59      0.00
  -25    9    6      0.16      0.00
  -23    9    6     -4.39      0.00
  -21    9    6     -0.47      0.00
  -19    9    6      5.12      0.00
  -17    9    6      2.39      0.00
  -15    9    6     -0.11      0.00
  -13    9    6     10.82      0.00
  -11    9    6    -11.46      0.00
   -9    9    6      6.36      0.00
   -7    9    6      5.25      0.00
   -5    9    6     -1.60      0.00
   -3    9    6    -14.33      0.00
   -1    9    6     -6.59      0.00
    1    9    6      0.15      0.00
    3    9    6    -11.00      0.00
    5    9    6      2.77      0.00
    7    9    6     -2.92      0.00
    9    9    6      9.34      0.00
   11    9    6     -2.73      0.00
   13    9    6      7.63      0.00
   15    9    6      2.18      0.00
   17    9    6     -0.59      0.00
   19    9    6     -0.77      0.00
   21    9    6     -2.66      0.00
   23    9    6     -0.18      0.00
   25    9    6      1.62      0.00
   27    9    6      2.09      0.00
   29    9    6     -1.23      0.00
   31    9    6     -0.80      0.00
   33    9    6     -1.00      0.00
  -36   10    6      4.11      0.00
  -34   10    6      1.93      0.00
  -32   10    6      0.43      0.00
  -30   10    6      1.50      0.00
  -28   10    6      0.46      0.00
  -26   10    6      0.34      0.00
  -24   10    6      1.68      0.00
  -22   10    6      0.75      0.00
  -20   10    6      1.67      0.00
  -18   10    6      3.24      0.00
  -16   10    6      1.70      0.00
  -14   10    6     -6.54      0.00
  -12   10    6      8.99      0.00
  -10   10    6      3.90      0.00
   -8   10    6      0.29      0.00
   -6   10    6     -5.25      0.00
   -4   10    6      2.09      0.00
   -2   10    6     12.01      0.00
    0   10    6     -8.09      0.00
    2   10    6     -9.18      0.00
    4   10    6      0.75      0.00
    6   10    6      1.26      0.00
    8   10    6     -4.43      0.00
   10   10    6      1.30      0.00
   12   10    6     -1.89      0.00
   14   10    6     -6.64      0.00
   16   10    6      0.27      0.00
   18   10    6     -0.76      0.00
   20   10    6      0.69      0.00
   22   10    6     -0.21      0.00
   24   10    6     -2.55      0.00
   26   10    6      2.80      0.00
   28   10    6      0.04      0.00
   30   10    6      0.13      0.00
   32   10    6      0.80      0.00
  -35   11    6     -1.51      0.00
  -33   11    6      0.81      0.00
  -31   11    6     -2.85      0.00
  -29   11    6     -0.59      0.00
  -27   11    6     -6.34      0.00
  -25   11    6     -0.45      0.00
  -23   11    6      1.07      0.00
  -21   11    6     -0.59      0.00
  -19   11    6      6.18      0.00
  -17   11    6     -3.27      0.00
  -15   11    6     -1.00      0.00
  -13   11    6     -2.63      0.00
  -11   11    6      5.58      0.00
   -9   11    6     -2.56      0.00
   -7   11    6     10.44      0.00
   -5   11    6     -0.26      0.00
   -3   11    6      2.29      0.00
   -1   11    6     -0.42      0.00
    1   11    6     11.00      0.00
    3   11    6      8.73      0.00
    5   11    6     10.46      0.00
    7   11    6      1.20      0.00
    9   11    6     -1.88      0.00
   11   11    6      4.58      0.00
   13   11    6      5.26      0.00
   15   11    6      3.34      0.00
   17   11    6     -4.39      0.00
   19   11    6     -2.74      0.00
   21   11    6      2.43      0.00
   23   11    6      0.51      0.00
   25   11    6      0.31      0.00
   27   11    6     -0.19      0.00
   29   11    6      2.66      0.00
   31   11    6     -0.50      0.00
  -34   12    6     -1.67      0.00
  -32   12    6      3.17      0.00
  -30   12    6      3.95      0.00
  -28   12    6      1.38      0.00
  -26   12    6     -1.37      0.00
  -24   12    6     -2.95      0.00
  -22   12    6     -0.42      0.00
  -20   12    6     -7.53      0.00
  -18   12    6     -0.04      0.00
  -16   12    6      2.18      0.00
  -14   12    6     10.34      0.00
  -12   12    6      0.67      0.00
  -10   12    6     -5.67      0.00
   -8   12    6      4.26      0.00
   -6   12    6     -1.69      0.00
   -4   12    6     -0.53      0.00
   -2   12    6     -2.24      0.00
    0   12    6     -7.07      0.00
    2   12    6     -5.63      0.00
    4   12    6     -2.80      0.00
    6   12    6      7.46      0.00
    8   12    6     -2.77      0.00
   10   12    6      1.04      0.00
   12   12    6     -9.93      0.00
   14   12    6      0.55      0.00
   16   12    6      1.95      0.00
   18   12    6      2.13      0.00
   20   12    6     -0.21      0.00
   22   12    6      2.69      0.00
   24   12    6     -0.81      0.00
   26   12    6     -1.07      0.00
   28   12    6     -0.17      0.00
   30   12    6     -0.94      0.00
  -33   13    6     -2.36      0.00
  -31   13    6      0.93      0.00
  -29   13    6      0.43      0.00
  -27   13    6     -0.91      0.00
  -25   13    6     -0.20      0.00
  -23   13    6     -6.17      0.00
  -21   13    6      7.85      0.00
  -19   13    6      2.63      0.00
  -17   13    6      1.20      0.00
  -15   13    6     -4.48      0.00
  -13   13    6     -1.01      0.00
  -11   13    6      6.92      0.00
   -9   13    6     -1.91      0.00
   -7   13    6     -1.93      0.00
   -5   13    6     -9.40      0.00
   -3   13    6      1.38      0.00
   -1   13    6      4.21      0.00
    1   13    6      0.23      0.00
    3   13    6      5.42      0.00
    5   13    6     -3.98      0.00
    7   13    6      5.40      0.00
    9   13    6      0.26      0.00
   11   13    6      4.23      0.00
   13   13    6     -3.76      0.00
   15   13    6     -2.05      0.00
   17   13    6      0.42      0.00
   19   13    6     -0.25      0.00
   21   13    6      0.67      0.00
   23   13    6      6.37      0.00
   25   13    6      3.36      0.00
   27   13    6      3.45      0.00
   29   13    6     -1.98      0.00
  -30   14    6     -0.84      0.00
  -28   14    6      0.57      0.00
  -26   14    6     -2.85      0.00
  -24   14    6      0.88      0.00
  -22   14    6     -3.55      0.00
  -20   14    6      2.86      0.00
  -18   14    6     -1.60      0.00
  -16   14    6     -4.44      0.00
  -14   14    6      3.69      0.00
  -12   14    6      2.35      0.00
  -10   14    6     -2.39      0.00
   -8   14    6      0.78      0.00
   -6   14    6      4.42      0.00
   -4   14    6     -2.44      0.00
   -2   14    6     -1.40      0.00
    0   14    6     -5.86      0.00
    2   14    6      0.82      0.00
    4   14    6     -0.89      0.00
    6   14    6      3.91      0.00
    8   14    6     -1.96      0.00
   10   14    6     -2.88      0.00
   12   14    6     -0.33      0.00
   14   14    6     -0.62      0.00
   16   14    6     -0.62      0.00
   18   14    6     -1.71      0.00
   20   14    6      3.99      0.00
   22   14    6     -3.18      0.00
   24   14    6     -0.93      0.00
   26   14    6      6.02      0.00
  -29   15    6      0.96      0.00
  -27   15    6     -0.23      0.00
  -25   15    6      0.50      0.00
  -23   15    6      6.63      0.00
  -21   15    6     -0.78      0.00
  -19   15    6     -3.38      0.00
  -17   15    6      0.82      0.00
  -15   15    6     -0.23      0.00
  -13   15    6     -1.00      0.00
  -11   15    6      0.51      0.00
   -9   15    6      1.07      0.00
   -7   15    6      0.92      0.00
   -5   15    6     -4.14      0.00
   -3   15    6     11.36      0.00
   -1   15    6      7.89      0.00
    1   15    6      2.12      0.00
    3   15    6      0.98      0.00
    5   15    6     -0.83      0.00
    7   15    6     -6.45      0.00
    9   15    6      1.44      0.00
   11   15    6      4.23      0.00
   13   15    6      0.40      0.00
   15   15    6      2.92      0.00
   17   15    6      1.57      0.00
   19   15    6      0.28      0.00
   21   15    6      3.15      0.00
   23   15    6      0.95      0.00
   25   15    6     -2.07      0.00
  -28   16    6      0.76      0.00
  -26   16    6      3.16      0.00
  -24   16    6      1.55      0.00
  -22   16    6     -0.71      0.00
  -20   16    6      2.11      0.00
  -18   16    6     -4.61      0.00
  -16   16    6     -6.24      0.00
  -14   16    6     -3.13      0.00
  -12   16    6      5.46      0.00
  -10   16    6      0.08      0.00
   -8   16    6     -0.52      0.00
   -6   16    6     -1.62      0.00
   -4   16    6     -2.29      0.00
   -2   16    6     -3.15      0.00
    0   16    6     -5.50      0.00
    2   16    6      6.87      0.00
    4   16    6      4.04      0.00
    6   16    6      1.07      0.00
    8   16    6      2.44      0.00
   10   16    6     -1.06      0.00
   12   16    6     -0.68      0.00
   14   16    6      0.82      0.00
   16   16    6      5.29      0.00
   18   16    6      4.81      0.00
   20   16    6      1.77      0.00
   22   16    6     -0.08      0.00
   24   16    6     -0.66      0.00
  -25   17    6      2.45      0.00
  -23   17    6      0.43      0.00
  -21   17    6     -7.90      0.00
  -19   17    6      1.37      0.00
  -17   17    6     -0.68      0.00
  -15   17    6     -2.70      0.00
  -13   17    6    -10.89      0.00
  -11   17    6      0.31      0.00
   -9   17    6     -4.14      0.00
   -7   17    6     -5.22      0.00
   -5   17    6      4.69      0.00
   -3   17    6      1.96      0.00
   -1   17    6     -0.23      0.00
    1   17    6      1.51      0.00
    3   17    6     -5.23      0.00
    5   17    6      0.02      0.00
    7   17    6      1.45      0.00
    9   17    6     -4.40      0.00
   11   17    6      3.32      0.00
   13   17    6      2.68      0.00
   15   17    6      2.79      0.00
   17   17    6      3.92      0.00
   19   17    6     -1.20      0.00
   21   17    6      6.17      0.00
  -24   18    6     -0.23      0.00
  -22   18    6      2.14      0.00
  -20   18    6      1.44      0.00
  -18   18    6      0.54      0.00
  -16   18    6     -1.31      0.00
  -14   18    6     -5.77      0.00
  -12   18    6      1.14      0.00
  -10   18    6     -3.95      0.00
   -8   18    6      6.05      0.00
   -6   18    6      3.18      0.00
   -4   18    6      0.49      0.00
   -2   18    6      1.78      0.00
    0   18    6     -1.85      0.00
    2   18    6      2.22      0.00
    4   18    6     -1.95      0.00
    6   18    6      2.90      0.00
    8   18    6      0.79      0.00
   10   18    6     -0.68      0.00
   12   18    6     -0.90      0.00
   14   18    6     -1.00      0.00
   16   18    6      7.00      0.00
   18   18    6      3.96      0.00
   20   18    6      0.14      0.00
  -21   19    6      1.20      0.00
  -19   19    6      3.34      0.00
  -17   19    6     -1.95      0.00
  -15   19    6      1.85      0.00
  -13   19    6     -2.00      0.00
  -11   19    6      3.36      0.00
   -9   19    6     -0.27      0.00
   -7   19    6     -5.29      0.00
   -5   19    6     -2.93      0.00
   -3   19    6      1.03      0.00
   -1   19    6      2.91      0.00
    1   19    6      4.49      0.00
    3   19    6      3.20      0.00
    5   19    6     -4.58      0.00
    7   19    6     -0.12      0.00
    9   19    6     -2.48      0.00
   11   19    6      2.33      0.00
   13   19    6     -2.62      0.00
   15   19    6      1.66      0.00
   17   19    6      1.65      0.00
  -18   20    6      0.41      0.00
  -16   20    6      2.72      0.00
  -14   20    6      0.74      0.00
  -12   20    6     -0.92      0.00
  -10   20    6      3.52      0.00
   -8   20    6     -3.44      0.00
   -6   20    6     -0.36      0.00
   -4   20    6      2.63      0.00
   -2   20    6      4.12      0.00
    0   20    6      2.64      0.00
    2   20    6     -2.69      0.00
    4   20    6      0.51      0.00
    6   20    6      5.74      0.00
    8   20    6      0.68      0.00
   10   20    6      1.43      0.00
   12   20    6      0.44      0.00
   14   20    6      1.43      0.00
  -13   21    6      1.11      0.00
  -11   21    6     -0.42      0.00
   -9   21    6     -0.19      0.00
   -7   21    6     -4.94      0.00
   -5   21    6     -0.69      0.00
   -3   21    6     -8.08      0.00
   -1   21    6     -2.59      0.00
    3   21    6      3.21      0.00
    5   21    6      2.20      0.00
    7   21    6      0.09      0.00
    9   21    6      4.02      0.00
   -4   22    6     -0.70      0.00
   -2   22    6      3.76      0.00
    0   22    6      0.81      0.00
  -39    1    7     -1.07      0.00
  -37    1    7     -1.19      0.00
  -35    1    7     -0.34      0.00
  -33    1    7      1.10      0.00
  -31    1    7      3.41      0.00
  -29    1    7      0.11      0.00
  -27    1    7      3.51      0.00
  -25    1    7     -4.14      0.00
  -23    1    7     -2.91      0.00
  -21    1    7     -5.85      0.00
  -19    1    7    -11.00      0.00
  -17    1    7     -0.80      0.00
  -15    1    7     -6.27      0.00
  -13    1    7      7.11      0.00
  -11    1    7     -2.09      0.00
   -9    1    7     24.31      0.00
   -7    1    7     -8.48      0.00
   -5    1    7    -34.46      0.00
   -3    1    7   -100.82      0.00
   -1    1    7    -45.42      0.00
    1    1    7     75.52      0.00
    3    1    7     12.44      0.00
    5    1    7      8.60      0.00
    7    1    7     -0.43      0.00
    9    1    7      9.11      0.00
   11    1    7     -0.21      0.00
   13    1    7      2.19      0.00
   15    1    7      1.53      0.00
   17    1    7     -2.05      0.00
   19    1    7     -1.18      0.00
   21    1    7     -1.15      0.00
   23    1    7     -0.48      0.00
   25    1    7     -3.90      0.00
   27    1    7      0.10      0.00
   29    1    7     -1.04      0.00
   31    1    7     -0.08      0.00
   33    1    7     -1.93      0.00
   35    1    7     -2.28      0.00
  -40    2    7      1.46      0.00
  -38    2    7     -0.76      0.00
  -36    2    7      1.43      0.00
  -34    2    7      0.71      0.00
  -32    2    7     -3.88      0.00
  -30    2    7      0.03      0.00
  -28    2    7     -1.47      0.00
  -26    2    7     -2.74      0.00
  -24    2    7      4.19      0.00
  -22    2    7     -4.83      0.00
  -20    2    7      6.22      0.00
  -18    2    7     18.37      0.00
  -16    2    7     12.97      0.00
  -14    2    7     11.06      0.00
  -12    2    7     -4.65      0.00
  -10    2    7      2.62      0.00
   -8    2    7     -3.69      0.00
   -6    2    7      7.81      0.00
   -4    2    7    -94.51      0.00
   -2    2    7     11.27      0.00
    0    2    7    -20.34      0.00
    2    2    7    -15.29      0.00
    4    2    7     32.90      0.00
    6    2    7      8.29      0.00
    8    2    7     -8.88      0.00
   10    2    7     -2.79      0.00
   12    2    7     -5.18      0.00
   14    2    7    -11.71      0.00
   16    2    7      1.62      0.00
   18    2    7      2.81      0.00
   20    2    7     -7.47      0.00
   22    2    7     -3.12      0.00
   24    2    7     -1.10      0.00
   26    2    7      1.87      0.00
   28    2    7      1.30      0.00
   30    2    7      1.79      0.00
   32    2    7     -1.05      0.00
   34    2    7     -4.08      0.00
  -39    3    7     -0.67      0.00
  -37    3    7     -1.39      0.00
  -35    3    7     -1.17      0.00
  -33    3    7      0.12      0.00
  -31    3    7     -1.59      0.00
  -29    3    7     -1.46      0.00
  -27    3    7      0.52      0.00
  -25    3    7     -1.22      0.00
  -23    3    7     -0.51      0.00
  -21    3    7      0.11      0.00
  -19    3    7     -3.49      0.00
  -17    3    7     18.53      0.00
  -15    3    7      0.69      0.00
  -13    3    7    -12.09      0.00
  -11    3    7     -4.91      0.00
   -9    3    7    -14.60      0.00
   -7    3    7    -39.76      0.00
   -5    3    7      3.23      0.00
   -3    3    7      7.39      0.00
   -1    3    7    -26.70      0.00
    1    3    7     59.76      0.00
    3    3    7     66.56      0.00
    5    3    7     -8.11      0.00
    7    3    7     20.99      0.00
    9    3    7      6.04      0.00
   11    3    7     17.22      0.00
   13    3    7     12.63      0.00
   15    3    7    -15.29      0.00
   17    3    7     -0.68      0.00
   19    3    7     -3.09      0.00
   21    3    7     -2.82      0.00
   23    3    7     -4.07      0.00
   25    3    7     -4.40      0.00
   27    3    7     -6.01      0.00
   29    3    7      0.18      0.00
   31    3    7     -3.20      0.00
   33    3    7     -3.00      0.00
   35    3    7     -2.77      0.00
  -40    4    7     -1.74      0.00
  -38    4    7     -0.81      0.00
  -36    4    7     -0.53      0.00
  -34    4    7     -0.75      0.00
  -32    4    7     -0.12      0.00
  -30    4    7     -3.65      0.00
  -28    4    7      0.56      0.00
  -26    4    7     -5.77      0.00
  -24    4    7     -6.32      0.00
  -22    4    7     -3.74      0.00
  -20    4    7      2.32      0.00
  -18    4    7     13.61      0.00
  -16    4    7      5.06      0.00
  -14    4    7     -6.96      0.00
  -12    4    7     -0.31      0.00
  -10    4    7      4.94      0.00
   -8    4    7     47.30      0.00
   -6    4    7     42.89      0.00
   -4    4    7    -75.31      0.00
   -2    4    7    -55.34      0.00
    0    4    7     36.06      0.00
    2    4    7    -20.84      0.00
    4    4    7     20.69      0.00
    6    4    7     20.03      0.00
    8    4    7     -2.68      0.00
   10    4    7     -2.92      0.00
   12    4    7      3.86      0.00
   14    4    7     -7.42      0.00
   16    4    7     -1.12      0.00
   18    4    7      6.00      0.00
   20    4    7     -2.31      0.00
   22    4    7     -0.36      0.00
   24    4    7      1.42      0.00
   26    4    7     -0.96      0.00
   28    4    7     -0.47      0.00
   30    4    7      0.50      0.00
   32    4    7      0.60      0.00
   34    4    7      0.75      0.00
  -39    5    7     -0.01      0.00
  -37    5    7     -2.30      0.00
  -35    5    7      0.11      0.00
  -33    5    7      0.05      0.00
  -31    5    7      1.76      0.00
  -29    5    7      0.29      0.00
  -27    5    7      2.88      0.00
  -25    5    7      5.80      0.00
  -23    5    7      0.78      0.00
  -21    5    7     -2.72      0.00
  -19    5    7     -0.39      0.00
  -17    5    7     -7.49      0.00
  -15    5    7    -12.99      0.00
  -13    5    7     -3.64      0.00
  -11    5    7     -4.21      0.00
   -9    5    7    -22.66      0.00
   -7    5    7     12.41      0.00
   -5    5    7     48.68      0.00
   -3    5    7    -13.54      0.00
   -1    5    7     15.44      0.00
    1    5    7    -17.99      0.00
    3    5    7      5.87      0.00
    5    5    7      1.55      0.00
    7    5    7     11.71      0.00
    9    5    7      6.54      0.00
   11    5    7     -1.00      0.00
   13    5    7     -5.47      0.00
   15    5    7     -4.78      0.00
   17    5    7     -2.88      0.00
   19    5    7     -6.50      0.00
   21    5    7     -1.14      0.00
   23    5    7      0.97      0.00
   25    5    7     -3.01      0.00
   27    5    7      0.92      0.00
   29    5    7      2.72      0.00
   31    5    7     -1.43      0.00
   33    5    7     -4.87      0.00
   35    5    7      0.87      0.00
  -38    6    7      0.22      0.00
  -36    6    7     -0.88      0.00
  -34    6    7     -2.67      0.00
  -32    6    7     -2.95      0.00
  -30    6    7     -0.49      0.00
  -28    6    7      2.08      0.00
  -26    6    7     -7.09      0.00
  -24    6    7     -0.75      0.00
  -22    6    7      1.88      0.00
  -20    6    7      5.38      0.00
  -18    6    7     14.61      0.00
  -16    6    7     19.77      0.00
  -14    6    7      2.87      0.00
  -12    6    7    -17.40      0.00
  -10    6    7     -9.27      0.00
   -8    6    7     -1.57      0.00
   -6    6    7     10.02      0.00
   -4    6    7      0.96      0.00
   -2    6    7    -16.78      0.00
    0    6    7     34.20      0.00
    2    6    7     16.85      0.00
    4    6    7     -4.99      0.00
    6    6    7      4.99      0.00
    8    6    7     -2.18      0.00
   10    6    7     -1.37      0.00
   12    6    7      9.20      0.00
   14    6    7     -2.27      0.00
   16    6    7     -0.96      0.00
   18    6    7     -0.61      0.00
   20    6    7     -2.44      0.00
   22    6    7      2.93      0.00
   24    6    7      3.32      0.00
   26    6    7     -3.34      0.00
   28    6    7     -4.35      0.00
   30    6    7     -2.03      0.00
   32    6    7      1.81      0.00
   34    6    7     -1.11      0.00
  -37    7    7     -2.51      0.00
  -35    7    7     -3.35      0.00
  -33    7    7     -4.94      0.00
  -31    7    7      2.58      0.00
  -29    7    7      5.38      0.00
  -27    7    7      4.44      0.00
  -25    7    7      0.01      0.00
  -23    7    7      2.24      0.00
  -21    7    7      4.80      0.00
  -19    7    7     -3.37      0.00
  -17    7    7     -2.70      0.00
  -15    7    7    -14.07      0.00
  -13    7    7     -6.14      0.00
  -11    7    7     -8.19      0.00
   -9    7    7     -7.78      0.00
   -7    7    7     17.69      0.00
   -5    7    7    -22.64      0.00
   -3    7    7     -7.44      0.00
   -1    7    7    -10.20      0.00
    1    7    7     -8.59      0.00
    3    7    7     -4.83      0.00
    5    7    7     30.68      0.00
    7    7    7     -4.51      0.00
    9    7    7      5.78      0.00
   11    7    7     12.06      0.00
   13    7    7     -3.27      0.00
   15    7    7      1.23      0.00
   17    7    7      2.38      0.00
   19    7    7     -2.10      0.00
   21    7    7      0.02      0.00
   23    7    7      1.27      0.00
   25    7    7      4.11      0.00
   27    7    7      0.60      0.00
   29    7    7      3.20      0.00
   31    7    7     -0.99      0.00
   33    7    7      0.13      0.00
  -38    8    7     -2.91      0.00
  -36    8    7     -0.05      0.00
  -34    8    7      2.76      0.00
  -32    8    7      1.12      0.00
  -30    8    7     -1.67      0.00
  -28    8    7      0.43      0.00
  -26    8    7      0.53      0.00
  -24    8    7      0.26      0.00
  -22    8    7      0.42      0.00
  -20    8    7      0.95      0.00
  -18    8    7      1.61      0.00
  -16    8    7     -6.86      0.00
  -14    8    7      7.39      0.00
  -12    8    7      7.37      0.00
  -10    8    7     12.06      0.00
   -8    8    7    -23.51      0.00
   -6    8    7     14.09      0.00
   -4    8    7     27.08      0.00
   -2    8    7    -10.23      0.00
    0    8    7      0.98      0.00
    2    8    7     -9.16      0.00
    4    8    7     -7.18      0.00
    6    8    7     -2.96      0.00
    8    8    7     12.62      0.00
   10    8    7      7.53      0.00
   12    8    7      0.13      0.00
   14    8    7      4.59      0.00
   16    8    7     -5.30      0.00
   18    8    7     -1.24      0.00
   20    8    7     -3.58      0.00
   22    8    7     -1.79      0.00
   24    8    7      0.91      0.00
   26    8    7      3.18      0.00
   28    8    7      0.69      0.00
   30    8    7      0.54      0.00
   32    8    7     -1.70      0.00
  -37    9    7      2.44      0.00
  -35    9    7     -1.52      0.00
  -33    9    7     -2.31      0.00
  -31    9    7      0.21      0.00
  -29    9    7      0.98      0.00
  -27    9    7      0.82      0.00
  -25    9    7      1.41      0.00
  -23    9    7      3.53      0.00
  -21    9    7      1.65      0.00
  -19    9    7      2.63      0.00
  -17    9    7      0.90      0.00
  -15    9    7     -3.46      0.00
  -13    9    7    -10.25      0.00
  -11    9    7     -4.71      0.00
   -9    9    7     12.24      0.00
   -7    9    7      3.68      0.00
   -5    9    7    -12.56      0.00
   -3    9    7    -16.51      0.00
   -1    9    7     -3.45      0.00
    1    9    7     10.36      0.00
    3    9    7     -3.96      0.00
    5    9    7      3.14      0.00
    7    9    7     -3.41      0.00
    9    9    7     -4.32      0.00
   11    9    7      6.14      0.00
   13    9    7     -1.74      0.00
   15    9    7      5.35      0.00
   17    9    7      4.41      0.00
   19    9    7      2.69      0.00
   21    9    7     -0.94      0.00
   23    9    7      0.12      0.00
   25    9    7      2.60      0.00
   27    9    7     -1.62      0.00
   29    9    7     -0.61      0.00
   31    9    7     -0.46      0.00
  -36   10    7     -0.22      0.00
  -34   10    7      0.21      0.00
  -32   10    7     -0.50      0.00
  -30   10    7     -0.98      0.00
  -28   10    7      0.25      0.00
  -26   10    7     -0.06      0.00
  -24   10    7      1.99      0.00
  -22   10    7     -2.46      0.00
  -20   10    7      4.22      0.00
  -18   10    7      1.96      0.00
  -16   10    7     -3.80      0.00
  -14   10    7     -3.28      0.00
  -12   10    7      5.44      0.00
  -10   10    7     -1.64      0.00
   -8   10    7      8.05      0.00
   -6   10    7      4.11      0.00
   -4   10    7     14.32      0.00
   -2   10    7     -4.36      0.00
    0   10    7      5.80      0.00
    2   10    7     -1.42      0.00
    4   10    7     11.72      0.00
    6   10    7     10.17      0.00
    8   10    7     -4.74      0.00
   10   10    7      2.73      0.00
   12   10    7     -3.48      0.00
   14   10    7      1.15      0.00
   16   10    7     -2.96      0.00
   18   10    7      0.44      0.00
   20   10    7      5.61      0.00
   22   10    7      1.19      0.00
   24   10    7     -1.17      0.00
   26   10    7     -0.91      0.00
   28   10    7      1.90      0.00
   30   10    7      5.23      0.00
  -35   11    7      0.41      0.00
  -33   11    7     -0.84      0.00
  -31   11    7      1.71      0.00
  -29   11    7      0.78      0.00
  -27   11    7      2.71      0.00
  -25   11    7      3.73      0.00
  -23   11    7      3.76      0.00
  -21   11    7      2.90      0.00
  -19   11    7      0.40      0.00
  -17   11    7     -3.42      0.00
  -15   11    7     -2.99      0.00
  -13   11    7      0.42      0.00
  -11   11    7      3.83      0.00
   -9   11    7      0.55      0.00
   -7   11    7     -2.87      0.00
   -5   11    7      0.35      0.00
   -3   11    7     -0.51      0.00
   -1   11    7     -4.29      0.00
    1   11    7     11.67      0.00
    3   11    7    -13.85      0.00
    5   11    7      7.41      0.00
    7   11    7     -3.87      0.00
    9   11    7      3.11      0.00
   11   11    7      0.42      0.00
   13   11    7      2.45      0.00
   15   11    7      6.32      0.00
   17   11    7      1.50      0.00
   19   11    7     -0.41      0.00
   21   11    7     -0.32      0.00
   23   11    7      3.89      0.00
   25   11    7      1.15      0.00
   27   11    7     -0.67      0.00
   29   11    7     -2.00      0.00
  -34   12    7      1.65      0.00
  -32   12    7      1.77      0.00
  -30   12    7      0.12      0.00
  -28   12    7      4.82      0.00
  -26   12    7      1.35      0.00
  -24   12    7     -2.13      0.00
  -22   12    7     -3.74      0.00
  -20   12    7     -6.01      0.00
  -18   12    7     -1.32      0.00
  -16   12    7      0.35      0.00
  -14   12    7     10.24      0.00
  -12   12    7     -0.30      0.00
  -10   12    7     -1.88      0.00
   -8   12    7      9.91      0.00
   -6   12    7      0.88      0.00
   -4   12    7      4.39      0.00
   -2   12    7     -1.82      0.00
    0   12    7      3.51      0.00
    2   12    7     -4.57      0.00
    4   12    7      1.29      0.00
    6   12    7      2.15      0.00
    8   12    7     -0.09      0.00
   10   12    7      0.39      0.00
   12   12    7     -1.15      0.00
   14   12    7     -0.75      0.00
   16   12    7     -0.55      0.00
   18   12    7      0.72      0.00
   20   12    7      0.23      0.00
   22   12    7      0.14      0.00
   24   12    7      3.69      0.00
   26   12    7      0.19      0.00
   28   12    7      0.81      0.00
  -33   13    7     -0.94      0.00
  -31   13    7     -0.74      0.00
  -29   13    7      3.08      0.00
  -27   13    7      2.48      0.00
  -25   13    7      1.98      0.00
  -23   13    7     -2.45      0.00
  -21   13    7     10.50      0.00
  -19   13    7      4.31      0.00
  -17   13    7     -0.67      0.00
  -15   13    7     -1.25      0.00
  -13   13    7      3.37      0.00
  -11   13    7      9.55      0.00
   -9   13    7      0.59      0.00
   -7   13    7     -1.64      0.00
   -5   13    7     -2.88      0.00
   -3   13    7      5.51      0.00
   -1   13    7     -1.25      0.00
    1   13    7      5.57      0.00
    3   13    7     -1.25      0.00
    5   13    7      3.12      0.00
    7   13    7      0.99      0.00
    9   13    7      2.48      0.00
   11   13    7      2.17      0.00
   13   13    7      7.31      0.00
   15   13    7      4.61      0.00
   17   13    7      2.77      0.00
   19   13    7     -0.65      0.00
   21   13    7     -0.50      0.00
   23   13    7     -1.20      0.00
   25   13    7      1.73      0.00
   27   13    7      1.39      0.00
  -30   14    7     -1.11      0.00
  -28   14    7      1.68      0.00
  -26   14    7      1.29      0.00
  -24   14    7      0.70      0.00
  -22   14    7     -5.01      0.00
  -20   14    7     -6.88      0.00
  -18   14    7     -0.86      0.00
  -16   14    7     -1.84      0.00
  -14   14    7      0.44      0.00
  -12   14    7     -4.59      0.00
  -10   14    7     -2.47      0.00
   -8   14    7      3.31      0.00
   -6   14    7     -0.31      0.00
   -4   14    7      0.37      0.00
   -2   14    7     -4.56      0.00
    0   14    7      2.62      0.00
    2   14    7     -6.61      0.00
    4   14    7      0.30      0.00
    6   14    7      0.19      0.00
    8   14    7      0.85      0.00
   10   14    7     -3.63      0.00
   12   14    7      0.52      0.00
   14   14    7     -4.59      0.00
   16   14    7     -6.73      0.00
   18   14    7     -2.05      0.00
   20   14    7     -2.69      0.00
   22   14    7     -0.72      0.00
   24   14    7      1.67      0.00
   26   14    7     -4.26      0.00
  -29   15    7      0.96      0.00
  -27   15    7      0.40      0.00
  -25   15    7     -0.09      0.00
  -23   15    7     -2.15      0.00
  -21   15    7     -1.22      0.00
  -19   15    7      6.88      0.00
  -17   15    7     -2.64      0.00
  -15   15    7     -4.14      0.00
  -13   15    7      2.63      0.00
  -11   15    7      2.01      0.00
   -9   15    7      7.73      0.00
   -7   15    7      5.54      0.00
   -5   15    7      2.30      0.00
   -3   15    7      4.95      0.00
   -1   15    7      2.01      0.00
    1   15    7      0.91      0.00
    3   15    7     -0.96      0.00
    5   15    7     -3.51      0.00
    7   15    7     -5.62      0.00
    9   15    7      2.78      0.00
   11   15    7      0.68      0.00
   13   15    7      6.90      0.00
   15   15    7      4.28      0.00
   17   15    7     -2.95      0.00
   19   15    7     -0.22      0.00
   21   15    7      3.42      0.00
   23   15    7      1.75      0.00
   25   15    7      2.12      0.00
  -28   16    7      1.97      0.00
  -26   16    7     -0.53      0.00
  -24   16    7     -3.59      0.00
  -22   16    7      1.27      0.00
  -20   16    7      7.13      0.00
  -18   16    7      0.04      0.00
  -16   16    7      5.65      0.00
  -14   16    7     -4.11      0.00
  -12   16    7      2.18      0.00
  -10   16    7      1.11      0.00
   -8   16    7      0.99      0.00
   -6   16    7      0.73      0.00
   -4   16    7     -0.76      0.00
   -2   16    7     -5.12      0.00
    0   16    7     -5.82      0.00
    2   16    7     -6.77      0.00
    4   16    7     -0.86      0.00
    6   16    7      7.27      0.00
    8   16    7      2.93      0.00
   10   16    7      0.31      0.00
   12   16    7      8.93      0.00
   14   16    7      2.21      0.00
   16   16    7      3.62      0.00
   18   16    7     -3.94      0.00
   20   16    7     -0.22      0.00
   22   16    7     -0.46      0.00
   24   16    7     -0.42      0.00
  -25   17    7     -2.91      0.00
  -23   17    7     -2.69      0.00
  -21   17    7     -0.07      0.00
  -19   17    7      1.39      0.00
  -17   17    7     -1.18      0.00
  -15   17    7     -4.62      0.00
  -13   17    7     -1.62      0.00
  -11   17    7     -3.85      0.00
   -9   17    7     -0.51      0.00
   -7   17    7     -1.68      0.00
   -5   17    7     -1.06      0.00
   -3   17    7      0.05      0.00
   -1   17    7      5.57      0.00
    1   17    7     -3.02      0.00
    3   17    7     -2.54      0.00
    5   17    7      1.31      0.00
    7   17    7      1.42      0.00
    9   17    7     -2.89      0.00
   11   17    7     -2.09      0.00
   13   17    7     -1.74      0.00
   15   17    7      0.94      0.00
   17   17    7      1.90      0.00
   19   17    7     -1.52      0.00
   21   17    7     -1.25      0.00
  -24   18    7      1.11      0.00
  -22   18    7      2.71      0.00
  -20   18    7     -2.76      0.00
  -18   18    7     -3.46      0.00
  -16   18    7     -3.18      0.00
  -14   18    7      0.37      0.00
  -12   18    7      3.05      0.00
  -10   18    7      3.50      0.00
   -8   18    7      0.01      0.00
   -6   18    7      2.00      0.00
   -4   18    7     -0.57      0.00
   -2   18    7      1.49      0.00
    0   18    7     -5.25      0.00
    2   18    7      2.85      0.00
    4   18    7     -2.23      0.00
    6   18    7     -4.62      0.00
    8   18    7      2.57      0.00
   10   18    7     -1.06      0.00
   12   18    7     -2.35      0.00
   14   18    7      1.08      0.00
   16   18    7     -2.85      0.00
   18   18    7      0.66      0.00
  -21   19    7     -2.44      0.00
  -19   19    7      2.75      0.00
  -17   19    7      0.89      0.00
  -15   19    7      1.19      0.00
  -13   19    7     -2.35      0.00
  -11   19    7      2.07      0.00
   -9   19    7     -4.06      0.00
   -7   19    7     -4.06      0.00
   -5   19    7     -0.61      0.00
   -3   19    7      0.97      0.00
   -1   19    7      1.79      0.00
    1   19    7     -7.23      0.00
    3   19    7     -0.42      0.00
    5   19    7     -4.24      0.00
    7   19    7      2.76      0.00
    9   19    7     -1.07      0.00
   11   19    7     -0.60      0.00
   13   19    7     -1.08      0.00
   15   19    7     -1.22      0.00
  -18   20    7      2.26      0.00
  -16   20    7     -1.03      0.00
  -14   20    7      3.34      0.00
  -12   20    7      1.04      0.00
  -10   20    7      4.18      0.00
   -8   20    7      1.91      0.00
   -6   20    7      1.77      0.00
   -4   20    7     -2.93      0.00
   -2   20    7     -1.28      0.00
    0   20    7      2.24      0.00
    2   20    7      1.59      0.00
    4   20    7      2.64      0.00
    6   20    7      0.23      0.00
    8   20    7      7.02      0.00
   10   20    7     -1.03      0.00
   12   20    7     -0.88      0.00
  -13   21    7      2.81      0.00
  -11   21    7      0.03      0.00
   -9   21    7      2.33      0.00
   -7   21    7      4.68      0.00
   -5   21    7     -5.59      0.00
   -3   21    7      0.42      0.00
   -1   21    7      1.84      0.00
    1   21    7      5.09      0.00
    3   21    7      4.48      0.00
    5   21    7     -0.57      0.00
    7   21    7      3.98      0.00
  -40    0    8     -0.82      0.00
  -38    0    8      1.00      0.00
  -36    0    8      4.44      0.00
  -34    0    8      1.58      0.00
  -32    0    8      4.72      0.00
  -30    0    8     -3.11      0.00
  -28    0    8      0.24      0.00
  -26    0    8      7.11      0.00
  -24    0    8      0.09      0.00
  -22    0    8     11.72      0.00
  -20    0    8     20.91      0.00
  -18    0    8      4.81      0.00
  -16    0    8     13.80      0.00
  -14    0    8     -5.08      0.00
  -12    0    8    -33.14      0.00
  -10    0    8     20.65      0.00
   -8    0    8    -29.91      0.00
   -6    0    8     -0.33      0.00
   -4    0    8      7.31      0.00
   -2    0    8     -1.72      0.00
    0    0    8    -31.71      0.00
    2    0    8     96.50      0.00
    4    0    8     23.09      0.00
    6    0    8     16.03      0.00
    8    0    8     26.80      0.00
   10    0    8      5.95      0.00
   12    0    8    -22.06      0.00
   14    0    8    -14.06      0.00
   16    0    8     -3.68      0.00
   18    0    8     -5.27      0.00
   20    0    8     -4.36      0.00
   22    0    8      4.44      0.00
   24    0    8      0.30      0.00
   26    0    8     -3.39      0.00
   28    0    8      1.21      0.00
   30    0    8     -1.73      0.00
   32    0    8     -4.56      0.00
   34    0    8     -0.15      0.00
  -39    1    8      0.66      0.00
  -37    1    8      1.18      0.00
  -35    1    8      1.83      0.00
  -33    1    8      0.64      0.00
  -31    1    8      0.86      0.00
  -29    1    8      0.93      0.00
  -27    1    8      1.43      0.00
  -25    1    8     -4.25      0.00
  -23    1    8     -1.89      0.00
  -21    1    8    -12.23      0.00
  -19    1    8     -4.35      0.00
  -17    1    8     -3.34      0.00
  -15    1    8    -19.36      0.00
  -13    1    8     -0.08      0.00
  -11    1    8     29.17      0.00
   -9    1    8     27.01      0.00
   -7    1    8    -26.83      0.00
   -5    1    8    -55.16      0.00
   -3    1    8     86.29      0.00
   -1    1    8     59.12      0.00
    1    1    8     75.03      0.00
    3    1    8    -25.43      0.00
    5    1    8    -11.80      0.00
    7    1    8      8.99      0.00
    9    1    8    -32.98      0.00
   11    1    8    -10.82      0.00
   13    1    8      8.73      0.00
   15    1    8      4.31      0.00
   17    1    8      8.23      0.00
   19    1    8      1.93      0.00
   21    1    8     -4.66      0.00
   23    1    8     -2.85      0.00
   25    1    8      1.58      0.00
   27    1    8      1.66      0.00
   29    1    8      1.27      0.00
   31    1    8      3.29      0.00
   33    1    8     -0.67      0.00
   35    1    8     -0.37      0.00
  -40    2    8      0.62      0.00
  -38    2    8     -1.79      0.00
  -36    2    8      1.34      0.00
  -34    2    8      0.30      0.00
  -32    2    8     -1.08      0.00
  -30    2    8     -0.77      0.00
  -28    2    8     -0.55      0.00
  -26    2    8      3.75      0.00
  -24    2    8      2.39      0.00
  -22    2    8      1.62      0.00
  -20    2    8     14.05      0.00
  -18    2    8     -0.61      0.00
  -16    2    8      6.99      0.00
  -14    2    8     -2.62      0.00
  -12    2    8     -4.81      0.00
  -10    2    8      6.49      0.00
   -8    2    8    -18.86      0.00
   -6    2    8     -3.60      0.00
   -4    2    8    -42.40      0.00
   -2    2    8     36.32      0.00
    0    2    8    -77.27      0.00
    2    2    8     66.35      0.00
    4    2    8     17.94      0.00
    6    2    8     38.47      0.00
    8    2    8     11.00      0.00
   10    2    8      4.77      0.00
   12    2    8     -2.70      0.00
   14    2    8    -22.96      0.00
   16    2    8     -0.32      0.00
   18    2    8     -3.40      0.00
   20    2    8      1.59      0.00
   22    2    8      4.42      0.00
   24    2    8      2.44      0.00
   26    2    8      2.93      0.00
   28    2    8      0.09      0.00
   30    2    8     -1.50      0.00
   32    2    8     -1.44      0.00
   34    2    8     -0.12      0.00
  -39    3    8      2.48      0.00
  -37    3    8      1.60      0.00
  -35    3    8      1.04      0.00
  -33    3    8      1.14      0.00
  -31    3    8     -0.43      0.00
  -29    3    8     -0.91      0.00
  -27    3    8      4.52      0.00
  -25    3    8     -5.93      0.00
  -23    3    8      0.33      0.00
  -21    3    8     -1.91      0.00
  -19    3    8     -4.78      0.00
  -17    3    8     -4.26      0.00
  -15    3    8     -3.85      0.00
  -13    3    8    -16.68      0.00
  -11    3    8     -3.25      0.00
   -9    3    8     30.17      0.00
   -7    3    8     18.96      0.00
   -5    3    8     74.78      0.00
   -3    3    8     48.16      0.00
   -1    3    8    -58.44      0.00
    1    3    8     65.92      0.00
    3    3    8      4.20      0.00
    5    3    8    -13.97      0.00
    7    3    8     -8.62      0.00
    9    3    8      3.87      0.00
   11    3    8     -4.11      0.00
   13    3    8      7.54      0.00
   15    3    8      0.80      0.00
   17    3    8     -1.82      0.00
   19    3    8      1.74      0.00
   21    3    8     -5.98      0.00
   23    3    8      0.92      0.00
   25    3    8     -3.80      0.00
   27    3    8      0.97      0.00
   29    3    8     -1.27      0.00
   31    3    8     -2.11      0.00
   33    3    8      2.66      0.00
   35    3    8      2.79      0.00
  -40    4    8     -1.43      0.00
  -38    4    8     -0.28      0.00
  -36    4    8     -1.09      0.00
  -34    4    8     -0.24      0.00
  -32    4    8      0.54      0.00
  -30    4    8      1.50      0.00
  -28    4    8     -1.08      0.00
  -26    4    8     -0.01      0.00
  -24    4    8      4.13      0.00
  -22    4    8      0.90      0.00
  -20    4    8      0.42      0.00
  -18    4    8     -8.64      0.00
  -16    4    8    -12.01      0.00
  -14    4    8     -5.80      0.00
  -12    4    8     -4.32      0.00
  -10    4    8      9.93      0.00
   -8    4    8     33.12      0.00
   -6    4    8     13.45      0.00
   -4    4    8    -27.96      0.00
   -2    4    8     34.26      0.00
    0    4    8    -31.97      0.00
    2    4    8    -28.86      0.00
    4    4    8    -20.20      0.00
    6    4    8     45.47      0.00
    8    4    8      4.29      0.00
   10    4    8     -5.92      0.00
   12    4    8     -0.36      0.00
   14    4    8     -9.06      0.00
   16    4    8     -0.77      0.00
   18    4    8      0.38      0.00
   20    4    8      3.50      0.00
   22    4    8      4.84      0.00
   24    4    8      2.02      0.00
   26    4    8      3.35      0.00
   28    4    8     -1.07      0.00
   30    4    8      2.37      0.00
   32    4    8      2.88      0.00
   34    4    8      0.22      0.00
  -39    5    8      0.42      0.00
  -37    5    8     -1.44      0.00
  -35    5    8      0.63      0.00
  -33    5    8      0.70      0.00
  -31    5    8      1.75      0.00
  -29    5    8     -0.05      0.00
  -27    5    8      0.54      0.00
  -25    5    8      0.44      0.00
  -23    5    8     -1.93      0.00
  -21    5    8     -2.81      0.00
  -19    5    8     -3.35      0.00
  -17    5    8     -6.06      0.00
  -15    5    8      3.79      0.00
  -13    5    8     -4.11      0.00
  -11    5    8      9.58      0.00
   -9    5    8     -2.27      0.00
   -7    5    8      8.00      0.00
   -5    5    8      0.89      0.00
   -3    5    8      5.85      0.00
   -1    5    8    -31.07      0.00
    1    5    8     10.44      0.00
    3    5    8     27.82      0.00
    5    5    8     -0.18      0.00
    7    5    8    -18.07      0.00
    9    5    8     13.72      0.00
   11    5    8      2.52      0.00
   13    5    8     -7.63      0.00
   15    5    8      2.13      0.00
   17    5    8     -6.83      0.00
   19    5    8     -2.89      0.00
   21    5    8     -1.89      0.00
   23    5    8     -3.41      0.00
   25    5    8      0.88      0.00
   27    5    8      0.88      0.00
   29    5    8     -2.48      0.00
   31    5    8     -2.39      0.00
   33    5    8     -1.42      0.00
  -38    6    8     -1.59      0.00
  -36    6    8      1.11      0.00
  -34    6    8      1.37      0.00
  -32    6    8     -2.39      0.00
  -30    6    8     -1.60      0.00
  -28    6    8     -0.90      0.00
  -26    6    8     -4.97      0.00
  -24    6    8      5.23      0.00
  -22    6    8     -0.54      0.00
  -20    6    8     -5.70      0.00
  -18    6    8     -4.53      0.00
  -16    6    8     17.96      0.00
  -14    6    8      8.74      0.00
  -12    6    8     -2.69      0.00
  -10    6    8      5.80      0.00
   -8    6    8    -11.72      0.00
   -6    6    8     -5.39      0.00
   -4    6    8      1.06      0.00
   -2    6    8     -6.35      0.00
    0    6    8    -24.49      0.00
    2    6    8     -6.57      0.00
    4    6    8    -10.87      0.00
    6    6    8     37.10      0.00
    8    6    8      1.77      0.00
   10    6    8      9.15      0.00
   12    6    8     10.11      0.00
   14    6    8      5.14      0.00
   16    6    8      1.39      0.00
   18    6    8      6.02      0.00
   20    6    8     -0.10      0.00
   22    6    8      0.76      0.00
   24    6    8      1.89      0.00
   26    6    8     -0.99      0.00
   28    6    8      0.90      0.00
   30    6    8     -0.08      0.00
   32    6    8      1.73      0.00
   34    6    8      0.40      0.00
  -37    7    8     -3.05      0.00
  -35    7    8     -3.58      0.00
  -33    7    8      0.03      0.00
  -31    7    8     -2.16      0.00
  -29    7    8     -1.42      0.00
  -27    7    8      1.37      0.00
  -25    7    8     -1.31      0.00
  -23    7    8      0.98      0.00
  -21    7    8     -4.86      0.00
  -19    7    8      1.36      0.00
  -17    7    8     -6.86      0.00
  -15    7    8     -1.66      0.00
  -13    7    8     16.23      0.00
  -11    7    8     -3.11      0.00
   -9    7    8     17.28      0.00
   -7    7    8     -0.27      0.00
   -5    7    8    -15.14      0.00
   -3    7    8     21.91      0.00
   -1    7    8      4.20      0.00
    1    7    8     13.50      0.00
    3    7    8     -7.36      0.00
    5    7    8      7.63      0.00
    7    7    8     -7.12      0.00
    9    7    8      8.45      0.00
   11    7    8      0.56      0.00
   13    7    8     -1.31      0.00
   15    7    8     -1.02      0.00
   17    7    8     -0.14      0.00
   19    7    8     -3.37      0.00
   21    7    8     -2.35      0.00
   23    7    8      4.93      0.00
   25    7    8     12.79      0.00
   27    7    8      6.47      0.00
   29    7    8     -1.22      0.00
   31    7    8      0.16      0.00
   33    7    8      0.25      0.00
  -38    8    8     -1.08      0.00
  -36    8    8      2.10      0.00
  -34    8    8     -1.16      0.00
  -32    8    8     -1.44      0.00
  -30    8    8      1.04      0.00
  -28    8    8     -0.17      0.00
  -26    8    8      3.20      0.00
  -24    8    8      0.10      0.00
  -22    8    8     -5.33      0.00
  -20    8    8     -3.65      0.00
  -18    8    8      0.53      0.00
  -16    8    8      8.11      0.00
  -14    8    8     12.96      0.00
  -12    8    8     29.96      0.00
  -10    8    8     18.65      0.00
   -8    8    8    -12.61      0.00
   -6    8    8     10.54      0.00
   -4    8    8      3.84      0.00
   -2    8    8     -6.13      0.00
    0    8    8    -20.54      0.00
    2    8    8      1.23      0.00
    4    8    8      0.53      0.00
    6    8    8      7.28      0.00
    8    8    8      1.83      0.00
   10    8    8      5.96      0.00
   12    8    8      3.00      0.00
   14    8    8      6.90      0.00
   16    8    8      0.49      0.00
   18    8    8      0.62      0.00
   20    8    8      2.10      0.00
   22    8    8      2.92      0.00
   24    8    8     -2.14      0.00
   26    8    8     -0.73      0.00
   28    8    8      0.02      0.00
   30    8    8     -0.05      0.00
   32    8    8      1.86      0.00
  -37    9    8     -0.50      0.00
  -35    9    8     -1.88      0.00
  -33    9    8      0.16      0.00
  -31    9    8     -0.17      0.00
  -29    9    8      1.18      0.00
  -27    9    8     -1.82      0.00
  -25    9    8     -3.52      0.00
  -23    9    8     -2.15      0.00
  -21    9    8      1.30      0.00
  -19    9    8      4.87      0.00
  -17    9    8      2.43      0.00
  -15    9    8      7.29      0.00
  -13    9    8     -8.48      0.00
  -11    9    8     -1.23      0.00
   -9    9    8     -0.41      0.00
   -7    9    8     -3.00      0.00
   -5    9    8    -24.38      0.00
   -3    9    8     -4.66      0.00
   -1    9    8     13.33      0.00
    1    9    8      7.63      0.00
    3    9    8      7.26      0.00
    5    9    8     20.50      0.00
    7    9    8      6.30      0.00
    9    9    8     -7.46      0.00
   11    9    8     -0.74      0.00
   13    9    8     -2.63      0.00
   15    9    8      2.50      0.00
   17    9    8     -0.15      0.00
   19    9    8     -1.31      0.00
   21    9    8      0.60      0.00
   23    9    8     -0.30      0.00
   25    9    8      0.04      0.00
   27    9    8      1.39      0.00
   29    9    8      4.58      0.00
   31    9    8      0.71      0.00
  -36   10    8      0.91      0.00
  -34   10    8     -0.56      0.00
  -32   10    8      1.05      0.00
  -30   10    8      0.09      0.00
  -28   10    8      0.99      0.00
  -26   10    8     -0.72      0.00
  -24   10    8      1.40      0.00
  -22   10    8     -3.53      0.00
  -20   10    8     -0.34      0.00
  -18   10    8      4.35      0.00
  -16   10    8     -4.91      0.00
  -14   10    8      6.31      0.00
  -12   10    8     10.05      0.00
  -10   10    8     -0.55      0.00
   -8   10    8     10.95      0.00
   -6   10    8      5.33      0.00
   -4   10    8     12.31      0.00
   -2   10    8     -5.03      0.00
    0   10    8     -9.95      0.00
    2   10    8     -8.21      0.00
    4   10    8      0.89      0.00
    6   10    8      5.01      0.00
    8   10    8      2.97      0.00
   10   10    8     12.09      0.00
   12   10    8     -3.37      0.00
   14   10    8      4.51      0.00
   16   10    8      1.76      0.00
   18   10    8     -1.66      0.00
   20   10    8     -0.25      0.00
   22   10    8     -1.34      0.00
   24   10    8     -1.64      0.00
   26   10    8     -0.22      0.00
   28   10    8      3.02      0.00
   30   10    8      0.19      0.00
  -35   11    8     -0.69      0.00
  -33   11    8     -3.55      0.00
  -31   11    8      1.03      0.00
  -29   11    8      1.94      0.00
  -27   11    8      1.90      0.00
  -25   11    8      0.30      0.00
  -23   11    8     -0.23      0.00
  -21   11    8      1.71      0.00
  -19   11    8     -2.45      0.00
  -17   11    8      4.77      0.00
  -15   11    8      2.58      0.00
  -13   11    8     -0.44      0.00
  -11   11    8      0.91      0.00
   -9   11    8    -10.68      0.00
   -7   11    8      2.61      0.00
   -5   11    8     -3.09      0.00
   -3   11    8      1.54      0.00
   -1   11    8      8.76      0.00
    1   11    8      1.63      0.00
    3   11    8      2.52      0.00
    5   11    8      4.06      0.00
    7   11    8      2.48      0.00
    9   11    8     -3.09      0.00
   11   11    8      0.34      0.00
   13   11    8      0.61      0.00
   15   11    8      2.85      0.00
   17   11    8      0.62      0.00
   19   11    8     -4.02      0.00
   21   11    8     -1.80      0.00
   23   11    8      1.06      0.00
   25   11    8     -3.23      0.00
   27   11    8      1.06      0.00
   29   11    8     -1.21      0.00
  -34   12    8      1.44      0.00
  -32   12    8      0.68      0.00
  -30   12    8      2.61      0.00
  -28   12    8      3.11      0.00
  -26   12    8     -0.41      0.00
  -24   12    8     -0.39      0.00
  -22   12    8     -4.54      0.00
  -20   12    8      2.79      0.00
  -18   12    8      2.86      0.00
  -16   12    8      0.11      0.00
  -14   12    8     -0.48      0.00
  -12   12    8     -2.87      0.00
  -10   12    8      5.81      0.00
   -8   12    8      7.59      0.00
   -6   12    8      3.97      0.00
   -4   12    8     -7.47      0.00
   -2   12    8     -1.20      0.00
    0   12    8     -5.66      0.00
    2   12    8      2.23      0.00
    4   12    8     -0.60      0.00
    6   12    8      2.63      0.00
    8   12    8      6.46      0.00
   10   12    8      0.65      0.00
   12   12    8      2.46      0.00
   14   12    8     -1.10      0.00
   16   12    8      2.45      0.00
   18   12    8     -0.05      0.00
   20   12    8     -0.08      0.00
   22   12    8     -2.33      0.00
   24   12    8     -6.91      0.00
   26   12    8      0.21      0.00
   28   12    8     -2.02      0.00
  -33   13    8     -1.03      0.00
  -31   13    8      0.15      0.00
  -29   13    8     -0.33      0.00
  -27   13    8     -0.47      0.00
  -25   13    8     -0.31      0.00
  -23   13    8      3.65      0.00
  -21   13    8      2.30      0.00
  -19   13    8      2.88      0.00
  -17   13    8      4.34      0.00
  -15   13    8     -8.12      0.00
  -13   13    8     -2.19      0.00
  -11   13    8      1.67      0.00
   -9   13    8     -8.36      0.00
   -7   13    8     -2.08      0.00
   -5   13    8     -3.77      0.00
   -3   13    8      2.09      0.00
   -1   13    8      0.31      0.00
    1   13    8     -2.01      0.00
    3   13    8      1.39      0.00
    5   13    8     -0.43      0.00
    7   13    8      6.87      0.00
    9   13    8      0.39      0.00
   11   13    8      3.59      0.00
   13   13    8     -3.21      0.00
   15   13    8      0.72      0.00
   17   13    8      0.04      0.00
   19   13    8      2.09      0.00
   21   13    8      6.24      0.00
   23   13    8      2.58      0.00
   25   13    8     -1.92      0.00
   27   13    8      0.88      0.00
  -30   14    8     -2.16      0.00
  -28   14    8      0.92      0.00
  -26   14    8     -1.76      0.00
  -24   14    8     -3.97      0.00
  -22   14    8     -7.21      0.00
  -20   14    8      2.14      0.00
  -18   14    8     -2.99      0.00
  -16   14    8     -1.12      0.00
  -14   14    8     -4.29      0.00
  -12   14    8     -2.95      0.00
  -10   14    8      3.41      0.00
   -8   14    8      6.07      0.00
   -6   14    8      5.99      0.00
   -4   14    8     -5.83      0.00
   -2   14    8      4.43      0.00
    0   14    8      1.99      0.00
    2   14    8      0.16      0.00
    4   14    8     -3.26      0.00
    6   14    8     -3.21      0.00
    8   14    8     -0.50      0.00
   10   14    8      1.47      0.00
   12   14    8      3.77      0.00
   14   14    8     -0.56      0.00
   16   14    8     -6.25      0.00
   18   14    8      1.71      0.00
   20   14    8      5.81      0.00
   22   14    8      1.17      0.00
   24   14    8      3.68      0.00
   26   14    8     -3.25      0.00
  -29   15    8      0.97      0.00
  -27   15    8     -2.31      0.00
  -25   15    8      0.75      0.00
  -23   15    8      4.79      0.00
  -21   15    8      0.54      0.00
  -19   15    8      2.21      0.00
  -17   15    8      5.23      0.00
  -15   15    8      2.59      0.00
  -13   15    8      0.36      0.00
  -11   15    8      4.32      0.00
   -9   15    8      1.83      0.00
   -7   15    8     -1.96      0.00
   -5   15    8     -1.29      0.00
   -3   15    8      0.08      0.00
   -1   15    8      1.35      0.00
    1   15    8     -6.00      0.00
    3   15    8      2.02      0.00
    5   15    8     -1.07      0.00
    7   15    8     -0.77      0.00
    9   15    8      4.23      0.00
   11   15    8      3.13      0.00
   13   15    8     -0.66      0.00
   15   15    8      1.97      0.00
   17   15    8      2.55      0.00
   19   15    8      1.38      0.00
   21   15    8      4.99      0.00
   23   15    8     -0.94      0.00
   25   15    8      0.29      0.00
  -28   16    8     -2.34      0.00
  -26   16    8     -0.41      0.00
  -24   16    8     -1.12      0.00
  -22   16    8      1.14      0.00
  -20   16    8     -5.09      0.00
  -18   16    8     -2.50      0.00
  -16   16    8     -0.61      0.00
  -14   16    8     -4.83      0.00
  -12   16    8     -7.66      0.00
  -10   16    8     -7.71      0.00
   -8   16    8     -3.83      0.00
   -6   16    8      1.45      0.00
   -4   16    8     -2.55      0.00
   -2   16    8      0.97      0.00
    0   16    8     -2.25      0.00
    2   16    8      3.05      0.00
    4   16    8      2.25      0.00
    6   16    8      5.07      0.00
    8   16    8      2.35      0.00
   10   16    8      1.84      0.00
   12   16    8     -2.08      0.00
   14   16    8     -2.06      0.00
   16   16    8      4.90      0.00
   18   16    8      2.69      0.00
   20   16    8      0.77      0.00
   22   16    8      5.64      0.00
  -25   17    8     -1.29      0.00
  -23   17    8      0.34      0.00
  -21   17    8     -2.80      0.00
  -19   17    8      3.09      0.00
  -17   17    8     -1.95      0.00
  -15   17    8     -3.96      0.00
  -13   17    8     -3.37      0.00
  -11   17    8      2.64      0.00
   -9   17    8     -1.96      0.00
   -7   17    8      3.35      0.00
   -5   17    8     -6.67      0.00
   -3   17    8      0.90      0.00
   -1   17    8      1.30      0.00
    1   17    8     -0.15      0.00
    3   17    8      1.95      0.00
    5   17    8     -4.41      0.00
    7   17    8      1.24      0.00
    9   17    8     -4.09      0.00
   11   17    8     -4.25      0.00
   13   17    8      0.16      0.00
   15   17    8     -2.70      0.00
   17   17    8      4.44      0.00
   19   17    8     -1.14      0.00
   21   17    8      1.12      0.00
  -24   18    8      2.43      0.00
  -22   18    8     -1.97      0.00
  -20   18    8     -3.11      0.00
  -18   18    8      1.99      0.00
  -16   18    8      0.71      0.00
  -14   18    8      0.60      0.00
  -12   18    8     -0.20      0.00
  -10   18    8      8.64      0.00
   -8   18    8      1.40      0.00
   -6   18    8      1.56      0.00
   -4   18    8      0.89      0.00
   -2   18    8     -1.71      0.00
    0   18    8     -8.88      0.00
    2   18    8      1.01      0.00
    4   18    8     -0.60      0.00
    6   18    8      1.84      0.00
    8   18    8      2.99      0.00
   10   18    8      0.71      0.00
   12   18    8      3.03      0.00
   14   18    8     -2.06      0.00
   16   18    8      1.88      0.00
   18   18    8      3.81      0.00
  -21   19    8      1.26      0.00
  -19   19    8      3.89      0.00
  -17   19    8     -0.93      0.00
  -15   19    8      2.32      0.00
  -13   19    8     -3.64      0.00
  -11   19    8      1.51      0.00
   -9   19    8      7.13      0.00
   -7   19    8     -0.96      0.00
   -5   19    8      2.14      0.00
   -3   19    8     -2.47      0.00
   -1   19    8      5.82      0.00
    1   19    8      4.79      0.00
    3   19    8      1.76      0.00
    5   19    8      3.01      0.00
    7   19    8      1.98      0.00
    9   19    8     -1.98      0.00
   11   19    8      0.59      0.00
   13   19    8     -4.10      0.00
   15   19    8      1.79      0.00
  -18   20    8      2.43      0.00
  -16   20    8     -1.85      0.00
  -14   20    8      0.18      0.00
  -12   20    8      5.98      0.00
  -10   20    8      0.73      0.00
   -8   20    8      7.57      0.00
   -6   20    8     -8.67      0.00
   -4   20    8      1.78      0.00
   -2   20    8     -0.48      0.00
    0   20    8     -3.13      0.00
    2   20    8     -3.22      0.00
    4   20    8      1.58      0.00
    6   20    8      1.95      0.00
    8   20    8     -0.97      0.00
   10   20    8     -1.03      0.00
   12   20    8      1.06      0.00
  -13   21    8     -2.56      0.00
  -11   21    8      3.22      0.00
   -9   21    8      0.82      0.00
   -7   21    8     -0.67      0.00
   -5   21    8     -0.73      0.00
   -3   21    8     -0.30      0.00
   -1   21    8      1.48      0.00
    1   21    8      5.71      0.00
    3   21    8     -0.82      0.00
    5   21    8      0.41      0.00
    7   21    8     -4.78      0.00
  -39    1    9     -1.82      0.00
  -37    1    9     -0.23      0.00
  -35    1    9      0.48      0.00
  -33    1    9     -0.19      0.00
  -31    1    9      1.96      0.00
  -29    1    9      3.94      0.00
  -27    1    9     -0.34      0.00
  -25    1    9     -0.89      0.00
  -23    1    9     -1.81      0.00
  -21    1    9     -7.89      0.00
  -19    1    9     -0.97      0.00
  -17    1    9     -1.33      0.00
  -15    1    9     -2.73      0.00
  -13    1    9     -2.20      0.00
  -11    1    9      0.74      0.00
   -9    1    9      2.28      0.00
   -7    1    9     12.52      0.00
   -5    1    9    -34.89      0.00
   -3    1    9    -36.62      0.00
   -1    1    9     -1.03      0.00
    1    1    9    -20.67      0.00
    3    1    9     -8.71      0.00
    5    1    9     -1.56      0.00
    7    1    9      0.15      0.00
    9    1    9    -10.05      0.00
   11    1    9      2.28      0.00
   13    1    9     -5.58      0.00
   15    1    9     -5.99      0.00
   17    1    9     -3.08      0.00
   19    1    9      1.83      0.00
   21    1    9     -0.06      0.00
   23    1    9     -2.58      0.00
   25    1    9      1.58      0.00
   27    1    9     -0.21      0.00
   29    1    9      0.21      0.00
   31    1    9      1.39      0.00
   33    1    9      0.21      0.00
  -40    2    9      1.63      0.00
  -38    2    9     -0.54      0.00
  -36    2    9     -1.65      0.00
  -34    2    9     -0.52      0.00
  -32    2    9     -0.91      0.00
  -30    2    9     -1.72      0.00
  -28    2    9     -2.13      0.00
  -26    2    9      2.11      0.00
  -24    2    9     -0.09      0.00
  -22    2    9      2.46      0.00
  -20    2    9     -1.32      0.00
  -18    2    9    -12.05      0.00
  -16    2    9     11.07      0.00
  -14    2    9     -2.28      0.00
  -12    2    9     -1.06      0.00
  -10    2    9      6.80      0.00
   -8    2    9      6.70      0.00
   -6    2    9     21.96      0.00
   -4    2    9      0.04      0.00
   -2    2    9    -53.33      0.00
    0    2    9     25.68      0.00
    2    2    9     40.00      0.00
    4    2    9     25.58      0.00
    6    2    9      6.43      0.00
    8    2    9     14.56      0.00
   10    2    9      4.87      0.00
   12    2    9     -1.30      0.00
   14    2    9     -4.70      0.00
   16    2    9     -4.55      0.00
   18    2    9      2.34      0.00
   20    2    9     -5.24      0.00
   22    2    9     -1.93      0.00
   24    2    9     -1.34      0.00
   26    2    9     -0.43      0.00
   28    2    9      0.11      0.00
   30    2    9     -0.37      0.00
   32    2    9     -0.37      0.00
   34    2    9      0.75      0.00
  -39    3    9     -0.05      0.00
  -37    3    9     -0.51      0.00
  -35    3    9      0.22      0.00
  -33    3    9      0.57      0.00
  -31    3    9     -1.06      0.00
  -29    3    9     -0.55      0.00
  -27    3    9      0.46      0.00
  -25    3    9     -4.85      0.00
  -23    3    9      1.03      0.00
  -21    3    9     -5.01      0.00
  -19    3    9      2.96      0.00
  -17    3    9     17.82      0.00
  -15    3    9     -3.16      0.00
  -13    3    9     -0.52      0.00
  -11    3    9    -14.44      0.00
   -9    3    9    -27.51      0.00
   -7    3    9    -17.80      0.00
   -5    3    9     17.34      0.00
   -3    3    9    -64.49      0.00
   -1    3    9    -22.51      0.00
    1    3    9      2.62      0.00
    3    3    9    -19.09      0.00
    5    3    9     23.67      0.00
    7    3    9     25.36      0.00
    9    3    9      2.49      0.00
   11    3    9     -1.39      0.00
   13    3    9      5.24      0.00
   15    3    9     -0.90      0.00
   17    3    9      2.19      0.00
   19    3    9      2.24      0.00
   21    3    9     -2.99      0.00
   23    3    9     -2.54      0.00
   25    3    9     -4.92      0.00
   27    3    9     -1.11      0.00
   29    3    9      0.48      0.00
   31    3    9     -0.59      0.00
   33    3    9     -1.96      0.00
  -40    4    9     -1.45      0.00
  -38    4    9     -0.06      0.00
  -36    4    9     -1.66      0.00
  -34    4    9      0.75      0.00
  -32    4    9     -2.26      0.00
  -30    4    9     -3.09      0.00
  -28    4    9     -1.88      0.00
  -26    4    9      0.23      0.00
  -24    4    9      1.48      0.00
  -22    4    9     -2.69      0.00
  -20    4    9     -3.78      0.00
  -18    4    9    -14.23      0.00
  -16    4    9     -5.30      0.00
  -14    4    9     -4.80      0.00
  -12    4    9      4.35      0.00
  -10    4    9     21.94      0.00
   -8    4    9     15.61      0.00
   -6    4    9     -3.30      0.00
   -4    4    9    -34.77      0.00
   -2    4    9      5.45      0.00
    0    4    9    -29.45      0.00
    2    4    9      8.46      0.00
    4    4    9     46.69      0.00
    6    4    9      1.58      0.00
    8    4    9     -3.74      0.00
   10    4    9      4.07      0.00
   12    4    9      0.23      0.00
   14    4    9     -3.53      0.00
   16    4    9     -4.49      0.00
   18    4    9     -0.08      0.00
   20    4    9     -5.34      0.00
   22    4    9     -5.60      0.00
   24    4    9      2.94      0.00
   26    4    9      1.78      0.00
   28    4    9      0.61      0.00
   30    4    9      0.93      0.00
   32    4    9     -1.63      0.00
   34    4    9     -3.85      0.00
  -39    5    9     -1.20      0.00
  -37    5    9      0.54      0.00
  -35    5    9      2.37      0.00
  -33    5    9     -1.98      0.00
  -31    5    9     -2.04      0.00
  -29    5    9      0.22      0.00
  -27    5    9      5.99      0.00
  -25    5    9      2.45      0.00
  -23    5    9      1.07      0.00
  -21    5    9     -2.73      0.00
  -19    5    9     -1.04      0.00
  -17    5    9     20.31      0.00
  -15    5    9      6.97      0.00
  -13    5    9      3.50      0.00
  -11    5    9     -5.14      0.00
   -9    5    9    -43.17      0.00
   -7    5    9    -12.15      0.00
   -5    5    9     32.09      0.00
   -3    5    9      5.40      0.00
   -1    5    9     -8.76      0.00
    1    5    9     19.88      0.00
    3    5    9     -6.16      0.00
    5    5    9     14.14      0.00
    7    5    9     19.72      0.00
    9    5    9      1.86      0.00
   11    5    9      8.19      0.00
   13    5    9      6.59      0.00
   15    5    9     -3.14      0.00
   17    5    9      4.74      0.00
   19    5    9      2.22      0.00
   21    5    9     -1.51      0.00
   23    5    9      0.53      0.00
   25    5    9      0.08      0.00
   27    5    9      1.03      0.00
   29    5    9      0.07      0.00
   31    5    9     -2.19      0.00
   33    5    9     -0.83      0.00
  -38    6    9      3.48      0.00
  -36    6    9     -0.50      0.00
  -34    6    9     -1.06      0.00
  -32    6    9     -3.42      0.00
  -30    6    9     -3.09      0.00
  -28    6    9     -1.96      0.00
  -26    6    9     -3.46      0.00
  -24    6    9      0.96      0.00
  -22    6    9     -0.88      0.00
  -20    6    9     -0.30      0.00
  -18    6    9      8.88      0.00
  -16    6    9     12.59      0.00
  -14    6    9     19.55      0.00
  -12    6    9     -9.94      0.00
  -10    6    9     -2.83      0.00
   -8    6    9    -31.70      0.00
   -6    6    9      3.14      0.00
   -4    6    9      4.73      0.00
   -2    6    9    -14.84      0.00
    0    6    9     25.31      0.00
    2    6    9     -4.88      0.00
    4    6    9     10.61      0.00
    6    6    9      3.92      0.00
    8    6    9    -10.13      0.00
   10    6    9     -4.95      0.00
   12    6    9      3.90      0.00
   14    6    9     -2.29      0.00
   16    6    9     -1.16      0.00
   18    6    9     -1.82      0.00
   20    6    9     -4.61      0.00
   22    6    9      4.59      0.00
   24    6    9      4.26      0.00
   26    6    9     -1.07      0.00
   28    6    9     -4.74      0.00
   30    6    9      1.66      0.00
   32    6    9      0.54      0.00
  -37    7    9     -2.31      0.00
  -35    7    9     -3.98      0.00
  -33    7    9     -0.63      0.00
  -31    7    9      3.33      0.00
  -29    7    9      0.93      0.00
  -27    7    9      7.29      0.00
  -25    7    9      0.60      0.00
  -23    7    9      1.60      0.00
  -21    7    9      3.18      0.00
  -19    7    9      2.28      0.00
  -17    7    9      2.64      0.00
  -15    7    9     -5.75      0.00
  -13    7    9      5.75      0.00
  -11    7    9      0.21      0.00
   -9    7    9     -3.27      0.00
   -7    7    9    -25.16      0.00
   -5    7    9      5.35      0.00
   -3    7    9     16.88      0.00
   -1    7    9     -5.36      0.00
    1    7    9      5.41      0.00
    3    7    9      8.40      0.00
    5    7    9      6.40      0.00
    7    7    9      6.83      0.00
    9    7    9      9.56      0.00
   11    7    9      5.08      0.00
   13    7    9     -2.42      0.00
   15    7    9     -1.54      0.00
   17    7    9      0.36      0.00
   19    7    9      6.81      0.00
   21    7    9      4.22      0.00
   23    7    9      0.47      0.00
   25    7    9      3.07      0.00
   27    7    9     -0.70      0.00
   29    7    9     -0.42      0.00
   31    7    9      0.21      0.00
  -38    8    9      2.73      0.00
  -36    8    9      2.02      0.00
  -34    8    9     -1.07      0.00
  -32    8    9      1.04      0.00
  -30    8    9     -4.56      0.00
  -28    8    9     -0.29      0.00
  -26    8    9      1.41      0.00
  -24    8    9      3.75      0.00
  -22    8    9      1.36      0.00
  -20    8    9      1.65      0.00
  -18    8    9      0.62      0.00
  -16    8    9      6.32      0.00
  -14    8    9     -3.70      0.00
  -12    8    9      6.66      0.00
  -10    8    9    -21.01      0.00
   -8    8    9     -5.42      0.00
   -6    8    9     18.03      0.00
   -4    8    9     -1.46      0.00
   -2    8    9    -15.11      0.00
    0    8    9     -2.35      0.00
    2    8    9      0.64      0.00
    4    8    9      2.25      0.00
    6    8    9     12.55      0.00
    8    8    9     -6.08      0.00
   10    8    9     -7.28      0.00
   12    8    9      1.55      0.00
   14    8    9      1.59      0.00
   16    8    9     -6.37      0.00
   18    8    9     -6.24      0.00
   20    8    9      0.63      0.00
   22    8    9      0.58      0.00
   24    8    9     -0.85      0.00
   26    8    9     -0.03      0.00
   28    8    9      3.34      0.00
   30    8    9      0.80      0.00
   32    8    9     -1.49      0.00
  -37    9    9     -0.86      0.00
  -35    9    9      6.91      0.00
  -33    9    9      1.44      0.00
  -31    9    9      3.04      0.00
  -29    9    9     -0.67      0.00
  -27    9    9     -2.70      0.00
  -25    9    9      1.64      0.00
  -23    9    9      4.68      0.00
  -21    9    9      5.70      0.00
  -19    9    9      4.25      0.00
  -17    9    9      2.05      0.00
  -15    9    9     -0.80      0.00
  -13    9    9    -13.31      0.00
  -11    9    9     -8.20      0.00
   -9    9    9      0.15      0.00
   -7    9    9    -14.48      0.00
   -5    9    9     -9.13      0.00
   -3    9    9     12.01      0.00
   -1    9    9      6.67      0.00
    1    9    9     10.08      0.00
    3    9    9    -12.66      0.00
    5    9    9      9.56      0.00
    7    9    9     -1.11      0.00
    9    9    9      5.98      0.00
   11    9    9      0.75      0.00
   13    9    9     -5.81      0.00
   15    9    9      1.39      0.00
   17    9    9      1.36      0.00
   19    9    9      1.42      0.00
   21    9    9      0.17      0.00
   23    9    9      1.87      0.00
   25    9    9      1.39      0.00
   27    9    9      0.71      0.00
   29    9    9      0.32      0.00
   31    9    9     -1.21      0.00
  -36   10    9      1.38      0.00
  -34   10    9      0.84      0.00
  -32   10    9      0.05      0.00
  -30   10    9     -2.56      0.00
  -28   10    9     -0.01      0.00
  -26   10    9      4.07      0.00
  -24   10    9      4.68      0.00
  -22   10    9     -1.08      0.00
  -20   10    9     -3.94      0.00
  -18   10    9      1.13      0.00
  -16   10    9    -11.83      0.00
  -14   10    9     -3.92      0.00
  -12   10    9     -0.61      0.00
  -10   10    9      1.79      0.00
   -8   10    9      8.80      0.00
   -6   10    9      3.41      0.00
   -4   10    9      2.76      0.00
   -2   10    9    -19.18      0.00
    0   10    9     -8.00      0.00
    2   10    9      0.72      0.00
    4   10    9     -1.48      0.00
    6   10    9     -1.81      0.00
    8   10    9     -2.26      0.00
   10   10    9      2.74      0.00
   12   10    9      1.09      0.00
   14   10    9      3.63      0.00
   16   10    9      2.85      0.00
   18   10    9     -1.49      0.00
   20   10    9     -0.71      0.00
   22   10    9     -1.83      0.00
   24   10    9     -1.93      0.00
   26   10    9      2.32      0.00
   28   10    9     -1.14      0.00
   30   10    9     -0.03      0.00
  -35   11    9      0.73      0.00
  -33   11    9     -0.10      0.00
  -31   11    9      0.52      0.00
  -29   11    9     -1.18      0.00
  -27   11    9      3.79      0.00
  -25   11    9      5.36      0.00
  -23   11    9      5.73      0.00
  -21   11    9      2.72      0.00
  -19   11    9     -1.85      0.00
  -17   11    9      0.57      0.00
  -15   11    9     -4.59      0.00
  -13   11    9     -2.78      0.00
  -11   11    9     -0.67      0.00
   -9   11    9     -9.33      0.00
   -7   11    9      6.15      0.00
   -5   11    9     -2.93      0.00
   -3   11    9     11.61      0.00
   -1   11    9      0.91      0.00
    1   11    9      7.30      0.00
    3   11    9    -12.60      0.00
    5   11    9      1.92      0.00
    7   11    9      6.54      0.00
    9   11    9     -1.87      0.00
   11   11    9     -0.59      0.00
   13   11    9     -5.15      0.00
   15   11    9     -0.09      0.00
   17   11    9     -1.26      0.00
   19   11    9     -1.25      0.00
   21   11    9      2.38      0.00
   23   11    9     -0.48      0.00
   25   11    9     -0.54      0.00
   27   11    9     -1.20      0.00
   29   11    9     -0.28      0.00
  -34   12    9      4.35      0.00
  -32   12    9     -2.24      0.00
  -30   12    9     -2.16      0.00
  -28   12    9      1.11      0.00
  -26   12    9      2.32      0.00
  -24   12    9      1.24      0.00
  -22   12    9     -4.29      0.00
  -20   12    9      0.84      0.00
  -18   12    9     -1.97      0.00
  -16   12    9     -4.81      0.00
  -14   12    9     -2.82      0.00
  -12   12    9     -0.35      0.00
  -10   12    9      7.59      0.00
   -8   12    9      6.98      0.00
   -6   12    9     -4.67      0.00
   -4   12    9     -0.97      0.00
   -2   12    9     -6.85      0.00
    0   12    9     -1.99      0.00
    2   12    9      3.81      0.00
    4   12    9     -1.79      0.00
    6   12    9      0.32      0.00
    8   12    9     -3.20      0.00
   10   12    9      6.15      0.00
   12   12    9      1.50      0.00
   14   12    9     -1.14      0.00
   16   12    9     -5.17      0.00
   18   12    9      1.12      0.00
   20   12    9     -0.51      0.00
   22   12    9     -1.58      0.00
   24   12    9      1.27      0.00
   26   12    9      1.24      0.00
   28   12    9      1.83      0.00
  -33   13    9     -2.34      0.00
  -31   13    9      0.67      0.00
  -29   13    9      2.09      0.00
  -27   13    9      2.07      0.00
  -25   13    9     -0.28      0.00
  -23   13    9     -0.24      0.00
  -21   13    9     -3.55      0.00
  -19   13    9     -0.06      0.00
  -17   13    9      3.03      0.00
  -15   13    9     -1.41      0.00
  -13   13    9      5.11      0.00
  -11   13    9      0.30      0.00
   -9   13    9     -7.06      0.00
   -7   13    9     -2.00      0.00
   -5   13    9      2.11      0.00
   -3   13    9      7.12      0.00
   -1   13    9     -0.01      0.00
    1   13    9      4.95      0.00
    3   13    9     -6.99      0.00
    5   13    9      6.69      0.00
    7   13    9      2.59      0.00
    9   13    9      1.43      0.00
   11   13    9     -3.57      0.00
   13   13    9     -0.38      0.00
   15   13    9      1.39      0.00
   17   13    9      3.33      0.00
   19   13    9      4.21      0.00
   21   13    9     -1.95      0.00
   23   13    9      3.68      0.00
   25   13    9      0.91      0.00
   27   13    9      2.55      0.00
  -30   14    9      0.50      0.00
  -28   14    9      1.67      0.00
  -26   14    9      1.36      0.00
  -24   14    9     -0.14      0.00
  -22   14    9     -3.87      0.00
  -20   14    9     -1.85      0.00
  -18   14    9     -5.61      0.00
  -16   14    9      1.12      0.00
  -14   14    9     -2.48      0.00
  -12   14    9     -1.15      0.00
  -10   14    9      0.63      0.00
   -8   14    9      6.82      0.00
   -6   14    9     -3.56      0.00
   -4   14    9     -7.53      0.00
   -2   14    9      1.37      0.00
    0   14    9      0.85      0.00
    2   14    9      0.74      0.00
    4   14    9     -1.30      0.00
    6   14    9     -4.88      0.00
    8   14    9      1.92      0.00
   10   14    9     -1.93      0.00
   12   14    9      0.84      0.00
   14   14    9     -1.89      0.00
   16   14    9      0.83      0.00
   18   14    9     -2.32      0.00
   20   14    9     -3.56      0.00
   22   14    9      1.31      0.00
   24   14    9      1.94      0.00
  -29   15    9      0.21      0.00
  -27   15    9      3.33      0.00
  -25   15    9      0.00      0.00
  -23   15    9     -4.91      0.00
  -21   15    9     -2.42      0.00
  -19   15    9     -0.14      0.00
  -17   15    9     -2.76      0.00
  -15   15    9      2.38      0.00
  -13   15    9     -2.09      0.00
  -11   15    9     -5.26      0.00
   -9   15    9      0.53      0.00
   -7   15    9     -0.06      0.00
   -5   15    9      3.16      0.00
   -3   15    9      4.19      0.00
   -1   15    9     -2.95      0.00
    1   15    9     -1.07      0.00
    3   15    9     -0.21      0.00
    5   15    9      1.42      0.00
    7   15    9     -1.32      0.00
    9   15    9      2.38      0.00
   11   15    9     -3.71      0.00
   13   15    9      1.99      0.00
   15   15    9      4.84      0.00
   17   15    9      2.10      0.00
   19   15    9     -4.27      0.00
   21   15    9      0.04      0.00
   23   15    9     -3.02      0.00
  -28   16    9      1.42      0.00
  -26   16    9     -2.13      0.00
  -24   16    9      0.88      0.00
  -22   16    9      2.17      0.00
  -20   16    9      0.48      0.00
  -18   16    9      1.47      0.00
  -16   16    9     -6.05      0.00
  -14   16    9     -3.40      0.00
  -12   16    9      1.45      0.00
  -10   16    9     -0.61      0.00
   -8   16    9      7.19      0.00
   -6   16    9     -1.16      0.00
   -4   16    9     -1.20      0.00
   -2   16    9     -1.81      0.00
    0   16    9      2.50      0.00
    2   16    9     -0.44      0.00
    4   16    9     -3.98      0.00
    6   16    9      4.08      0.00
    8   16    9      0.22      0.00
   10   16    9     -5.96      0.00
   12   16    9      3.31      0.00
   14   16    9      2.18      0.00
   16   16    9      1.24      0.00
   18   16    9      1.55      0.00
   20   16    9     -1.49      0.00
   22   16    9     -0.36      0.00
  -25   17    9      1.41      0.00
  -23   17    9      0.46      0.00
  -21   17    9     -1.68      0.00
  -19   17    9      4.25      0.00
  -17   17    9     -2.49      0.00
  -15   17    9      3.16      0.00
  -13   17    9     -0.70      0.00
  -11   17    9      7.03      0.00
   -9   17    9     -0.26      0.00
   -7   17    9     -1.94      0.00
   -5   17    9     -1.49      0.00
   -3   17    9      4.89      0.00
   -1   17    9      1.54      0.00
    1   17    9     -0.94      0.00
    3   17    9     -0.21      0.00
    5   17    9     -1.50      0.00
    7   17    9     -4.40      0.00
    9   17    9     -2.01      0.00
   11   17    9      0.91      0.00
   13   17    9      0.69      0.00
   15   17    9      1.49      0.00
   17   17    9      3.47      0.00
   19   17    9     -4.62      0.00
  -24   18    9     -0.81      0.00
  -22   18    9      0.57      0.00
  -20   18    9     -1.48      0.00
  -18   18    9      0.00      0.00
  -16   18    9      3.23      0.00
  -14   18    9     -1.57      0.00
  -12   18    9     -0.94      0.00
  -10   18    9      6.30      0.00
   -8   18    9     -1.54      0.00
   -6   18    9     10.12      0.00
   -4   18    9      5.49      0.00
   -2   18    9      2.05      0.00
    0   18    9      3.78      0.00
    2   18    9     -1.47      0.00
    4   18    9      0.10      0.00
    6   18    9     -4.92      0.00
    8   18    9      3.62      0.00
   10   18    9     -1.39      0.00
   12   18    9     -1.88      0.00
   14   18    9     -1.90      0.00
   16   18    9     -3.53      0.00
   18   18    9      0.88      0.00
  -21   19    9      0.91      0.00
  -19   19    9      0.11      0.00
  -17   19    9      0.50      0.00
  -15   19    9     -2.90      0.00
  -13   19    9      4.19      0.00
  -11   19    9     -4.68      0.00
   -9   19    9      4.11      0.00
   -7   19    9     -5.69      0.00
   -5   19    9     -0.14      0.00
   -3   19    9     -0.94      0.00
   -1   19    9      3.28      0.00
    1   19    9     -4.12      0.00
    3   19    9     -3.38      0.00
    5   19    9     -5.59      0.00
    7   19    9     -4.53      0.00
    9   19    9     -0.21      0.00
   11   19    9     -1.12      0.00
   13   19    9      0.05      0.00
   15   19    9     -1.84      0.00
  -16   20    9      0.24      0.00
  -14   20    9      0.79      0.00
  -12   20    9      5.60      0.00
  -10   20    9     -0.86      0.00
   -8   20    9      0.89      0.00
   -6   20    9      2.84      0.00
   -4   20    9      0.83      0.00
   -2   20    9      2.64      0.00
    0   20    9      1.34      0.00
    2   20    9      2.56      0.00
    4   20    9      0.37      0.00
    6   20    9     -1.87      0.00
    8   20    9      1.10      0.00
   10   20    9      3.77      0.00
  -11   21    9      5.07      0.00
   -9   21    9     -0.18      0.00
   -7   21    9      6.85      0.00
   -5   21    9     -1.84      0.00
   -3   21    9     -5.58      0.00
   -1   21    9     -1.43      0.00
    1   21    9      3.94      0.00
    3   21    9      3.80      0.00
    5   21    9     -3.08      0.00
  -40    0   10      1.62      0.00
  -38    0   10      0.81      0.00
  -36    0   10      4.20      0.00
  -34    0   10      2.31      0.00
  -32    0   10      2.21      0.00
  -30    0   10     -0.15      0.00
  -28    0   10     -5.11      0.00
  -26    0   10      2.73      0.00
  -24    0   10      2.75      0.00
  -22    0   10      9.01      0.00
  -20    0   10     11.59      0.00
  -18    0   10      4.49      0.00
  -16    0   10     14.63      0.00
  -14    0   10    -14.69      0.00
  -12    0   10     -1.75      0.00
  -10    0   10     12.50      0.00
   -8    0   10    -12.46      0.00
   -6    0   10     10.51      0.00
   -4    0   10    -46.97      0.00
   -2    0   10     21.74      0.00
    0    0   10    -57.41      0.00
    2    0   10     71.21      0.00
    4    0   10    -20.40      0.00
    6    0   10      2.60      0.00
    8    0   10      9.51      0.00
   10    0   10    -24.41      0.00
   12    0   10     -8.86      0.00
   14    0   10     -2.15      0.00
   16    0   10     -2.96      0.00
   18    0   10      0.17      0.00
   20    0   10      2.81      0.00
   22    0   10      0.33      0.00
   24    0   10      0.36      0.00
   26    0   10      1.31      0.00
   28    0   10     -0.87      0.00
   30    0   10      0.17      0.00
   32    0   10     -2.44      0.00
   34    0   10      1.73      0.00
  -39    1   10     -2.18      0.00
  -37    1   10     -3.52      0.00
  -35    1   10     -1.35      0.00
  -33    1   10     -0.99      0.00
  -31    1   10      1.66      0.00
  -29    1   10     -2.25      0.00
  -27    1   10      2.56      0.00
  -25    1   10      1.03      0.00
  -23    1   10     -4.46      0.00
  -21    1   10    -12.27      0.00
  -19    1   10     -6.40      0.00
  -17    1   10     -6.53      0.00
  -15    1   10      3.83      0.00
  -13    1   10     -9.12      0.00
  -11    1   10    -30.55      0.00
   -9    1   10     12.68      0.00
   -7    1   10    -11.76      0.00
   -5    1   10      4.38      0.00
   -3    1   10     75.20      0.00
   -1    1   10     84.51      0.00
    1    1   10     18.18      0.00
    3    1   10      1.68      0.00
    5    1   10      2.89      0.00
    7    1   10      5.13      0.00
    9    1   10     -3.87      0.00
   11    1   10      1.07      0.00
   13    1   10     -8.85      0.00
   15    1   10    -14.02      0.00
   17    1   10      1.96      0.00
   19    1   10     -3.79      0.00
   21    1   10     -9.18      0.00
   23    1   10      0.46      0.00
   25    1   10     -1.38      0.00
   27    1   10     -0.61      0.00
   29    1   10     -2.47      0.00
   31    1   10     -0.60      0.00
   33    1   10     -1.62      0.00
  -40    2   10     -0.20      0.00
  -38    2   10     -1.43      0.00
  -36    2   10     -0.01      0.00
  -34    2   10      2.10      0.00
  -32    2   10      0.86      0.00
  -30    2   10     -3.36      0.00
  -28    2   10     -2.18      0.00
  -26    2   10      1.77      0.00
  -24    2   10     -2.39      0.00
  -22    2   10      5.33      0.00
  -20    2   10      1.79      0.00
  -18    2   10     -0.20      0.00
  -16    2   10      5.12      0.00
  -14    2   10     -0.74      0.00
  -12    2   10      7.40      0.00
  -10    2   10     28.84      0.00
   -8    2   10     -1.57      0.00
   -6    2   10      7.88      0.00
   -4    2   10    -40.85      0.00
   -2    2   10    -16.87      0.00
    0    2   10    -31.42      0.00
    2    2   10     79.57      0.00
    4    2   10     -1.99      0.00
    6    2   10     14.09      0.00
    8    2   10      9.31      0.00
   10    2   10    -13.96      0.00
   12    2   10     -8.48      0.00
   14    2   10      4.89      0.00
   16    2   10      4.24      0.00
   18    2   10      1.20      0.00
   20    2   10      2.79      0.00
   22    2   10     -1.02      0.00
   24    2   10     -1.67      0.00
   26    2   10     -0.82      0.00
   28    2   10      2.31      0.00
   30    2   10     -1.60      0.00
   32    2   10     -2.29      0.00
   34    2   10      1.87      0.00
  -39    3   10     -1.37      0.00
  -37    3   10     -1.99      0.00
  -35    3   10     -0.07      0.00
  -33    3   10     -1.22      0.00
  -31    3   10     -1.33      0.00
  -29    3   10      1.46      0.00
  -27    3   10      0.75      0.00
  -25    3   10     -0.18      0.00
  -23    3   10      1.57      0.00
  -21    3   10     -5.57      0.00
  -19    3   10     -0.20      0.00
  -17    3   10     -4.83      0.00
  -15    3   10     -1.01      0.00
  -13    3   10     -6.80      0.00
  -11    3   10    -22.96      0.00
   -9    3   10     -4.10      0.00
   -7    3   10      8.34      0.00
   -5    3   10     14.61      0.00
   -3    3   10     34.70      0.00
   -1    3   10    -14.61      0.00
    1    3   10    -12.40      0.00
    3    3   10     13.58      0.00
    5    3   10    -13.52      0.00
    7    3   10      8.79      0.00
    9    3   10      4.14      0.00
   11    3   10      8.69      0.00
   13    3   10      2.11      0.00
   15    3   10    -10.20      0.00
   17    3   10     -0.33      0.00
   19    3   10     -0.77      0.00
   21    3   10     -1.14      0.00
   23    3   10      2.00      0.00
   25    3   10     -0.37      0.00
   27    3   10      1.89      0.00
   29    3   10     -2.63      0.00
   31    3   10     -0.89      0.00
   33    3   10     -0.29      0.00
  -40    4   10      0.15      0.00
  -38    4   10     -2.43      0.00
  -36    4   10     -0.39      0.00
  -34    4   10      0.91      0.00
  -32    4   10      1.14      0.00
  -30    4   10     -1.99      0.00
  -28    4   10     -3.01      0.00
  -26    4   10      4.27      0.00
  -24    4   10      2.04      0.00
  -22    4   10     -0.01      0.00
  -20    4   10      2.98      0.00
  -18    4   10     -8.73      0.00
  -16    4   10     -4.02      0.00
  -14    4   10     -1.65      0.00
  -12    4   10     -8.82      0.00
  -10    4   10     20.59      0.00
   -8    4   10     23.74      0.00
   -6    4   10      1.74      0.00
   -4    4   10     -1.56      0.00
   -2    4   10     46.80      0.00
    0    4   10    -43.25      0.00
    2    4   10     22.62      0.00
    4    4   10     -2.20      0.00
    6    4   10     20.64      0.00
    8    4   10    -13.16      0.00
   10    4   10     -0.01      0.00
   12    4   10     -0.45      0.00
   14    4   10     -5.66      0.00
   16    4   10      4.21      0.00
   18    4   10      2.04      0.00
   20    4   10      1.34      0.00
   22    4   10     -0.35      0.00
   24    4   10     -2.09      0.00
   26    4   10     -1.07      0.00
   28    4   10     -0.26      0.00
   30    4   10      1.19      0.00
   32    4   10     -0.08      0.00
  -39    5   10      1.14      0.00
  -37    5   10     -0.51      0.00
  -35    5   10     -2.68      0.00
  -33    5   10      0.74      0.00
  -31    5   10     -0.66      0.00
  -29    5   10      0.92      0.00
  -27    5   10      2.91      0.00
  -25    5   10     -3.35      0.00
  -23    5   10      3.52      0.00
  -21    5   10     -3.69      0.00
  -19    5   10      8.02      0.00
  -17    5   10      8.65      0.00
  -15    5   10     19.41      0.00
  -13    5   10     10.45      0.00
  -11    5   10     -5.95      0.00
   -9    5   10    -19.44      0.00
   -7    5   10    -14.85      0.00
   -5    5   10     15.81      0.00
   -3    5   10      2.78      0.00
   -1    5   10     16.58      0.00
    1    5   10     22.40      0.00
    3    5   10     -6.63      0.00
    5    5   10    -16.61      0.00
    7    5   10      6.89      0.00
    9    5   10      3.22      0.00
   11    5   10      4.33      0.00
   13    5   10      3.50      0.00
   15    5   10     -1.41      0.00
   17    5   10     -3.46      0.00
   19    5   10      4.37      0.00
   21    5   10      6.53      0.00
   23    5   10      2.66      0.00
   25    5   10     -0.12      0.00
   27    5   10      0.07      0.00
   29    5   10      1.29      0.00
   31    5   10      1.39      0.00
   33    5   10      0.02      0.00
  -38    6   10     -4.09      0.00
  -36    6   10     -2.65      0.00
  -34    6   10      0.50      0.00
  -32    6   10      2.92      0.00
  -30    6   10     -1.64      0.00
  -28    6   10     -1.92      0.00
  -26    6   10     -0.78      0.00
  -24    6   10     -1.29      0.00
  -22    6   10     -1.54      0.00
  -20    6   10     -4.42      0.00
  -18    6   10     -4.83      0.00
  -16    6   10     -3.01      0.00
  -14    6   10      1.88      0.00
  -12    6   10     -4.52      0.00
  -10    6   10      3.32      0.00
   -8    6   10      1.20      0.00
   -6    6   10      8.14      0.00
   -4    6   10    -10.18      0.00
   -2    6   10      2.87      0.00
    0    6   10    -31.76      0.00
    2    6   10      0.93      0.00
    4    6   10      8.34      0.00
    6    6   10     21.85      0.00
    8    6   10     -1.27      0.00
   10    6   10     -2.09      0.00
   12    6   10     -3.56      0.00
   14    6   10      0.05      0.00
   16    6   10      2.11      0.00
   18    6   10      2.79      0.00
   20    6   10      0.87      0.00
   22    6   10     -2.25      0.00
   24    6   10     -3.94      0.00
   26    6   10      0.29      0.00
   28    6   10      0.82      0.00
   30    6   10     -0.71      0.00
   32    6   10      2.13      0.00
  -37    7   10     -2.00      0.00
  -35    7   10     -1.39      0.00
  -33    7   10      0.38      0.00
  -31    7   10     -1.82      0.00
  -29    7   10      0.74      0.00
  -27    7   10      1.70      0.00
  -25    7   10     -0.19      0.00
  -23    7   10      3.48      0.00
  -21    7   10      1.96      0.00
  -19    7   10      4.22      0.00
  -17    7   10     -4.18      0.00
  -15    7   10     -3.25      0.00
  -13    7   10      5.03      0.00
  -11    7   10      0.99      0.00
   -9    7   10     11.97      0.00
   -7    7   10     -4.10      0.00
   -5    7   10     -6.14      0.00
   -3    7   10     19.94      0.00
   -1    7   10      8.58      0.00
    1    7   10     -5.25      0.00
    3    7   10    -12.10      0.00
    5    7   10     -9.23      0.00
    7    7   10      3.98      0.00
    9    7   10     -1.02      0.00
   11    7   10      6.35      0.00
   13    7   10      0.21      0.00
   15    7   10     -3.99      0.00
   17    7   10     -3.08      0.00
   19    7   10      4.76      0.00
   21    7   10      3.04      0.00
   23    7   10      4.68      0.00
   25    7   10      3.60      0.00
   27    7   10      5.38      0.00
   29    7   10      3.86      0.00
   31    7   10      1.89      0.00
  -38    8   10     -1.57      0.00
  -36    8   10      2.63      0.00
  -34    8   10     -0.91      0.00
  -32    8   10     -1.49      0.00
  -30    8   10     -1.19      0.00
  -28    8   10     -1.67      0.00
  -26    8   10     -2.36      0.00
  -24    8   10     -1.68      0.00
  -22    8   10     -1.16      0.00
  -20    8   10     -4.90      0.00
  -18    8   10     -4.72      0.00
  -16    8   10      1.76      0.00
  -14    8   10      0.32      0.00
  -12    8   10      7.63      0.00
  -10    8   10     -0.70      0.00
   -8    8   10     12.06      0.00
   -6    8   10     -0.55      0.00
   -4    8   10    -12.06      0.00
   -2    8   10     -5.06      0.00
    0    8   10     -2.90      0.00
    2    8   10      4.75      0.00
    4    8   10      3.83      0.00
    6    8   10     17.46      0.00
    8    8   10     -4.79      0.00
   10    8   10      4.76      0.00
   12    8   10      0.49      0.00
   14    8   10      1.69      0.00
   16    8   10      1.56      0.00
   18    8   10     -2.66      0.00
   20    8   10     -3.91      0.00
   22    8   10      0.48      0.00
   24    8   10     -0.08      0.00
   26    8   10      2.94      0.00
   28    8   10      0.05      0.00
   30    8   10     -2.46      0.00
  -37    9   10      1.48      0.00
  -35    9   10      3.51      0.00
  -33    9   10     -2.59      0.00
  -31    9   10     -1.13      0.00
  -29    9   10     -1.86      0.00
  -27    9   10     -3.95      0.00
  -25    9   10     -2.31      0.00
  -23    9   10     -1.15      0.00
  -21    9   10     -3.77      0.00
  -19    9   10      1.41      0.00
  -17    9   10      1.25      0.00
  -15    9   10     -0.32      0.00
  -13    9   10     -0.59      0.00
  -11    9   10     10.00      0.00
   -9    9   10      0.16      0.00
   -7    9   10     -7.90      0.00
   -5    9   10    -13.37      0.00
   -3    9   10      8.92      0.00
   -1    9   10      1.63      0.00
    1    9   10     -8.62      0.00
    3    9   10     -7.31      0.00
    5    9   10      2.57      0.00
    7    9   10      1.41      0.00
    9    9   10      7.57      0.00
   11    9   10      1.77      0.00
   13    9   10     -2.52      0.00
   15    9   10      6.29      0.00
   17    9   10      2.28      0.00
   19    9   10     -1.40      0.00
   21    9   10     -0.94      0.00
   23    9   10      0.16      0.00
   25    9   10      2.11      0.00
   27    9   10      0.07      0.00
   29    9   10      1.00      0.00
  -36   10   10     -5.75      0.00
  -34   10   10     -3.21      0.00
  -32   10   10     -1.00      0.00
  -30   10   10     -0.12      0.00
  -28   10   10      2.47      0.00
  -26   10   10      0.26      0.00
  -24   10   10     -1.51      0.00
  -22   10   10     -7.89      0.00
  -20   10   10     -3.12      0.00
  -18   10   10     -2.91      0.00
  -16   10   10     -8.20      0.00
  -14   10   10     -0.04      0.00
  -12   10   10     -0.61      0.00
  -10   10   10      6.39      0.00
   -8   10   10      5.87      0.00
   -6   10   10     13.07      0.00
   -4   10   10     -0.79      0.00
   -2   10   10     -7.71      0.00
    0   10   10     -4.11      0.00
    2   10   10     -1.55      0.00
    4   10   10     -5.44      0.00
    6   10   10      5.36      0.00
    8   10   10      3.45      0.00
   10   10   10      0.84      0.00
   12   10   10     -3.29      0.00
   14   10   10     -0.98      0.00
   16   10   10     -0.19      0.00
   18   10   10     -1.15      0.00
   20   10   10     -2.93      0.00
   22   10   10      1.40      0.00
   24   10   10     -2.85      0.00
   26   10   10     -2.12      0.00
   28   10   10      0.81      0.00
   30   10   10      4.70      0.00
  -35   11   10      1.56      0.00
  -33   11   10     -4.85      0.00
  -31   11   10     -1.66      0.00
  -29   11   10      0.74      0.00
  -27   11   10      0.29      0.00
  -25   11   10     -3.76      0.00
  -23   11   10      3.09      0.00
  -21   11   10     -1.71      0.00
  -19   11   10     -2.68      0.00
  -17   11   10      8.00      0.00
  -15   11   10      3.95      0.00
  -13   11   10      3.67      0.00
  -11   11   10     -0.90      0.00
   -9   11   10     -6.26      0.00
   -7   11   10      2.98      0.00
   -5   11   10     -1.27      0.00
   -3   11   10      3.78      0.00
   -1   11   10      4.22      0.00
    1   11   10     -1.28      0.00
    3   11   10      0.55      0.00
    5   11   10      1.87      0.00
    7   11   10      3.25      0.00
    9   11   10     -1.62      0.00
   11   11   10      2.60      0.00
   13   11   10     -4.26      0.00
   15   11   10     -6.17      0.00
   17   11   10     -2.66      0.00
   19   11   10     -4.24      0.00
   21   11   10     -1.06      0.00
   23   11   10      1.50      0.00
   25   11   10     -1.61      0.00
   27   11   10     -0.11      0.00
   29   11   10     -0.71      0.00
  -34   12   10     -2.13      0.00
  -32   12   10      1.62      0.00
  -30   12   10      3.89      0.00
  -28   12   10      0.74      0.00
  -26   12   10     -0.47      0.00
  -24   12   10     -2.67      0.00
  -22   12   10     -7.94      0.00
  -20   12   10      0.75      0.00
  -18   12   10      1.06      0.00
  -16   12   10      0.71      0.00
  -14   12   10     -0.71      0.00
  -12   12   10      0.92      0.00
  -10   12   10      1.89      0.00
   -8   12   10     -6.97      0.00
   -6   12   10      0.30      0.00
   -4   12   10     -4.82      0.00
   -2   12   10     -3.64      0.00
    0   12   10     -3.33      0.00
    2   12   10     -1.62      0.00
    4   12   10      2.78      0.00
    6   12   10      0.84      0.00
    8   12   10      0.39      0.00
   10   12   10      0.58      0.00
   12   12   10     -1.67      0.00
   14   12   10     -1.10      0.00
   16   12   10      3.92      0.00
   18   12   10      0.98      0.00
   20   12   10     -2.57      0.00
   22   12   10      1.26      0.00
   24   12   10      1.05      0.00
   26   12   10     -1.93      0.00
  -33   13   10      2.03      0.00
  -31   13   10      0.21      0.00
  -29   13   10     -2.75      0.00
  -27   13   10     -1.76      0.00
  -25   13   10     -0.50      0.00
  -23   13   10      1.39      0.00
  -21   13   10     -5.94      0.00
  -19   13   10     -3.61      0.00
  -17   13   10     -2.09      0.00
  -15   13   10      2.47      0.00
  -13   13   10      0.52      0.00
  -11   13   10      0.58      0.00
   -9   13   10     -3.36      0.00
   -7   13   10      1.62      0.00
   -5   13   10     -1.63      0.00
   -3   13   10     -3.97      0.00
   -1   13   10      5.06      0.00
    1   13   10     -1.93      0.00
    3   13   10      1.87      0.00
    5   13   10      0.31      0.00
    7   13   10      6.34      0.00
    9   13   10      0.25      0.00
   11   13   10     -0.01      0.00
   13   13   10      1.12      0.00
   15   13   10      3.01      0.00
   17   13   10     -2.88      0.00
   19   13   10     -0.49      0.00
   21   13   10      8.71      0.00
   23   13   10      3.26      0.00
   25   13   10      0.17      0.00
  -30   14   10     -3.11      0.00
  -28   14   10      3.05      0.00
  -26   14   10     -0.37      0.00
  -24   14   10     -4.54      0.00
  -22   14   10      5.02      0.00
  -20   14   10     -0.58      0.00
  -18   14   10     -4.34      0.00
  -16   14   10      1.34      0.00
  -14   14   10     -2.70      0.00
  -12   14   10     -2.69      0.00
  -10   14   10      3.37      0.00
   -8   14   10      1.44      0.00
   -6   14   10      0.54      0.00
   -4   14   10     -4.25      0.00
   -2   14   10     -1.11      0.00
    0   14   10     -0.65      0.00
    2   14   10      0.55      0.00
    4   14   10     -4.41      0.00
    6   14   10     -8.15      0.00
    8   14   10      2.16      0.00
   10   14   10      4.09      0.00
   12   14   10      8.94      0.00
   14   14   10      1.55      0.00
   16   14   10     -2.54      0.00
   18   14   10     -3.20      0.00
   20   14   10      1.12      0.00
   22   14   10      0.78      0.00
   24   14   10     -0.37      0.00
  -29   15   10      0.98      0.00
  -27   15   10     -1.79      0.00
  -25   15   10      4.31      0.00
  -23   15   10     -1.06      0.00
  -21   15   10     -5.17      0.00
  -19   15   10      0.80      0.00
  -17   15   10     -2.30      0.00
  -15   15   10      1.08      0.00
  -13   15   10      2.04      0.00
  -11   15   10      2.66      0.00
   -9   15   10     -0.54      0.00
   -7   15   10      1.06      0.00
   -5   15   10      1.43      0.00
   -3   15   10     -1.96      0.00
   -1   15   10      3.12      0.00
    1   15   10     -1.81      0.00
    3   15   10      1.70      0.00
    5   15   10      2.71      0.00
    7   15   10     -4.10      0.00
    9   15   10     -6.83      0.00
   11   15   10     -3.22      0.00
   13   15   10     -2.57      0.00
   15   15   10     -1.77      0.00
   17   15   10      1.08      0.00
   19   15   10     -0.22      0.00
   21   15   10     -2.15      0.00
   23   15   10     -2.30      0.00
  -28   16   10      3.55      0.00
  -26   16   10      2.49      0.00
  -24   16   10      2.94      0.00
  -22   16   10      2.06      0.00
  -20   16   10      3.37      0.00
  -18   16   10      3.32      0.00
  -16   16   10      0.08      0.00
  -14   16   10     -4.43      0.00
  -12   16   10     -1.21      0.00
  -10   16   10      0.95      0.00
   -8   16   10      0.67      0.00
   -6   16   10      3.22      0.00
   -4   16   10     -3.24      0.00
   -2   16   10      2.40      0.00
    0   16   10      6.36      0.00
    2   16   10     -3.70      0.00
    4   16   10     -2.57      0.00
    6   16   10     -4.97      0.00
    8   16   10      2.18      0.00
   10   16   10      2.12      0.00
   12   16   10      0.85      0.00
   14   16   10      0.06      0.00
   16   16   10     -1.84      0.00
   18   16   10      1.88      0.00
   20   16   10      0.17      0.00
  -25   17   10     -5.61      0.00
  -23   17   10      0.64      0.00
  -21   17   10     -0.08      0.00
  -19   17   10      2.30      0.00
  -17   17   10      2.52      0.00
  -15   17   10      0.35      0.00
  -13   17   10     -5.87      0.00
  -11   17   10     -2.47      0.00
   -9   17   10     -3.03      0.00
   -7   17   10      3.12      0.00
   -5   17   10      6.32      0.00
   -3   17   10      0.42      0.00
   -1   17   10      1.23      0.00
    1   17   10     -5.29      0.00
    3   17   10      3.48      0.00
    5   17   10     -2.80      0.00
    7   17   10     -0.80      0.00
    9   17   10     -3.41      0.00
   11   17   10     -0.74      0.00
   13   17   10     -2.12      0.00
   15   17   10     -6.62      0.00
   17   17   10     -0.48      0.00
   19   17   10     -4.04      0.00
  -22   18   10     -0.31      0.00
  -20   18   10     -2.66      0.00
  -18   18   10      4.90      0.00
  -16   18   10      0.81      0.00
  -14   18   10      0.44      0.00
  -12   18   10     -3.21      0.00
  -10   18   10      3.74      0.00
   -8   18   10      3.57      0.00
   -6   18   10      2.36      0.00
   -4   18   10     -0.48      0.00
   -2   18   10      3.89      0.00
    0   18   10     -1.22      0.00
    2   18   10     -3.56      0.00
    4   18   10     -4.41      0.00
    6   18   10     -1.12      0.00
    8   18   10      4.20      0.00
   10   18   10      2.68      0.00
   12   18   10      2.03      0.00
   14   18   10     -0.40      0.00
   16   18   10     -2.14      0.00
  -21   19   10      1.66      0.00
  -19   19   10     -2.96      0.00
  -17   19   10     -1.75      0.00
  -15   19   10     -1.72      0.00
  -13   19   10     -3.50      0.00
  -11   19   10     -3.50      0.00
   -9   19   10      0.65      0.00
   -7   19   10      1.69      0.00
   -5   19   10     -0.58      0.00
   -3   19   10      2.13      0.00
   -1   19   10      1.77      0.00
    1   19   10      0.00      0.00
    3   19   10     -0.73      0.00
    5   19   10      4.61      0.00
    7   19   10     -1.03      0.00
    9   19   10     -0.03      0.00
   11   19   10      5.03      0.00
   13   19   10     -0.95      0.00
  -16   20   10     -1.45      0.00
  -14   20   10     -1.92      0.00
  -12   20   10     -1.23      0.00
  -10   20   10      0.91      0.00
   -8   20   10      2.73      0.00
   -6   20   10     -1.38      0.00
   -4   20   10      3.68      0.00
   -2   20   10     -2.02      0.00
    0   20   10     -4.18      0.00
    2   20   10      2.85      0.00
    4   20   10     -2.72      0.00
    6   20   10      6.41      0.00
    8   20   10     -2.30      0.00
   10   20   10     -7.09      0.00
  -11   21   10      3.43      0.00
   -9   21   10      0.56      0.00
   -7   21   10      1.85      0.00
   -5   21   10     -2.14      0.00
   -3   21   10      4.20      0.00
   -1   21   10      1.73      0.00
    1   21   10     -2.62      0.00
    3   21   10     -1.27      0.00
  -39    1   11     -1.84      0.00
  -37    1   11     -1.39      0.00
  -35    1   11      0.14      0.00
  -33    1   11      1.28      0.00
  -31    1   11     -0.31      0.00
  -29    1   11      1.37      0.00
  -27    1   11     -0.82      0.00
  -25    1   11     -1.13      0.00
  -23    1   11     -0.46      0.00
  -21    1   11     -0.33      0.00
  -19    1   11     -0.16      0.00
  -17    1   11     -3.55      0.00
  -15    1   11     -6.46      0.00
  -13    1   11      1.38      0.00
  -11    1   11     11.40      0.00
   -9    1   11     28.33      0.00
   -7    1   11      0.20      0.00
   -5    1   11    -13.99      0.00
   -3    1   11    -18.53      0.00
   -1    1   11    -17.92      0.00
    1    1   11     25.03      0.00
    3    1   11     -6.00      0.00
    5    1   11      3.01      0.00
    7    1   11     -4.14      0.00
    9    1   11      3.15      0.00
   11    1   11     -8.26      0.00
   13    1   11      0.92      0.00
   15    1   11     -0.12      0.00
   17    1   11      0.82      0.00
   19    1   11      4.64      0.00
   21    1   11     -3.70      0.00
   23    1   11     -2.11      0.00
   25    1   11     -1.08      0.00
   27    1   11      3.53      0.00
   29    1   11     -0.31      0.00
   31    1   11      2.44      0.00
   33    1   11     -2.11      0.00
  -40    2   11     -0.95      0.00
  -38    2   11     -1.10      0.00
  -36    2   11      0.32      0.00
  -34    2   11      2.23      0.00
  -32    2   11     -1.29      0.00
  -30    2   11     -1.13      0.00
  -28    2   11      2.95      0.00
  -26    2   11     -1.50      0.00
  -24    2   11     -1.67      0.00
  -22    2   11      0.88      0.00
  -20    2   11     -9.52      0.00
  -18    2   11     -6.43      0.00
  -16    2   11      1.16      0.00
  -14    2   11     -1.12      0.00
  -12    2   11      7.26      0.00
  -10    2   11      1.89      0.00
   -8    2   11    -33.33      0.00
   -6    2   11      0.89      0.00
   -4    2   11    -19.75      0.00
   -2    2   11    -32.80      0.00
    0    2   11      5.79      0.00
    2    2   11      7.53      0.00
    4    2   11      3.80      0.00
    6    2   11     15.52      0.00
    8    2   11     13.57      0.00
   10    2   11     10.40      0.00
   12    2   11      9.02      0.00
   14    2   11      2.80      0.00
   16    2   11      1.16      0.00
   18    2   11      1.15      0.00
   20    2   11      4.40      0.00
   22    2   11      0.95      0.00
   24    2   11     -2.35      0.00
   26    2   11     -1.71      0.00
   28    2   11      1.01      0.00
   30    2   11      0.05      0.00
   32    2   11      0.51      0.00
  -39    3   11     -2.10      0.00
  -37    3   11     -1.57      0.00
  -35    3   11     -0.87      0.00
  -33    3   11      0.06      0.00
  -31    3   11     -1.46      0.00
  -29    3   11     -3.84      0.00
  -27    3   11     -1.34      0.00
  -25    3   11      2.61      0.00
  -23    3   11      4.92      0.00
  -21    3   11      9.84      0.00
  -19    3   11     11.05      0.00
  -17    3   11      2.85      0.00
  -15    3   11      8.48      0.00
  -13    3   11     -7.15      0.00
  -11    3   11    -16.05      0.00
   -9    3   11     -5.88      0.00
   -7    3   11    -20.07      0.00
   -5    3   11     -7.27      0.00
   -3    3   11      5.47      0.00
   -1    3   11    -17.42      0.00
    1    3   11     -4.68      0.00
    3    3   11      9.96      0.00
    5    3   11     25.05      0.00
    7    3   11      9.43      0.00
    9    3   11     -4.63      0.00
   11    3   11      1.61      0.00
   13    3   11      0.58      0.00
   15    3   11     -3.14      0.00
   17    3   11      1.41      0.00
   19    3   11     -0.41      0.00
   21    3   11     -1.40      0.00
   23    3   11     -2.96      0.00
   25    3   11      0.75      0.00
   27    3   11      0.38      0.00
   29    3   11      1.80      0.00
   31    3   11      2.08      0.00
   33    3   11      0.27      0.00
  -40    4   11      2.19      0.00
  -38    4   11      0.47      0.00
  -36    4   11     -2.15      0.00
  -34    4   11      0.32      0.00
  -32    4   11     -1.27      0.00
  -30    4   11     -1.53      0.00
  -28    4   11      1.41      0.00
  -26    4   11      1.58      0.00
  -24    4   11     -3.60      0.00
  -22    4   11     -4.77      0.00
  -20    4   11     -7.47      0.00
  -18    4   11    -10.44      0.00
  -16    4   11      2.63      0.00
  -14    4   11    -10.44      0.00
  -12    4   11     10.51      0.00
  -10    4   11     21.28      0.00
   -8    4   11     -8.12      0.00
   -6    4   11      3.33      0.00
   -4    4   11     12.93      0.00
   -2    4   11     -3.20      0.00
    0    4   11      8.52      0.00
    2    4   11     -2.18      0.00
    4    4   11     -3.19      0.00
    6    4   11     -2.78      0.00
    8    4   11      7.37      0.00
   10    4   11      7.69      0.00
   12    4   11      6.08      0.00
   14    4   11      2.56      0.00
   16    4   11     -3.81      0.00
   18    4   11      1.45      0.00
   20    4   11      2.81      0.00
   22    4   11      0.46      0.00
   24    4   11      1.55      0.00
   26    4   11     -0.38      0.00
   28    4   11      1.85      0.00
   30    4   11      1.84      0.00
   32    4   11     -2.06      0.00
  -39    5   11     -4.90      0.00
  -37    5   11     -1.00      0.00
  -35    5   11     -1.31      0.00
  -33    5   11      0.23      0.00
  -31    5   11     -2.34      0.00
  -29    5   11     -0.41      0.00
  -27    5   11      3.73      0.00
  -25    5   11     -0.67      0.00
  -23    5   11      7.15      0.00
  -21    5   11      4.49      0.00
  -19    5   11      3.71      0.00
  -17    5   11      9.35      0.00
  -15    5   11      1.18      0.00
  -13    5   11     11.22      0.00
  -11    5   11    -16.42      0.00
   -9    5   11    -22.15      0.00
   -7    5   11    -20.21      0.00
   -5    5   11     25.99      0.00
   -3    5   11      0.42      0.00
   -1    5   11      5.35      0.00
    1    5   11      6.87      0.00
    3    5   11     -2.56      0.00
    5    5   11     21.55      0.00
    7    5   11     10.24      0.00
    9    5   11     -6.32      0.00
   11    5   11     -2.09      0.00
   13    5   11      2.07      0.00
   15    5   11     -3.53      0.00
   17    5   11     -1.90      0.00
   19    5   11      0.47      0.00
   21    5   11     -2.33      0.00
   23    5   11      1.57      0.00
   25    5   11      4.87      0.00
   27    5   11      3.29      0.00
   29    5   11     -1.13      0.00
   31    5   11      0.92      0.00
  -38    6   11     -0.66      0.00
  -36    6   11      0.47      0.00
  -34    6   11      0.30      0.00
  -32    6   11      0.36      0.00
  -30    6   11     -3.28      0.00
  -28    6   11     -8.10      0.00
  -26    6   11     -4.86      0.00
  -24    6   11     -1.60      0.00
  -22    6   11      0.63      0.00
  -20    6   11      2.47      0.00
  -18    6   11     -2.65      0.00
  -16    6   11      8.42      0.00
  -14    6   11     -3.50      0.00
  -12    6   11     -7.27      0.00
  -10    6   11      1.32      0.00
   -8    6   11     -8.60      0.00
   -6    6   11     -7.96      0.00
   -4    6   11      1.00      0.00
   -2    6   11     -2.17      0.00
    0    6   11     -7.51      0.00
    2    6   11     -4.52      0.00
    4    6   11     -5.78      0.00
    6    6   11      1.44      0.00
    8    6   11      1.56      0.00
   10    6   11     -1.02      0.00
   12    6   11      1.82      0.00
   14    6   11     -3.23      0.00
   16    6   11     -3.71      0.00
   18    6   11     -1.93      0.00
   20    6   11     -2.57      0.00
   22    6   11     -0.04      0.00
   24    6   11     -0.30      0.00
   26    6   11      0.28      0.00
   28    6   11      0.54      0.00
   30    6   11      0.49      0.00
   32    6   11      4.27      0.00
  -37    7   11      1.32      0.00
  -35    7   11      0.16      0.00
  -33    7   11     -2.37      0.00
  -29    7   11     -1.40      0.00
  -27    7   11     -1.72      0.00
  -25    7   11      0.36      0.00
  -23    7   11      7.60      0.00
  -21    7   11      3.05      0.00
  -19    7   11     -0.13      0.00
  -17    7   11     -2.09      0.00
  -15    7   11     -7.44      0.00
  -13    7   11      0.58      0.00
  -11    7   11      4.57      0.00
   -9    7   11     -3.78      0.00
   -7    7   11    -21.76      0.00
   -5    7   11      1.30      0.00
   -3    7   11      5.67      0.00
   -1    7   11     -1.30      0.00
    1    7   11     14.99      0.00
    3    7   11    -11.67      0.00
    5    7   11     10.28      0.00
    7    7   11     -2.94      0.00
    9    7   11      8.29      0.00
   11    7   11      6.26      0.00
   13    7   11     -3.36      0.00
   15    7   11     -1.26      0.00
   17    7   11     -1.39      0.00
   19    7   11     -2.19      0.00
   21    7   11     -0.54      0.00
   23    7   11      3.11      0.00
   25    7   11      6.08      0.00
   27    7   11      0.12      0.00
   29    7   11      0.69      0.00
   31    7   11     -1.18      0.00
  -38    8   11      0.07      0.00
  -36    8   11     -2.33      0.00
  -34    8   11      1.67      0.00
  -32    8   11     -3.70      0.00
  -30    8   11     -2.93      0.00
  -28    8   11     -4.16      0.00
  -26    8   11     -0.70      0.00
  -24    8   11     -2.47      0.00
  -22    8   11      0.78      0.00
  -20    8   11     -6.14      0.00
  -18    8   11     -3.40      0.00
  -16    8   11      2.91      0.00
  -14    8   11      1.32      0.00
  -12    8   11      0.73      0.00
  -10    8   11     -2.91      0.00
   -8    8   11      7.35      0.00
   -6    8   11     -5.80      0.00
   -4    8   11     11.67      0.00
   -2    8   11     -6.65      0.00
    0    8   11      0.71      0.00
    2    8   11      2.51      0.00
    4    8   11      2.71      0.00
    6    8   11      8.63      0.00
    8    8   11     -0.33      0.00
   10    8   11     -5.99      0.00
   12    8   11     -0.23      0.00
   14    8   11      2.53      0.00
   16    8   11     -3.89      0.00
   18    8   11     -6.36      0.00
   20    8   11     -3.83      0.00
   22    8   11      0.18      0.00
   24    8   11      3.93      0.00
   26    8   11      2.21      0.00
   28    8   11     -3.13      0.00
   30    8   11     -2.40      0.00
  -37    9   11      1.59      0.00
  -35    9   11      2.44      0.00
  -33    9   11      3.90      0.00
  -31    9   11     10.44      0.00
  -29    9   11     -2.35      0.00
  -27    9   11     -3.07      0.00
  -25    9   11     -0.68      0.00
  -23    9   11      2.06      0.00
  -21    9   11      0.50      0.00
  -19    9   11      4.52      0.00
  -17    9   11      4.18      0.00
  -15    9   11     -1.80      0.00
  -13    9   11     -5.40      0.00
  -11    9   11      7.52      0.00
   -9    9   11     -9.73      0.00
   -7    9   11     -0.19      0.00
   -5    9   11      0.48      0.00
   -3    9   11      5.63      0.00
   -1    9   11     -8.49      0.00
    1    9   11     -0.76      0.00
    3    9   11    -12.57      0.00
    5    9   11     -6.63      0.00
    7    9   11     -0.11      0.00
    9    9   11      0.89      0.00
   11    9   11      0.23      0.00
   13    9   11     -3.70      0.00
   15    9   11      2.94      0.00
   17    9   11      2.16      0.00
   19    9   11      0.06      0.00
   21    9   11      1.00      0.00
   23    9   11     -2.10      0.00
   25    9   11     -3.44      0.00
   27    9   11      2.74      0.00
   29    9   11      4.69      0.00
  -36   10   11      0.61      0.00
  -34   10   11      0.77      0.00
  -32   10   11      2.01      0.00
  -30   10   11      1.44      0.00
  -28   10   11      0.26      0.00
  -26   10   11     -3.38      0.00
  -24   10   11      3.57      0.00
  -22   10   11     -1.99      0.00
  -20   10   11     -0.15      0.00
  -18   10   11     -6.06      0.00
  -16   10   11     -8.11      0.00
  -14   10   11     -0.11      0.00
  -12   10   11     -4.09      0.00
  -10   10   11      4.45      0.00
   -8   10   11      0.49      0.00
   -6   10   11      4.24      0.00
   -4   10   11     -5.83      0.00
   -2   10   11     -3.42      0.00
    0   10   11     -0.37      0.00
    2   10   11      7.80      0.00
    4   10   11     -1.62      0.00
    6   10   11      8.45      0.00
    8   10   11     -6.03      0.00
   10   10   11      2.48      0.00
   12   10   11      2.71      0.00
   14   10   11     -0.63      0.00
   16   10   11     -2.25      0.00
   18   10   11     -3.76      0.00
   20   10   11     -4.34      0.00
   22   10   11     -1.54      0.00
   24   10   11      1.84      0.00
   26   10   11     -1.91      0.00
   28   10   11     -1.83      0.00
  -35   11   11      1.43      0.00
  -33   11   11      0.21      0.00
  -31   11   11      0.84      0.00
  -29   11   11     -1.28      0.00
  -27   11   11      1.04      0.00
  -25   11   11      1.56      0.00
  -23   11   11      2.55      0.00
  -21   11   11     -0.52      0.00
  -19   11   11     -0.73      0.00
  -17   11   11      7.64      0.00
  -15   11   11      3.65      0.00
  -13   11   11      3.54      0.00
  -11   11   11     -3.56      0.00
   -9   11   11     -3.33      0.00
   -7   11   11      1.69      0.00
   -5   11   11     -0.75      0.00
   -3   11   11      6.67      0.00
   -1   11   11    -11.15      0.00
    1   11   11     -0.36      0.00
    3   11   11     -5.44      0.00
    5   11   11      5.56      0.00
    7   11   11     -1.67      0.00
    9   11   11      1.20      0.00
   11   11   11      5.86      0.00
   13   11   11     -1.42      0.00
   15   11   11      1.37      0.00
   17   11   11      2.09      0.00
   19   11   11      0.53      0.00
   21   11   11      2.91      0.00
   23   11   11     -0.32      0.00
   25   11   11     -0.48      0.00
   27   11   11      3.09      0.00
  -34   12   11      3.50      0.00
  -32   12   11      0.86      0.00
  -30   12   11     -0.06      0.00
  -28   12   11     -0.75      0.00
  -26   12   11      2.57      0.00
  -24   12   11     -0.55      0.00
  -22   12   11     -1.48      0.00
  -20   12   11     -2.06      0.00
  -18   12   11     -5.99      0.00
  -16   12   11     -2.47      0.00
  -14   12   11     -6.51      0.00
  -12   12   11      4.88      0.00
  -10   12   11      1.88      0.00
   -8   12   11      2.13      0.00
   -6   12   11      1.73      0.00
   -4   12   11     -0.24      0.00
   -2   12   11      2.18      0.00
    0   12   11     -2.23      0.00
    2   12   11      4.71      0.00
    4   12   11     -2.79      0.00
    6   12   11      1.68      0.00
    8   12   11      3.86      0.00
   10   12   11      5.54      0.00
   12   12   11      2.29      0.00
   14   12   11      3.20      0.00
   16   12   11     -0.57      0.00
   18   12   11      0.14      0.00
   20   12   11      2.73      0.00
   22   12   11     -1.75      0.00
   24   12   11      0.00      0.00
   26   12   11     -1.08      0.00
  -33   13   11     -1.86      0.00
  -31   13   11     -3.86      0.00
  -29   13   11     -0.88      0.00
  -27   13   11     -1.78      0.00
  -25   13   11     -2.43      0.00
  -23   13   11      1.59      0.00
  -21   13   11     -0.41      0.00
  -19   13   11      0.60      0.00
  -17   13   11      0.17      0.00
  -15   13   11      7.10      0.00
  -13   13   11      3.86      0.00
  -11   13   11     -1.96      0.00
   -9   13   11     -2.82      0.00
   -7   13   11      2.87      0.00
   -5   13   11     -4.17      0.00
   -3   13   11     -0.23      0.00
   -1   13   11     -0.03      0.00
    1   13   11      2.27      0.00
    3   13   11     -2.76      0.00
    5   13   11      0.14      0.00
    7   13   11      1.37      0.00
    9   13   11      4.03      0.00
   11   13   11      2.88      0.00
   13   13   11      7.08      0.00
   15   13   11     -0.24      0.00
   17   13   11      2.65      0.00
   19   13   11      3.69      0.00
   21   13   11     -1.55      0.00
   23   13   11     -0.94      0.00
   25   13   11      0.13      0.00
  -30   14   11      1.00      0.00
  -28   14   11      0.78      0.00
  -26   14   11      5.96      0.00
  -24   14   11      0.49      0.00
  -22   14   11     -0.65      0.00
  -20   14   11     -0.77      0.00
  -18   14   11      0.16      0.00
  -16   14   11     -6.53      0.00
  -14   14   11     -4.43      0.00
  -12   14   11     -1.72      0.00
  -10   14   11      1.21      0.00
   -8   14   11      4.29      0.00
   -6   14   11     -0.59      0.00
   -4   14   11      1.23      0.00
   -2   14   11      3.02      0.00
    0   14   11      0.32      0.00
    2   14   11      2.69      0.00
    4   14   11      0.39      0.00
    6   14   11     -1.72      0.00
    8   14   11     -5.36      0.00
   10   14   11     -0.92      0.00
   12   14   11      0.23      0.00
   14   14   11     -0.11      0.00
   16   14   11      5.64      0.00
   18   14   11      2.14      0.00
   20   14   11     -5.79      0.00
   22   14   11     -5.23      0.00
   24   14   11     -1.06      0.00
  -29   15   11      2.26      0.00
  -27   15   11      0.61      0.00
  -25   15   11     -0.52      0.00
  -23   15   11     -2.74      0.00
  -21   15   11      1.53      0.00
  -19   15   11      2.73      0.00
  -17   15   11      0.71      0.00
  -15   15   11      4.50      0.00
  -13   15   11     -0.48      0.00
  -11   15   11      1.02      0.00
   -9   15   11     -2.17      0.00
   -7   15   11      3.69      0.00
   -5   15   11     -3.85      0.00
   -3   15   11     -0.97      0.00
   -1   15   11      2.17      0.00
    1   15   11     -0.16      0.00
    3   15   11     -0.78      0.00
    5   15   11     -3.10      0.00
    7   15   11      0.91      0.00
    9   15   11      7.50      0.00
   11   15   11     -9.44      0.00
   13   15   11     -1.19      0.00
   15   15   11     -4.13      0.00
   17   15   11      0.22      0.00
   19   15   11      0.90      0.00
   21   15   11      1.27      0.00
  -28   16   11      2.51      0.00
  -26   16   11     -0.08      0.00
  -24   16   11      4.36      0.00
  -22   16   11      5.49      0.00
  -20   16   11      3.52      0.00
  -18   16   11      1.58      0.00
  -16   16   11     -2.63      0.00
  -14   16   11     -2.70      0.00
  -12   16   11     -4.58      0.00
  -10   16   11     -0.31      0.00
   -8   16   11      2.32      0.00
   -6   16   11      0.32      0.00
   -4   16   11     -3.30      0.00
   -2   16   11     -1.40      0.00
    0   16   11     -1.05      0.00
    2   16   11      2.94      0.00
    4   16   11     -0.30      0.00
    6   16   11      4.47      0.00
    8   16   11     -0.07      0.00
   10   16   11      0.35      0.00
   12   16   11      5.17      0.00
   14   16   11      0.88      0.00
   16   16   11     -1.38      0.00
   18   16   11      3.35      0.00
   20   16   11      0.08      0.00
  -25   17   11      1.03      0.00
  -23   17   11     -0.75      0.00
  -21   17   11     -2.38      0.00
  -19   17   11     -1.96      0.00
  -17   17   11      1.59      0.00
  -15   17   11      1.96      0.00
  -13   17   11      1.16      0.00
  -11   17   11     -2.84      0.00
   -9   17   11      0.91      0.00
   -7   17   11     -2.30      0.00
   -5   17   11      1.63      0.00
   -3   17   11      5.33      0.00
   -1   17   11      0.54      0.00
    1   17   11      0.72      0.00
    3   17   11      1.05      0.00
    5   17   11     -0.70      0.00
    7   17   11     -3.41      0.00
    9   17   11      5.57      0.00
   11   17   11     -0.16      0.00
   13   17   11     -0.65      0.00
   15   17   11      3.15      0.00
   17   17   11      3.70      0.00
  -22   18   11      2.36      0.00
  -20   18   11     -4.43      0.00
  -18   18   11      0.23      0.00
  -16   18   11      0.77      0.00
  -14   18   11     -3.33      0.00
  -12   18   11     -4.57      0.00
  -10   18   11     -1.66      0.00
   -8   18   11      0.27      0.00
   -6   18   11     -0.50      0.00
   -4   18   11     -0.08      0.00
   -2   18   11      0.60      0.00
    0   18   11      2.97      0.00
    2   18   11      1.98      0.00
    4   18   11      1.31      0.00
    6   18   11     -3.00      0.00
    8   18   11      2.44      0.00
   10   18   11     -1.09      0.00
   12   18   11     -3.36      0.00
   14   18   11      0.00      0.00
   16   18   11     -3.44      0.00
  -19   19   11      1.18      0.00
  -17   19   11     -1.76      0.00
  -15   19   11      1.73      0.00
  -13   19   11     -3.38      0.00
  -11   19   11      2.74      0.00
   -9   19   11     -0.74      0.00
   -7   19   11     -2.22      0.00
   -5   19   11      5.54      0.00
   -3   19   11     -0.32      0.00
   -1   19   11     -3.15      0.00
    1   19   11      2.13      0.00
    3   19   11      0.70      0.00
    5   19   11      2.29      0.00
    7   19   11      0.80      0.00
    9   19   11     -7.59      0.00
   11   19   11     -0.80      0.00
   13   19   11     -0.46      0.00
  -16   20   11      1.73      0.00
  -14   20   11     -2.34      0.00
  -12   20   11     -1.84      0.00
  -10   20   11     -0.78      0.00
   -8   20   11      1.28      0.00
   -6   20   11      0.30      0.00
   -4   20   11      3.13      0.00
   -2   20   11      1.69      0.00
    0   20   11      2.03      0.00
    2   20   11      4.31      0.00
    4   20   11     -0.65      0.00
    6   20   11     -6.06      0.00
    8   20   11      4.73      0.00
   -9   21   11      0.93      0.00
   -7   21   11      2.97      0.00
   -5   21   11     -4.90      0.00
   -3   21   11     -4.26      0.00
   -1   21   11      5.87      0.00
    1   21   11      2.02      0.00
  -40    0   12     -0.72      0.00
  -38    0   12      0.35      0.00
  -36    0   12      3.44      0.00
  -34    0   12     -0.34      0.00
  -32    0   12     -3.47      0.00
  -30    0   12     -5.12      0.00
  -28    0   12     -8.63      0.00
  -26    0   12      0.64      0.00
  -24    0   12     -4.26      0.00
  -22    0   12     -2.48      0.00
  -20    0   12     -8.28      0.00
  -18    0   12     -8.95      0.00
  -16    0   12    -13.27      0.00
  -14    0   12      5.30      0.00
  -12    0   12      0.64      0.00
  -10    0   12    -12.24      0.00
   -8    0   12     -3.85      0.00
   -6    0   12     13.07      0.00
   -4    0   12     -3.09      0.00
   -2    0   12      7.19      0.00
    0    0   12      5.58      0.00
    2    0   12     23.21      0.00
    4    0   12    -13.34      0.00
    6    0   12      8.27      0.00
    8    0   12     13.80      0.00
   10    0   12    -16.59      0.00
   12    0   12      5.11      0.00
   14    0   12      4.82      0.00
   16    0   12     -3.83      0.00
   18    0   12      8.93      0.00
   20    0   12      0.48      0.00
   22    0   12     -5.52      0.00
   24    0   12      5.43      0.00
   26    0   12      3.06      0.00
   28    0   12     -0.13      0.00
   30    0   12     -1.74      0.00
   32    0   12      0.49      0.00
  -39    1   12      0.60      0.00
  -37    1   12     -2.16      0.00
  -35    1   12      0.84      0.00
  -33    1   12      2.07      0.00
  -31    1   12      2.82      0.00
  -29    1   12      3.72      0.00
  -27    1   12     -3.36      0.00
  -25    1   12     -0.54      0.00
  -23    1   12      5.24      0.00
  -21    1   12      1.00      0.00
  -19    1   12      0.10      0.00
  -17    1   12    -10.42      0.00
  -15    1   12     -1.66      0.00
  -13    1   12    -11.18      0.00
  -11    1   12     -4.46      0.00
   -9    1   12     13.09      0.00
   -7    1   12    -24.52      0.00
   -5    1   12     -7.49      0.00
   -3    1   12     20.55      0.00
   -1    1   12     40.98      0.00
    1    1   12    -12.23      0.00
    3    1   12     40.65      0.00
    5    1   12     -9.85      0.00
    7    1   12      1.67      0.00
    9    1   12      4.86      0.00
   11    1   12     -2.07      0.00
   13    1   12     -4.37      0.00
   15    1   12     -3.76      0.00
   17    1   12      1.25      0.00
   19    1   12      1.01      0.00
   21    1   12      1.92      0.00
   23    1   12     -0.34      0.00
   25    1   12     -2.95      0.00
   27    1   12      1.28      0.00
   29    1   12      0.07      0.00
   31    1   12     -0.26      0.00
  -40    2   12      2.71      0.00
  -38    2   12     -1.44      0.00
  -36    2   12     -0.66      0.00
  -34    2   12     -0.78      0.00
  -32    2   12     -1.04      0.00
  -30    2   12     -2.94      0.00
  -28    2   12     -5.02      0.00
  -26    2   12     -1.03      0.00
  -24    2   12     -5.01      0.00
  -22    2   12     -1.34      0.00
  -20    2   12     -3.71      0.00
  -18    2   12    -14.18      0.00
  -16    2   12      1.83      0.00
  -14    2   12     10.03      0.00
  -12    2   12     11.12      0.00
  -10    2   12     -0.08      0.00
   -8    2   12     -8.92      0.00
   -6    2   12      3.85      0.00
   -4    2   12    -27.55      0.00
   -2    2   12     35.23      0.00
    0    2   12    -22.58      0.00
    2    2   12     36.07      0.00
    4    2   12     -1.52      0.00
    6    2   12     14.48      0.00
    8    2   12      2.65      0.00
   10    2   12     -6.82      0.00
   12    2   12      6.02      0.00
   14    2   12     -1.18      0.00
   16    2   12     -5.62      0.00
   18    2   12     -4.93      0.00
   20    2   12     -1.47      0.00
   22    2   12     -1.45      0.00
   24    2   12      3.84      0.00
   26    2   12      0.36      0.00
   28    2   12      1.29      0.00
   30    2   12     -0.80      0.00
   32    2   12      1.11      0.00
  -39    3   12     -0.97      0.00
  -37    3   12     -2.19      0.00
  -35    3   12     -4.38      0.00
  -33    3   12     -2.03      0.00
  -31    3   12      1.60      0.00
  -29    3   12     -2.77      0.00
  -27    3   12      1.02      0.00
  -25    3   12      1.45      0.00
  -23    3   12     -0.21      0.00
  -21    3   12     -0.65      0.00
  -19    3   12      0.99      0.00
  -17    3   12     -8.17      0.00
  -15    3   12     -7.31      0.00
  -13    3   12    -13.71      0.00
  -11    3   12    -29.34      0.00
   -9    3   12     26.25      0.00
   -7    3   12     12.08      0.00
   -5    3   12     26.33      0.00
   -3    3   12     -6.13      0.00
   -1    3   12     -5.29      0.00
    1    3   12     -6.11      0.00
    3    3   12     28.67      0.00
    5    3   12    -22.19      0.00
    7    3   12      7.29      0.00
    9    3   12      4.79      0.00
   11    3   12     -1.84      0.00
   13    3   12     -3.65      0.00
   15    3   12     -2.79      0.00
   17    3   12     -0.59      0.00
   19    3   12      3.26      0.00
   21    3   12      4.65      0.00
   23    3   12      3.84      0.00
   25    3   12      0.73      0.00
   27    3   12      1.58      0.00
   29    3   12      1.10      0.00
   31    3   12     -0.56      0.00
  -40    4   12      2.12      0.00
  -38    4   12      1.29      0.00
  -36    4   12     -0.53      0.00
  -34    4   12     -0.95      0.00
  -32    4   12     -1.41      0.00
  -30    4   12     -0.94      0.00
  -28    4   12      0.77      0.00
  -26    4   12      0.92      0.00
  -24    4   12     -1.58      0.00
  -22    4   12      4.77      0.00
  -20    4   12     -3.31      0.00
  -18    4   12     -1.57      0.00
  -16    4   12    -14.09      0.00
  -14    4   12     -8.35      0.00
  -12    4   12      6.05      0.00
  -10    4   12     14.93      0.00
   -8    4   12      0.42      0.00
   -6    4   12     11.61      0.00
   -4    4   12      0.81      0.00
   -2    4   12     35.96      0.00
    0    4   12    -12.23      0.00
    2    4   12     -3.81      0.00
    4    4   12     -9.13      0.00
    6    4   12      3.69      0.00
    8    4   12      1.22      0.00
   10    4   12     -0.02      0.00
   12    4   12      0.31      0.00
   14    4   12     -5.66      0.00
   16    4   12     -6.75      0.00
   18    4   12     -1.81      0.00
   20    4   12     -3.09      0.00
   22    4   12     -0.54      0.00
   24    4   12      0.18      0.00
   26    4   12     -1.64      0.00
   28    4   12     -0.68      0.00
   30    4   12     -1.79      0.00
   32    4   12     -0.47      0.00
  -39    5   12     -0.80      0.00
  -37    5   12     -2.69      0.00
  -35    5   12     -0.54      0.00
  -33    5   12     -0.11      0.00
  -31    5   12      0.34      0.00
  -29    5   12     -3.15      0.00
  -27    5   12     -2.78      0.00
  -25    5   12      1.99      0.00
  -23    5   12      2.81      0.00
  -21    5   12      0.90      0.00
  -19    5   12      4.06      0.00
  -17    5   12     -0.67      0.00
  -15    5   12      8.62      0.00
  -13    5   12     -0.51      0.00
  -11    5   12    -21.89      0.00
   -9    5   12     -4.24      0.00
   -7    5   12      4.99      0.00
   -5    5   12     -9.78      0.00
   -3    5   12    -13.46      0.00
   -1    5   12     13.71      0.00
    1    5   12     -1.37      0.00
    3    5   12     16.92      0.00
    5    5   12     -0.64      0.00
    7    5   12     10.48      0.00
    9    5   12     -3.35      0.00
   11    5   12     -2.44      0.00
   13    5   12     -0.04      0.00
   15    5   12     -0.80      0.00
   17    5   12     -0.41      0.00
   19    5   12     -1.20      0.00
   21    5   12      1.03      0.00
   23    5   12      0.03      0.00
   25    5   12     -2.99      0.00
   27    5   12      1.30      0.00
   29    5   12     -0.44      0.00
   31    5   12      3.48      0.00
  -38    6   12      2.21      0.00
  -36    6   12     -0.33      0.00
  -34    6   12     -0.86      0.00
  -32    6   12      5.64      0.00
  -30    6   12     -2.12      0.00
  -28    6   12     -2.19      0.00
  -26    6   12      0.84      0.00
  -24    6   12     -0.34      0.00
  -22    6   12     -3.87      0.00
  -20    6   12     -5.37      0.00
  -18    6   12     -1.59      0.00
  -16    6   12     -2.17      0.00
  -14    6   12     -7.74      0.00
  -12    6   12      2.82      0.00
  -10    6   12      9.78      0.00
   -8    6   12     11.69      0.00
   -6    6   12      0.21      0.00
   -4    6   12    -14.12      0.00
   -2    6   12     -3.08      0.00
    0    6   12    -22.86      0.00
    2    6   12     -8.43      0.00
    4    6   12    -11.59      0.00
    6    6   12      4.31      0.00
    8    6   12      3.30      0.00
   10    6   12      4.00      0.00
   12    6   12      1.98      0.00
   14    6   12     -0.89      0.00
   16    6   12     -0.10      0.00
   18    6   12     -1.16      0.00
   20    6   12     -0.49      0.00
   22    6   12     -2.81      0.00
   24    6   12     -0.70      0.00
   26    6   12     -0.28      0.00
   28    6   12      1.23      0.00
   30    6   12      0.84      0.00
  -37    7   12     -1.78      0.00
  -35    7   12      1.15      0.00
  -33    7   12     -1.69      0.00
  -31    7   12     -0.03      0.00
  -29    7   12      3.84      0.00
  -27    7   12      4.48      0.00
  -25    7   12     -1.67      0.00
  -23    7   12      1.09      0.00
  -21    7   12     -2.81      0.00
  -19    7   12     -4.52      0.00
  -17    7   12     -8.31      0.00
  -15    7   12     -3.92      0.00
  -13    7   12      7.42      0.00
  -11    7   12      7.79      0.00
   -9    7   12      9.79      0.00
   -7    7   12     -7.43      0.00
   -5    7   12      5.16      0.00
   -3    7   12      2.50      0.00
   -1    7   12     11.42      0.00
    1    7   12      1.58      0.00
    3    7   12      4.38      0.00
    5    7   12      2.48      0.00
    7    7   12      2.49      0.00
    9    7   12     -4.83      0.00
   11    7   12      3.90      0.00
   13    7   12     -0.34      0.00
   15    7   12     -1.68      0.00
   17    7   12      0.02      0.00
   19    7   12     -0.35      0.00
   21    7   12     -0.57      0.00
   23    7   12      3.52      0.00
   25    7   12      2.08      0.00
   27    7   12     -0.59      0.00
   29    7   12      2.82      0.00
  -38    8   12     -2.22      0.00
  -36    8   12     -0.37      0.00
  -34    8   12      1.99      0.00
  -32    8   12      3.90      0.00
  -30    8   12     -0.54      0.00
  -28    8   12     -0.09      0.00
  -26    8   12     -0.69      0.00
  -24    8   12     -1.91      0.00
  -22    8   12     -3.45      0.00
  -20    8   12     -7.15      0.00
  -18    8   12      1.72      0.00
  -16    8   12      4.05      0.00
  -14    8   12      6.64      0.00
  -12    8   12      7.83      0.00
  -10    8   12      2.65      0.00
   -8    8   12      8.27      0.00
   -6    8   12      3.42      0.00
   -4    8   12     -9.46      0.00
   -2    8   12     -1.42      0.00
    0    8   12     -6.10      0.00
    2    8   12      1.09      0.00
    4    8   12     -6.21      0.00
    6    8   12      5.88      0.00
    8    8   12     -0.30      0.00
   10    8   12      5.02      0.00
   12    8   12      3.89      0.00
   14    8   12      3.99      0.00
   16    8   12      2.12      0.00
   18    8   12     -0.68      0.00
   20    8   12     -1.24      0.00
   22    8   12     -2.40      0.00
   24    8   12     -4.63      0.00
   26    8   12     -0.32      0.00
   28    8   12      1.08      0.00
   30    8   12     -0.91      0.00
  -37    9   12      7.04      0.00
  -35    9   12     -0.43      0.00
  -33    9   12      1.46      0.00
  -31    9   12      2.31      0.00
  -29    9   12     -1.36      0.00
  -27    9   12     -1.22      0.00
  -25    9   12      0.95      0.00
  -23    9   12     -2.36      0.00
  -21    9   12      0.13      0.00
  -19    9   12      1.25      0.00
  -17    9   12     -3.86      0.00
  -15    9   12      4.44      0.00
  -13    9   12      2.45      0.00
  -11    9   12      7.01      0.00
   -9    9   12     -6.02      0.00
   -7    9   12      2.67      0.00
   -5    9   12    -10.47      0.00
   -3    9   12     -1.78      0.00
   -1    9   12     -0.71      0.00
    1    9   12     -5.75      0.00
    3    9   12      1.88      0.00
    5    9   12      0.76      0.00
    7    9   12      6.57      0.00
    9    9   12     -0.34      0.00
   11    9   12      8.03      0.00
   13    9   12     -0.54      0.00
   15    9   12     -0.47      0.00
   17    9   12     -0.47      0.00
   19    9   12     -0.76      0.00
   21    9   12     -5.03      0.00
   23    9   12     -0.39      0.00
   25    9   12     -1.95      0.00
   27    9   12      0.18      0.00
   29    9   12      0.58      0.00
  -36   10   12     -3.20      0.00
  -34   10   12      1.14      0.00
  -32   10   12     -5.23      0.00
  -30   10   12      2.31      0.00
  -28   10   12      4.62      0.00
  -26   10   12      0.23      0.00
  -24   10   12     -3.66      0.00
  -22   10   12      0.00      0.00
  -20   10   12     -4.70      0.00
  -18   10   12     -1.69      0.00
  -16   10   12     -0.66      0.00
  -14   10   12      1.04      0.00
  -12   10   12     -2.43      0.00
  -10   10   12      5.03      0.00
   -8   10   12      0.44      0.00
   -6   10   12      7.87      0.00
   -4   10   12     -0.54      0.00
   -2   10   12      0.37      0.00
    0   10   12     -1.81      0.00
    2   10   12     -2.55      0.00
    4   10   12      1.69      0.00
    6   10   12      5.97      0.00
    8   10   12      4.82      0.00
   10   10   12      6.99      0.00
   12   10   12     -1.12      0.00
   14   10   12     -0.39      0.00
   16   10   12      2.78      0.00
   18   10   12     -1.93      0.00
   20   10   12     -2.33      0.00
   22   10   12     -0.82      0.00
   24   10   12      1.09      0.00
   26   10   12     -1.03      0.00
   28   10   12      1.01      0.00
  -35   11   12      0.51      0.00
  -33   11   12     -4.23      0.00
  -31   11   12     -0.56      0.00
  -29   11   12     -0.46      0.00
  -27   11   12      0.78      0.00
  -25   11   12     -1.80      0.00
  -23   11   12      5.31      0.00
  -21   11   12     -4.00      0.00
  -19   11   12      2.60      0.00
  -17   11   12     10.18      0.00
  -15   11   12      1.38      0.00
  -13   11   12      2.86      0.00
  -11   11   12     -3.31      0.00
   -9   11   12     -3.66      0.00
   -7   11   12     -2.13      0.00
   -5   11   12     -6.38      0.00
   -3   11   12     -2.63      0.00
   -1   11   12     -1.91      0.00
    1   11   12      2.23      0.00
    3   11   12      1.57      0.00
    5   11   12      1.94      0.00
    7   11   12      3.00      0.00
    9   11   12      1.98      0.00
   11   11   12      5.46      0.00
   13   11   12     -0.64      0.00
   15   11   12     -5.05      0.00
   17   11   12     -2.94      0.00
   19   11   12      0.10      0.00
   21   11   12     -2.54      0.00
   23   11   12     -3.40      0.00
   25   11   12     -0.43      0.00
   27   11   12     -0.98      0.00
  -34   12   12      1.62      0.00
  -32   12   12      1.12      0.00
  -30   12   12      0.57      0.00
  -28   12   12     -1.43      0.00
  -26   12   12      0.23      0.00
  -24   12   12     -4.58      0.00
  -22   12   12      1.80      0.00
  -20   12   12      5.38      0.00
  -18   12   12     -0.14      0.00
  -16   12   12     -0.65      0.00
  -14   12   12     -3.74      0.00
  -12   12   12      1.07      0.00
  -10   12   12      1.53      0.00
   -8   12   12     -1.19      0.00
   -6   12   12      3.06      0.00
   -4   12   12     -0.15      0.00
   -2   12   12      0.24      0.00
    0   12   12     -1.75      0.00
    2   12   12     -1.55      0.00
    4   12   12      0.28      0.00
    6   12   12     -0.84      0.00
    8   12   12      6.58      0.00
   10   12   12     -8.38      0.00
   12   12   12     -0.16      0.00
   14   12   12      3.63      0.00
   16   12   12      3.29      0.00
   18   12   12      0.44      0.00
   20   12   12     -7.37      0.00
   22   12   12      0.55      0.00
   24   12   12      0.26      0.00
   26   12   12     -1.14      0.00
  -33   13   12      0.90      0.00
  -31   13   12      0.06      0.00
  -29   13   12     -1.15      0.00
  -27   13   12     -1.28      0.00
  -25   13   12      0.55      0.00
  -23   13   12      0.04      0.00
  -21   13   12     -1.36      0.00
  -19   13   12     -0.57      0.00
  -17   13   12     -2.41      0.00
  -15   13   12      1.16      0.00
  -13   13   12     -0.47      0.00
  -11   13   12      2.52      0.00
   -9   13   12     -1.16      0.00
   -7   13   12     -3.44      0.00
   -5   13   12     -4.91      0.00
   -3   13   12     -5.39      0.00
   -1   13   12      2.45      0.00
    1   13   12     -1.93      0.00
    3   13   12      0.81      0.00
    5   13   12      1.74      0.00
    7   13   12      0.74      0.00
    9   13   12      0.25      0.00
   11   13   12      4.98      0.00
   13   13   12      0.55      0.00
   15   13   12      1.24      0.00
   17   13   12     -0.99      0.00
   19   13   12     -1.27      0.00
   21   13   12      0.67      0.00
   23   13   12     -0.32      0.00
   25   13   12     -3.11      0.00
  -30   14   12      1.32      0.00
  -28   14   12      4.35      0.00
  -26   14   12      1.57      0.00
  -24   14   12      6.24      0.00
  -22   14   12      5.24      0.00
  -20   14   12      1.02      0.00
  -18   14   12      3.31      0.00
  -16   14   12     -3.43      0.00
  -14   14   12     -3.94      0.00
  -12   14   12      0.39      0.00
  -10   14   12      7.21      0.00
   -8   14   12     -0.12      0.00
   -6   14   12      4.36      0.00
   -4   14   12     -1.10      0.00
   -2   14   12     -2.73      0.00
    0   14   12      2.77      0.00
    2   14   12     -2.52      0.00
    4   14   12      0.55      0.00
    6   14   12     -1.37      0.00
    8   14   12      3.46      0.00
   10   14   12     -1.16      0.00
   12   14   12      0.39      0.00
   14   14   12     -0.54      0.00
   16   14   12     -2.85      0.00
   18   14   12     -1.68      0.00
   20   14   12      0.31      0.00
   22   14   12      0.41      0.00
  -29   15   12      0.89      0.00
  -27   15   12      3.69      0.00
  -25   15   12      0.86      0.00
  -23   15   12      1.17      0.00
  -21   15   12      0.30      0.00
  -19   15   12      0.40      0.00
  -17   15   12      2.60      0.00
  -15   15   12      4.67      0.00
  -13   15   12     -1.51      0.00
  -11   15   12     -1.54      0.00
   -9   15   12     -1.93      0.00
   -7   15   12     -3.63      0.00
   -5   15   12     -1.68      0.00
   -3   15   12     -6.34      0.00
   -1   15   12     -1.43      0.00
    1   15   12      3.74      0.00
    3   15   12     -1.05      0.00
    5   15   12      0.10      0.00
    7   15   12      1.40      0.00
    9   15   12      2.00      0.00
   11   15   12     -3.05      0.00
   13   15   12      0.10      0.00
   15   15   12     -5.85      0.00
   17   15   12     -2.69      0.00
   19   15   12     -1.64      0.00
   21   15   12      4.16      0.00
  -28   16   12      2.88      0.00
  -26   16   12      4.18      0.00
  -24   16   12      2.21      0.00
  -22   16   12     -0.60      0.00
  -20   16   12     -2.19      0.00
  -18   16   12      0.71      0.00
  -16   16   12     -2.46      0.00
  -14   16   12     -0.21      0.00
  -12   16   12     -4.68      0.00
  -10   16   12      2.35      0.00
   -8   16   12      2.08      0.00
   -6   16   12      4.26      0.00
   -4   16   12      3.33      0.00
   -2   16   12      0.61      0.00
    0   16   12      0.54      0.00
    2   16   12     -0.43      0.00
    4   16   12      4.04      0.00
    6   16   12     -3.02      0.00
    8   16   12     -4.08      0.00
   10   16   12      1.36      0.00
   12   16   12      2.39      0.00
   14   16   12      5.75      0.00
   16   16   12      3.00      0.00
   18   16   12      2.87      0.00
   20   16   12     -2.38      0.00
  -25   17   12     -1.14      0.00
  -23   17   12     -3.91      0.00
  -21   17   12     -2.81      0.00
  -19   17   12     -0.71      0.00
  -17   17   12      4.50      0.00
  -15   17   12      0.06      0.00
  -13   17   12     -3.29      0.00
  -11   17   12     -2.56      0.00
   -9   17   12     -2.06      0.00
   -7   17   12     -0.43      0.00
   -5   17   12      0.41      0.00
   -3   17   12     -3.09      0.00
   -1   17   12      1.76      0.00
    1   17   12     -0.58      0.00
    3   17   12     -1.04      0.00
    5   17   12     -1.52      0.00
    7   17   12      0.01      0.00
    9   17   12      1.16      0.00
   11   17   12     -1.12      0.00
   13   17   12     -3.62      0.00
   15   17   12     -1.96      0.00
   17   17   12     -3.84      0.00
  -22   18   12      0.00      0.00
  -20   18   12      1.49      0.00
  -18   18   12      3.03      0.00
  -16   18   12      2.55      0.00
  -14   18   12      0.12      0.00
  -12   18   12     -0.60      0.00
  -10   18   12      0.85      0.00
   -8   18   12     -2.00      0.00
   -6   18   12      3.27      0.00
   -4   18   12      3.87      0.00
   -2   18   12     -0.50      0.00
    0   18   12      2.37      0.00
    2   18   12      0.35      0.00
    4   18   12     -1.02      0.00
    6   18   12      7.12      0.00
    8   18   12      0.18      0.00
   10   18   12     -3.82      0.00
   12   18   12      7.20      0.00
   14   18   12     -0.78      0.00
  -19   19   12     -3.61      0.00
  -17   19   12      0.32      0.00
  -15   19   12      0.48      0.00
  -13   19   12     -1.68      0.00
  -11   19   12     -2.68      0.00
   -9   19   12      1.22      0.00
   -7   19   12     -2.11      0.00
   -5   19   12     -0.42      0.00
   -3   19   12      1.89      0.00
   -1   19   12      4.40      0.00
    1   19   12     -0.40      0.00
    3   19   12      2.82      0.00
    5   19   12     -4.03      0.00
    7   19   12     -0.49      0.00
    9   19   12     -0.29      0.00
   11   19   12      4.40      0.00
  -14   20   12     -2.55      0.00
  -12   20   12     -6.52      0.00
  -10   20   12     -1.21      0.00
   -8   20   12     -2.02      0.00
   -6   20   12     -8.60      0.00
   -4   20   12     -2.31      0.00
   -2   20   12      5.03      0.00
    0   20   12     -2.53      0.00
    2   20   12     -1.96      0.00
    4   20   12     -2.36      0.00
    6   20   12     -1.55      0.00
   -7   21   12     -0.14      0.00
   -5   21   12      0.16      0.00
   -3   21   12      2.00      0.00
   -1   21   12      0.20      0.00
  -39    1   13     -1.27      0.00
  -37    1   13     -4.96      0.00
  -35    1   13     -0.97      0.00
  -33    1   13      1.91      0.00
  -31    1   13      0.69      0.00
  -29    1   13     -1.59      0.00
  -27    1   13     -1.76      0.00
  -25    1   13     -1.77      0.00
  -23    1   13      3.85      0.00
  -21    1   13      7.13      0.00
  -19    1   13     -2.81      0.00
  -17    1   13      1.66      0.00
  -15    1   13     -3.59      0.00
  -13    1   13      2.38      0.00
  -11    1   13     33.20      0.00
   -9    1   13     30.00      0.00
   -7    1   13    -18.81      0.00
   -5    1   13    -25.70      0.00
   -3    1   13     -7.17      0.00
   -1    1   13      2.00      0.00
    1    1   13     15.09      0.00
    3    1   13      0.59      0.00
    5    1   13     -4.80      0.00
    7    1   13      0.91      0.00
    9    1   13     -0.52      0.00
   11    1   13      1.96      0.00
   13    1   13     -1.41      0.00
   15    1   13     -1.48      0.00
   17    1   13     -3.53      0.00
   19    1   13     -3.36      0.00
   21    1   13      1.22      0.00
   23    1   13     -1.47      0.00
   25    1   13      0.28      0.00
   27    1   13      1.65      0.00
   29    1   13      4.59      0.00
   31    1   13     -0.43      0.00
  -40    2   13     -1.83      0.00
  -38    2   13      1.02      0.00
  -36    2   13     -0.68      0.00
  -34    2   13     -1.52      0.00
  -32    2   13     -1.09      0.00
  -30    2   13     -2.05      0.00
  -28    2   13      1.72      0.00
  -26    2   13      1.24      0.00
  -24    2   13     -5.30      0.00
  -22    2   13     -6.38      0.00
  -20    2   13     -3.16      0.00
  -18    2   13     -4.97      0.00
  -16    2   13      1.70      0.00
  -14    2   13      1.29      0.00
  -12    2   13     -9.25      0.00
  -10    2   13    -16.66      0.00
   -8    2   13     -5.90      0.00
   -6    2   13      4.37      0.00
   -4    2   13     -7.14      0.00
   -2    2   13     -5.60      0.00
    0    2   13      6.13      0.00
    2    2   13      7.56      0.00
    4    2   13      5.52      0.00
    6    2   13     17.09      0.00
    8    2   13      9.81      0.00
   10    2   13     -0.11      0.00
   12    2   13     -4.39      0.00
   14    2   13      6.52      0.00
   16    2   13      0.15      0.00
   18    2   13     -0.35      0.00
   20    2   13      1.29      0.00
   22    2   13     -1.63      0.00
   24    2   13     -0.91      0.00
   26    2   13     -2.35      0.00
   28    2   13     -1.11      0.00
   30    2   13     -3.49      0.00
   32    2   13      4.60      0.00
  -39    3   13     -0.07      0.00
  -37    3   13      0.65      0.00
  -35    3   13     -1.72      0.00
  -33    3   13      2.17      0.00
  -31    3   13     -2.26      0.00
  -29    3   13     -5.95      0.00
  -27    3   13      1.49      0.00
  -25    3   13     -0.02      0.00
  -23    3   13      7.35      0.00
  -21    3   13      8.69      0.00
  -19    3   13      9.70      0.00
  -17    3   13      5.00      0.00
  -15    3   13     -8.60      0.00
  -13    3   13     -8.19      0.00
  -11    3   13     -0.26      0.00
   -9    3   13      9.41      0.00
   -7    3   13    -25.80      0.00
   -5    3   13     -4.83      0.00
   -3    3   13    -13.20      0.00
   -1    3   13     -2.38      0.00
    1    3   13     16.12      0.00
    3    3   13     -5.24      0.00
    5    3   13      6.60      0.00
    7    3   13      1.20      0.00
    9    3   13      1.16      0.00
   11    3   13      0.36      0.00
   13    3   13     -0.37      0.00
   15    3   13     -1.13      0.00
   17    3   13      4.62      0.00
   19    3   13      0.50      0.00
   21    3   13     -1.31      0.00
   23    3   13     -1.36      0.00
   25    3   13     -1.61      0.00
   27    3   13      0.32      0.00
   29    3   13     -0.52      0.00
   31    3   13     -0.78      0.00
  -40    4   13      1.66      0.00
  -38    4   13     -4.53      0.00
  -36    4   13     -0.15      0.00
  -34    4   13      0.20      0.00
  -32    4   13     -0.77      0.00
  -30    4   13      2.16      0.00
  -28    4   13      0.39      0.00
  -26    4   13      1.95      0.00
  -24    4   13     -5.10      0.00
  -22    4   13     -2.10      0.00
  -20    4   13     -2.00      0.00
  -18    4   13     -6.86      0.00
  -16    4   13     -3.96      0.00
  -14    4   13    -12.45      0.00
  -12    4   13     10.17      0.00
  -10    4   13     13.70      0.00
   -8    4   13      4.49      0.00
   -6    4   13     -3.31      0.00
   -4    4   13      5.20      0.00
   -2    4   13     11.81      0.00
    0    4   13     -7.14      0.00
    2    4   13      4.77      0.00
    4    4   13     13.11      0.00
    6    4   13     12.95      0.00
    8    4   13      8.39      0.00
   10    4   13     -1.77      0.00
   12    4   13      1.03      0.00
   14    4   13      1.12      0.00
   16    4   13      0.46      0.00
   18    4   13     -0.69      0.00
   20    4   13     -3.18      0.00
   22    4   13     -3.34      0.00
   24    4   13     -5.08      0.00
   26    4   13     -1.33      0.00
   28    4   13     -1.39      0.00
   30    4   13     -0.96      0.00
  -39    5   13      1.25      0.00
  -37    5   13     -3.21      0.00
  -35    5   13     -2.00      0.00
  -33    5   13      2.57      0.00
  -31    5   13     -3.59      0.00
  -29    5   13     -1.23      0.00
  -27    5   13      0.18      0.00
  -25    5   13      2.61      0.00
  -23    5   13     -0.82      0.00
  -21    5   13     -1.76      0.00
  -19    5   13      3.99      0.00
  -17    5   13      8.80      0.00
  -15    5   13     22.92      0.00
  -13    5   13      4.50      0.00
  -11    5   13    -14.00      0.00
   -9    5   13     -0.12      0.00
   -7    5   13     -7.88      0.00
   -5    5   13     -8.08      0.00
   -3    5   13     -9.62      0.00
   -1    5   13    -13.84      0.00
    1    5   13     15.47      0.00
    3    5   13     -4.02      0.00
    5    5   13      5.78      0.00
    7    5   13     -3.20      0.00
    9    5   13     -3.71      0.00
   11    5   13      2.04      0.00
   13    5   13      4.22      0.00
   15    5   13      1.86      0.00
   17    5   13     -1.18      0.00
   19    5   13     -0.08      0.00
   21    5   13     -2.00      0.00
   23    5   13     -0.33      0.00
   25    5   13      1.85      0.00
   27    5   13     -0.50      0.00
   29    5   13     -0.56      0.00
   31    5   13     -0.84      0.00
  -38    6   13     -2.26      0.00
  -36    6   13      0.70      0.00
  -34    6   13      0.70      0.00
  -32    6   13     -0.99      0.00
  -30    6   13      0.69      0.00
  -28    6   13     -2.53      0.00
  -26    6   13     -4.54      0.00
  -24    6   13     -7.47      0.00
  -22    6   13      1.78      0.00
  -20    6   13     -0.47      0.00
  -18    6   13      1.19      0.00
  -16    6   13     -1.47      0.00
  -14    6   13    -10.22      0.00
  -12    6   13      5.39      0.00
  -10    6   13      5.85      0.00
   -8    6   13     -7.30      0.00
   -6    6   13     -4.56      0.00
   -4    6   13     17.31      0.00
   -2    6   13     -0.62      0.00
    0    6   13      1.86      0.00
    2    6   13      2.46      0.00
    4    6   13     -4.91      0.00
    6    6   13     12.42      0.00
    8    6   13     -3.12      0.00
   10    6   13      1.24      0.00
   12    6   13      1.67      0.00
   14    6   13     -2.95      0.00
   16    6   13      0.46      0.00
   18    6   13      4.11      0.00
   20    6   13     -2.64      0.00
   22    6   13     -3.23      0.00
   24    6   13     -0.92      0.00
   26    6   13      0.82      0.00
   28    6   13      3.58      0.00
   30    6   13      2.30      0.00
  -37    7   13     -0.27      0.00
  -35    7   13     -1.64      0.00
  -33    7   13      0.42      0.00
  -31    7   13      2.70      0.00
  -29    7   13     -4.78      0.00
  -27    7   13      0.20      0.00
  -25    7   13     -1.66      0.00
  -23    7   13      1.42      0.00
  -21    7   13      1.84      0.00
  -19    7   13     -3.62      0.00
  -17    7   13     -3.48      0.00
  -15    7   13      7.69      0.00
  -13    7   13      8.95      0.00
  -11    7   13      2.49      0.00
   -9    7   13     -5.74      0.00
   -7    7   13    -19.16      0.00
   -5    7   13     -7.32      0.00
   -3    7   13      2.09      0.00
   -1    7   13      1.02      0.00
    1    7   13     19.07      0.00
    3    7   13      5.06      0.00
    5    7   13     -2.46      0.00
    7    7   13     -4.44      0.00
    9    7   13      4.90      0.00
   11    7   13      1.14      0.00
   13    7   13      1.91      0.00
   15    7   13      3.86      0.00
   17    7   13     -5.92      0.00
   19    7   13     -3.29      0.00
   21    7   13     -1.09      0.00
   23    7   13     -2.30      0.00
   25    7   13     -0.65      0.00
   27    7   13     -1.08      0.00
   29    7   13     -3.64      0.00
  -38    8   13     -1.35      0.00
  -36    8   13     -0.38      0.00
  -34    8   13     -2.38      0.00
  -32    8   13     -3.55      0.00
  -30    8   13      2.88      0.00
  -28    8   13      0.07      0.00
  -26    8   13     -0.15      0.00
  -24    8   13      0.52      0.00
  -22    8   13      0.68      0.00
  -20    8   13     -0.41      0.00
  -18    8   13     -0.15      0.00
  -16    8   13      5.59      0.00
  -14    8   13     -2.04      0.00
  -12    8   13     -7.97      0.00
  -10    8   13     -2.26      0.00
   -8    8   13      3.41      0.00
   -6    8   13      3.14      0.00
   -4    8   13      6.95      0.00
   -2    8   13      4.18      0.00
    0    8   13    -12.71      0.00
    2    8   13      1.11      0.00
    4    8   13     -5.71      0.00
    6    8   13     17.48      0.00
    8    8   13     -4.25      0.00
   10    8   13     -2.32      0.00
   12    8   13      4.07      0.00
   14    8   13     -3.50      0.00
   16    8   13     -1.95      0.00
   18    8   13      0.44      0.00
   20    8   13     -1.59      0.00
   22    8   13     -2.44      0.00
   24    8   13     -1.69      0.00
   26    8   13      1.81      0.00
   28    8   13     -2.68      0.00
  -37    9   13     -1.61      0.00
  -35    9   13      0.34      0.00
  -33    9   13     -3.52      0.00
  -31    9   13      3.37      0.00
  -29    9   13      2.18      0.00
  -27    9   13     -0.96      0.00
  -25    9   13     -5.49      0.00
  -23    9   13      0.09      0.00
  -21    9   13      3.45      0.00
  -19    9   13      4.60      0.00
  -17    9   13      1.13      0.00
  -15    9   13     -1.64      0.00
  -13    9   13      1.52      0.00
  -11    9   13      1.15      0.00
   -9    9   13     -1.63      0.00
   -7    9   13     -2.84      0.00
   -5    9   13     -8.78      0.00
   -3    9   13      9.29      0.00
   -1    9   13     -3.31      0.00
    1    9   13      8.90      0.00
    3    9   13     -4.04      0.00
    5    9   13     -1.91      0.00
    7    9   13     -0.77      0.00
    9    9   13      0.08      0.00
   11    9   13      0.41      0.00
   13    9   13     -0.05      0.00
   15    9   13      0.60      0.00
   17    9   13     -0.17      0.00
   19    9   13     -1.47      0.00
   21    9   13     -0.02      0.00
   23    9   13     -0.47      0.00
   25    9   13      3.75      0.00
   27    9   13     -2.12      0.00
  -36   10   13      0.91      0.00
  -34   10   13      1.17      0.00
  -32   10   13     -1.10      0.00
  -30   10   13      4.63      0.00
  -28   10   13     -0.57      0.00
  -26   10   13     -1.28      0.00
  -24   10   13      2.49      0.00
  -22   10   13      3.43      0.00
  -20   10   13     -0.66      0.00
  -18   10   13      2.76      0.00
  -16   10   13     -0.60      0.00
  -14   10   13     -9.64      0.00
  -12   10   13     -4.24      0.00
  -10   10   13     -1.16      0.00
   -8   10   13     -6.81      0.00
   -6   10   13     -7.46      0.00
   -4   10   13      3.44      0.00
   -2   10   13     -1.06      0.00
    0   10   13     -6.75      0.00
    2   10   13      2.18      0.00
    4   10   13      1.72      0.00
    6   10   13      6.68      0.00
    8   10   13     -0.65      0.00
   10   10   13      1.22      0.00
   12   10   13      3.53      0.00
   14   10   13      0.23      0.00
   16   10   13      0.18      0.00
   18   10   13      0.99      0.00
   20   10   13     -0.91      0.00
   22   10   13     -1.19      0.00
   24   10   13     -1.36      0.00
   26   10   13     -2.24      0.00
  -35   11   13     -2.99      0.00
  -33   11   13     -3.43      0.00
  -31   11   13      0.49      0.00
  -29   11   13     -1.67      0.00
  -27   11   13     -1.15      0.00
  -25   11   13     -3.65      0.00
  -23   11   13     -1.57      0.00
  -21   11   13     -2.85      0.00
  -19   11   13      0.74      0.00
  -17   11   13     -1.05      0.00
  -15   11   13     -2.60      0.00
  -13   11   13      1.28      0.00
  -11   11   13     -0.36      0.00
   -9   11   13     -2.61      0.00
   -7   11   13     -1.99      0.00
   -5   11   13     -3.62      0.00
   -3   11   13      0.89      0.00
   -1   11   13     -2.31      0.00
    1   11   13      2.07      0.00
    3   11   13     -0.28      0.00
    5   11   13     -2.58      0.00
    7   11   13     -0.77      0.00
    9   11   13     -6.56      0.00
   11   11   13      3.46      0.00
   13   11   13      0.89      0.00
   15   11   13      0.46      0.00
   17   11   13      2.21      0.00
   19   11   13     -0.58      0.00
   21   11   13     -0.42      0.00
   23   11   13     -1.24      0.00
   25   11   13      0.36      0.00
  -34   12   13      6.89      0.00
  -32   12   13      1.91      0.00
  -30   12   13      0.78      0.00
  -28   12   13      1.72      0.00
  -26   12   13      2.22      0.00
  -24   12   13      1.01      0.00
  -22   12   13      0.56      0.00
  -20   12   13     -0.94      0.00
  -18   12   13     -7.60      0.00
  -16   12   13     -5.32      0.00
  -14   12   13     -0.74      0.00
  -12   12   13      5.36      0.00
  -10   12   13      3.14      0.00
   -8   12   13      2.03      0.00
   -6   12   13      7.84      0.00
   -4   12   13      3.25      0.00
   -2   12   13      1.14      0.00
    0   12   13    -14.05      0.00
    2   12   13     -3.08      0.00
    4   12   13     -4.81      0.00
    6   12   13      7.22      0.00
    8   12   13      2.04      0.00
   10   12   13      3.17      0.00
   12   12   13     -2.27      0.00
   14   12   13      5.48      0.00
   16   12   13      2.72      0.00
   18   12   13      3.23      0.00
   20   12   13      0.75      0.00
   22   12   13      1.88      0.00
   24   12   13     -2.86      0.00
  -31   13   13     -1.51      0.00
  -29   13   13      0.65      0.00
  -27   13   13     -3.48      0.00
  -25   13   13      5.94      0.00
  -23   13   13      1.13      0.00
  -21   13   13     -6.47      0.00
  -19   13   13     -6.26      0.00
  -17   13   13     -1.82      0.00
  -15   13   13      4.06      0.00
  -13   13   13     -1.15      0.00
  -11   13   13      2.63      0.00
   -9   13   13     -3.29      0.00
   -7   13   13      1.32      0.00
   -5   13   13     -3.53      0.00
   -3   13   13     -1.46      0.00
   -1   13   13      5.33      0.00
    1   13   13      2.65      0.00
    3   13   13      0.41      0.00
    5   13   13      0.16      0.00
    7   13   13     -4.94      0.00
    9   13   13      2.47      0.00
   11   13   13      7.41      0.00
   13   13   13      1.26      0.00
   15   13   13     -4.69      0.00
   17   13   13      1.79      0.00
   19   13   13      3.91      0.00
   21   13   13      0.39      0.00
   23   13   13     -2.49      0.00
  -30   14   13     -0.11      0.00
  -28   14   13      4.64      0.00
  -26   14   13      1.79      0.00
  -24   14   13      3.03      0.00
  -22   14   13      0.24      0.00
  -20   14   13      1.83      0.00
  -18   14   13     -0.59      0.00
  -16   14   13     -5.56      0.00
  -14   14   13      0.25      0.00
  -12   14   13     -1.80      0.00
  -10   14   13      0.90      0.00
   -8   14   13      3.07      0.00
   -6   14   13      7.76      0.00
   -4   14   13      2.01      0.00
   -2   14   13     -4.28      0.00
    0   14   13     -1.97      0.00
    2   14   13      0.06      0.00
    4   14   13      1.65      0.00
    6   14   13     -0.65      0.00
    8   14   13      0.68      0.00
   10   14   13      0.82      0.00
   12   14   13     -3.47      0.00
   14   14   13      7.26      0.00
   16   14   13      0.36      0.00
   18   14   13     -0.63      0.00
   20   14   13     -1.03      0.00
   22   14   13     -0.76      0.00
  -29   15   13     -2.42      0.00
  -27   15   13     -2.43      0.00
  -25   15   13     -2.52      0.00
  -23   15   13     -4.91      0.00
  -21   15   13     -3.38      0.00
  -19   15   13     -7.46      0.00
  -17   15   13     -0.83      0.00
  -15   15   13      4.00      0.00
  -13   15   13     -0.91      0.00
  -11   15   13     -5.53      0.00
   -9   15   13      2.53      0.00
   -7   15   13      0.56      0.00
   -5   15   13     -5.82      0.00
   -3   15   13     -3.29      0.00
   -1   15   13     -3.20      0.00
    1   15   13      3.36      0.00
    3   15   13      1.49      0.00
    5   15   13     -2.00      0.00
    7   15   13     -2.26      0.00
    9   15   13     -0.78      0.00
   11   15   13     -2.51      0.00
   13   15   13      0.11      0.00
   15   15   13      0.55      0.00
   17   15   13      1.90      0.00
   19   15   13      0.33      0.00
   21   15   13      2.09      0.00
  -26   16   13     -1.55      0.00
  -24   16   13     -3.79      0.00
  -22   16   13     -2.55      0.00
  -20   16   13      0.07      0.00
  -18   16   13     -0.44      0.00
  -16   16   13     -2.67      0.00
  -14   16   13      1.77      0.00
  -12   16   13      1.19      0.00
  -10   16   13     -0.33      0.00
   -8   16   13      3.33      0.00
   -6   16   13      4.43      0.00
   -4   16   13     -0.09      0.00
   -2   16   13      1.03      0.00
    0   16   13     -3.72      0.00
    2   16   13     -1.28      0.00
    4   16   13      1.84      0.00
    6   16   13     -2.10      0.00
    8   16   13     -2.93      0.00
   10   16   13      7.74      0.00
   12   16   13     -0.21      0.00
   14   16   13      3.81      0.00
   16   16   13     -0.23      0.00
   18   16   13      5.52      0.00
  -25   17   13     -2.87      0.00
  -23   17   13      1.71      0.00
  -21   17   13      1.66      0.00
  -19   17   13     -2.36      0.00
  -17   17   13     -2.61      0.00
  -15   17   13      1.80      0.00
  -13   17   13      1.38      0.00
  -11   17   13     -2.09      0.00
   -9   17   13     -0.99      0.00
   -7   17   13     -0.95      0.00
   -5   17   13     -4.09      0.00
   -3   17   13     -2.88      0.00
   -1   17   13      1.06      0.00
    1   17   13     -0.04      0.00
    3   17   13      0.87      0.00
    5   17   13     -0.03      0.00
    7   17   13      1.70      0.00
    9   17   13      1.08      0.00
   11   17   13      0.33      0.00
   13   17   13      3.34      0.00
   15   17   13      0.56      0.00
  -22   18   13     -4.37      0.00
  -20   18   13     -1.73      0.00
  -18   18   13     -0.61      0.00
  -16   18   13     -0.35      0.00
  -14   18   13     -2.21      0.00
  -12   18   13     -8.28      0.00
  -10   18   13     -0.11      0.00
   -8   18   13     -0.33      0.00
   -6   18   13      1.28      0.00
   -4   18   13      5.19      0.00
   -2   18   13      1.87      0.00
    0   18   13      0.96      0.00
    2   18   13      1.62      0.00
    4   18   13     -4.68      0.00
    6   18   13     -3.79      0.00
    8   18   13      2.83      0.00
   10   18   13      0.99      0.00
   12   18   13      0.32      0.00
   14   18   13     -4.38      0.00
  -19   19   13     -2.63      0.00
  -17   19   13     -3.02      0.00
  -15   19   13      0.86      0.00
  -13   19   13      2.05      0.00
  -11   19   13     -0.88      0.00
   -9   19   13     -0.53      0.00
   -7   19   13     -4.32      0.00
   -5   19   13     -5.77      0.00
   -3   19   13     -2.55      0.00
   -1   19   13     -3.53      0.00
    1   19   13     -5.33      0.00
    3   19   13      4.02      0.00
    5   19   13      2.63      0.00
    7   19   13     -6.34      0.00
    9   19   13      2.12      0.00
  -14   20   13      0.87      0.00
  -12   20   13     -3.33      0.00
  -10   20   13     -3.20      0.00
   -8   20   13     -1.06      0.00
   -6   20   13      2.65      0.00
   -4   20   13      0.92      0.00
   -2   20   13      1.03      0.00
    0   20   13     -2.09      0.00
    2   20   13     -0.54      0.00
    4   20   13      0.30      0.00
    6   20   13     -0.15      0.00
  -40    0   14     -0.25      0.00
  -38    0   14     -2.27      0.00
  -36    0   14     -0.64      0.00
  -34    0   14      0.33      0.00
  -32    0   14     -1.28      0.00
  -30    0   14     -1.85      0.00
  -28    0   14     -1.15      0.00
  -26    0   14     -3.50      0.00
  -24    0   14    -11.00      0.00
  -22    0   14     -1.82      0.00
  -20    0   14     -4.18      0.00
  -18    0   14     -3.55      0.00
  -16    0   14    -11.71      0.00
  -14    0   14    -10.91      0.00
  -12    0   14      3.06      0.00
  -10    0   14     19.25      0.00
   -8    0   14     11.10      0.00
   -6    0   14     26.25      0.00
   -4    0   14     -4.92      0.00
   -2    0   14     27.49      0.00
    0    0   14     -2.45      0.00
    2    0   14      5.57      0.00
    4    0   14      4.54      0.00
    6    0   14      0.93      0.00
    8    0   14      8.60      0.00
   10    0   14     -0.15      0.00
   12    0   14      5.22      0.00
   14    0   14      2.71      0.00
   16    0   14     -0.77      0.00
   18    0   14      2.34      0.00
   20    0   14     -0.33      0.00
   22    0   14     -3.03      0.00
   24    0   14      0.16      0.00
   26    0   14     -1.49      0.00
   28    0   14      3.39      0.00
   30    0   14      1.03      0.00
  -39    1   14      1.59      0.00
  -37    1   14     -0.90      0.00
  -35    1   14      1.18      0.00
  -33    1   14      0.19      0.00
  -31    1   14      2.36      0.00
  -29    1   14      0.96      0.00
  -27    1   14     -1.38      0.00
  -25    1   14      3.55      0.00
  -23    1   14      3.77      0.00
  -21    1   14      8.22      0.00
  -19    1   14      7.68      0.00
  -17    1   14     -4.52      0.00
  -15    1   14     -0.91      0.00
  -13    1   14      9.57      0.00
  -11    1   14     -8.08      0.00
   -9    1   14     -1.36      0.00
   -7    1   14    -28.17      0.00
   -5    1   14      3.72      0.00
   -3    1   14     13.12      0.00
   -1    1   14     46.94      0.00
    1    1   14     -6.01      0.00
    3    1   14     29.15      0.00
    5    1   14     -5.04      0.00
    7    1   14      5.02      0.00
    9    1   14     -0.01      0.00
   11    1   14     -9.65      0.00
   13    1   14      6.69      0.00
   15    1   14      1.83      0.00
   17    1   14     -3.40      0.00
   19    1   14      1.34      0.00
   21    1   14      0.44      0.00
   23    1   14     -0.64      0.00
   25    1   14      0.42      0.00
   27    1   14      0.75      0.00
   29    1   14     -1.90      0.00
   31    1   14     -1.08      0.00
  -40    2   14      1.51      0.00
  -38    2   14      3.66      0.00
  -36    2   14      1.71      0.00
  -34    2   14      2.29      0.00
  -32    2   14      0.97      0.00
  -30    2   14     -2.63      0.00
  -28    2   14      0.50      0.00
  -26    2   14     -3.20      0.00
  -24    2   14    -10.92      0.00
  -22    2   14     -5.11      0.00
  -20    2   14     -2.96      0.00
  -18    2   14      0.40      0.00
  -16    2   14     -1.96      0.00
  -14    2   14      5.35      0.00
  -12    2   14     -8.75      0.00
  -10    2   14    -16.94      0.00
   -8    2   14     16.56      0.00
   -6    2   14      6.97      0.00
   -4    2   14      2.60      0.00
   -2    2   14     10.95      0.00
    0    2   14     -7.09      0.00
    2    2   14      6.22      0.00
    4    2   14     14.77      0.00
    6    2   14     -4.67      0.00
    8    2   14      4.26      0.00
   10    2   14     -1.91      0.00
   12    2   14     -1.47      0.00
   14    2   14     -2.38      0.00
   16    2   14      2.63      0.00
   18    2   14     -0.20      0.00
   20    2   14     -2.04      0.00
   22    2   14      0.00      0.00
   24    2   14      0.36      0.00
   26    2   14     -3.56      0.00
   28    2   14     -1.57      0.00
   30    2   14      0.47      0.00
  -39    3   14     -2.81      0.00
  -37    3   14     -1.69      0.00
  -35    3   14     -0.52      0.00
  -33    3   14     -4.16      0.00
  -31    3   14     -0.56      0.00
  -29    3   14      0.57      0.00
  -27    3   14      0.12      0.00
  -25    3   14      0.81      0.00
  -23    3   14      0.67      0.00
  -21    3   14      4.16      0.00
  -19    3   14      9.04      0.00
  -17    3   14     -6.48      0.00
  -15    3   14    -17.50      0.00
  -13    3   14    -16.83      0.00
  -11    3   14      4.69      0.00
   -9    3   14     22.45      0.00
   -7    3   14      9.34      0.00
   -5    3   14      6.11      0.00
   -3    3   14    -30.07      0.00
   -1    3   14      5.20      0.00
    1    3   14     -2.80      0.00
    3    3   14     24.56      0.00
    5    3   14    -14.81      0.00
    7    3   14      5.32      0.00
    9    3   14     -0.21      0.00
   11    3   14     -1.56      0.00
   13    3   14      2.25      0.00
   15    3   14     -3.75      0.00
   17    3   14      0.55      0.00
   19    3   14      3.15      0.00
   21    3   14      0.63      0.00
   23    3   14     -2.51      0.00
   25    3   14      1.77      0.00
   27    3   14      1.76      0.00
   29    3   14      1.61      0.00
   31    3   14     -2.66      0.00
  -40    4   14      6.34      0.00
  -38    4   14     -2.57      0.00
  -36    4   14     -1.69      0.00
  -34    4   14     -1.69      0.00
  -32    4   14     -3.77      0.00
  -30    4   14      1.34      0.00
  -28    4   14     -1.08      0.00
  -26    4   14      4.36      0.00
  -24    4   14      0.64      0.00
  -22    4   14     -1.57      0.00
  -20    4   14      0.37      0.00
  -18    4   14      0.68      0.00
  -16    4   14      6.74      0.00
  -14    4   14     10.24      0.00
  -12    4   14      2.58      0.00
  -10    4   14     -0.99      0.00
   -8    4   14     22.02      0.00
   -6    4   14     19.85      0.00
   -4    4   14     13.56      0.00
   -2    4   14     16.52      0.00
    0    4   14    -16.47      0.00
    2    4   14     -5.82      0.00
    4    4   14      3.21      0.00
    6    4   14     -1.11      0.00
    8    4   14      1.86      0.00
   10    4   14      1.42      0.00
   12    4   14     -2.07      0.00
   14    4   14     -2.82      0.00
   16    4   14     -0.94      0.00
   18    4   14     -3.12      0.00
   20    4   14     -1.30      0.00
   22    4   14      1.25      0.00
   24    4   14     -1.29      0.00
   26    4   14     -3.57      0.00
   28    4   14      0.70      0.00
   30    4   14      1.96      0.00
  -39    5   14     -0.13      0.00
  -37    5   14      3.45      0.00
  -35    5   14      2.08      0.00
  -33    5   14      1.07      0.00
  -31    5   14     -1.01      0.00
  -29    5   14     -1.15      0.00
  -27    5   14     -1.67      0.00
  -25    5   14     -1.16      0.00
  -23    5   14      3.24      0.00
  -21    5   14      1.23      0.00
  -19    5   14     -0.05      0.00
  -17    5   14      1.15      0.00
  -15    5   14      0.96      0.00
  -13    5   14     -6.65      0.00
  -11    5   14    -14.43      0.00
   -9    5   14      5.89      0.00
   -7    5   14    -17.16      0.00
   -5    5   14      0.45      0.00
   -3    5   14    -24.80      0.00
   -1    5   14     12.95      0.00
    1    5   14      4.55      0.00
    3    5   14      5.33      0.00
    5    5   14    -12.14      0.00
    7    5   14      1.90      0.00
    9    5   14     -2.75      0.00
   11    5   14      5.02      0.00
   13    5   14      3.93      0.00
   15    5   14     -1.71      0.00
   17    5   14     -0.74      0.00
   19    5   14      1.50      0.00
   21    5   14      0.50      0.00
   23    5   14     -2.01      0.00
   25    5   14     -0.52      0.00
   27    5   14      1.52      0.00
   29    5   14     -0.32      0.00
  -38    6   14      4.21      0.00
  -36    6   14     -0.03      0.00
  -34    6   14     -0.83      0.00
  -32    6   14      3.69      0.00
  -30    6   14     -5.61      0.00
  -28    6   14     -1.19      0.00
  -26    6   14      1.43      0.00
  -24    6   14      1.63      0.00
  -22    6   14      5.55      0.00
  -20    6   14      0.54      0.00
  -18    6   14      5.18      0.00
  -16    6   14     -4.49      0.00
  -14    6   14     -1.94      0.00
  -12    6   14      8.43      0.00
  -10    6   14     -3.63      0.00
   -8    6   14      4.55      0.00
   -6    6   14     15.05      0.00
   -4    6   14      3.47      0.00
   -2    6   14      6.85      0.00
    0    6   14     -6.68      0.00
    2    6   14     -3.04      0.00
    4    6   14     -0.10      0.00
    6    6   14      1.82      0.00
    8    6   14      0.96      0.00
   10    6   14      0.08      0.00
   12    6   14      0.22      0.00
   14    6   14      1.30      0.00
   16    6   14     -0.77      0.00
   18    6   14      2.21      0.00
   20    6   14      1.79      0.00
   22    6   14     -2.89      0.00
   24    6   14      0.05      0.00
   26    6   14     -0.48      0.00
   28    6   14      0.98      0.00
  -37    7   14      0.18      0.00
  -35    7   14     -1.10      0.00
  -33    7   14     -3.97      0.00
  -31    7   14      3.21      0.00
  -29    7   14     -0.85      0.00
  -27    7   14      1.34      0.00
  -25    7   14      0.94      0.00
  -23    7   14      2.01      0.00
  -21    7   14     -4.11      0.00
  -19    7   14     -8.65      0.00
  -17    7   14     -7.00      0.00
  -15    7   14      5.23      0.00
  -13    7   14      1.86      0.00
  -11    7   14      6.12      0.00
   -9    7   14     -1.10      0.00
   -7    7   14     -4.19      0.00
   -5    7   14     -5.40      0.00
   -3    7   14     -0.09      0.00
   -1    7   14      2.31      0.00
    1    7   14     -5.35      0.00
    3    7   14      3.67      0.00
    5    7   14     -3.63      0.00
    7    7   14      3.49      0.00
    9    7   14     -3.98      0.00
   11    7   14      8.40      0.00
   13    7   14      1.06      0.00
   15    7   14      1.73      0.00
   17    7   14     -3.63      0.00
   19    7   14     -0.24      0.00
   21    7   14      1.04      0.00
   23    7   14     -1.32      0.00
   25    7   14     -0.05      0.00
   27    7   14     -3.31      0.00
   29    7   14     -2.20      0.00
  -36    8   14      1.18      0.00
  -34    8   14     -2.63      0.00
  -32    8   14     -1.12      0.00
  -30    8   14      5.86      0.00
  -28    8   14     -0.16      0.00
  -26    8   14     -0.40      0.00
  -24    8   14      2.08      0.00
  -22    8   14      1.00      0.00
  -20    8   14      2.26      0.00
  -18    8   14      6.23      0.00
  -16    8   14      0.82      0.00
  -14    8   14      2.20      0.00
  -12    8   14     -0.83      0.00
  -10    8   14      4.87      0.00
   -8    8   14      7.31      0.00
   -6    8   14      5.27      0.00
   -4    8   14      7.29      0.00
   -2    8   14      1.66      0.00
    0    8   14     -0.64      0.00
    2    8   14     -5.70      0.00
    4    8   14     -1.89      0.00
    6    8   14      6.47      0.00
    8    8   14      0.25      0.00
   10    8   14     -2.15      0.00
   12    8   14      5.79      0.00
   14    8   14     -0.82      0.00
   16    8   14      3.36      0.00
   18    8   14      6.72      0.00
   20    8   14      3.31      0.00
   22    8   14     -1.34      0.00
   24    8   14      1.52      0.00
   26    8   14     -1.75      0.00
   28    8   14     -2.04      0.00
  -37    9   14     -0.65      0.00
  -35    9   14     -0.56      0.00
  -33    9   14      4.91      0.00
  -31    9   14     -0.87      0.00
  -29    9   14     -1.53      0.00
  -27    9   14     -0.15      0.00
  -25    9   14     -3.53      0.00
  -23    9   14     -0.82      0.00
  -21    9   14      0.96      0.00
  -19    9   14     -1.21      0.00
  -17    9   14      5.07      0.00
  -15    9   14     -3.18      0.00
  -13    9   14      7.84      0.00
  -11    9   14      2.75      0.00
   -9    9   14     -1.18      0.00
   -7    9   14     -3.38      0.00
   -5    9   14     -1.39      0.00
   -3    9   14     -5.89      0.00
   -1    9   14      0.67      0.00
    1    9   14     -1.16      0.00
    3    9   14      4.74      0.00
    5    9   14     -0.74      0.00
    7    9   14      1.58      0.00
    9    9   14      2.83      0.00
   11    9   14      5.86      0.00
   13    9   14      1.07      0.00
   15    9   14      0.44      0.00
   17    9   14      4.32      0.00
   19    9   14      1.37      0.00
   21    9   14      0.86      0.00
   23    9   14     -0.39      0.00
   25    9   14     -0.92      0.00
   27    9   14     -2.16      0.00
  -36   10   14     -1.78      0.00
  -34   10   14     -0.74      0.00
  -32   10   14      2.06      0.00
  -30   10   14      3.79      0.00
  -28   10   14     -1.39      0.00
  -26   10   14      0.08      0.00
  -24   10   14     -1.36      0.00
  -22   10   14     -3.15      0.00
  -20   10   14     -5.74      0.00
  -18   10   14     -4.92      0.00
  -16   10   14     -2.89      0.00
  -14   10   14     -3.76      0.00
  -12   10   14      0.71      0.00
  -10   10   14     -1.44      0.00
   -8   10   14     -6.02      0.00
   -6   10   14      7.75      0.00
   -4   10   14      1.33      0.00
   -2   10   14      2.61      0.00
    0   10   14     -3.78      0.00
    2   10   14     -5.14      0.00
    4   10   14      0.51      0.00
    6   10   14      3.46      0.00
    8   10   14      4.09      0.00
   10   10   14     -3.30      0.00
   12   10   14      0.82      0.00
   14   10   14      0.80      0.00
   16   10   14      2.10      0.00
   18   10   14      1.01      0.00
   20   10   14     -0.41      0.00
   22   10   14      0.40      0.00
   24   10   14     -3.32      0.00
   26   10   14     -0.15      0.00
  -35   11   14     -0.45      0.00
  -33   11   14     -3.31      0.00
  -31   11   14     -2.11      0.00
  -29   11   14      2.19      0.00
  -27   11   14      1.87      0.00
  -25   11   14      1.55      0.00
  -23   11   14     -4.15      0.00
  -21   11   14     -2.89      0.00
  -19   11   14     -2.82      0.00
  -17   11   14      1.13      0.00
  -15   11   14      6.83      0.00
  -13   11   14      2.08      0.00
  -11   11   14      0.29      0.00
   -9   11   14      4.76      0.00
   -7   11   14      6.50      0.00
   -5   11   14      0.34      0.00
   -3   11   14     -4.75      0.00
   -1   11   14      0.42      0.00
    1   11   14      0.25      0.00
    3   11   14     -3.33      0.00
    5   11   14      0.52      0.00
    7   11   14     -0.81      0.00
    9   11   14      3.92      0.00
   11   11   14     -0.33      0.00
   13   11   14     -1.51      0.00
   15   11   14      2.24      0.00
   17   11   14      1.67      0.00
   19   11   14      1.94      0.00
   21   11   14     -2.41      0.00
   23   11   14     -0.01      0.00
   25   11   14      0.69      0.00
  -32   12   14      1.51      0.00
  -30   12   14      0.85      0.00
  -28   12   14      0.17      0.00
  -26   12   14      2.87      0.00
  -24   12   14      1.61      0.00
  -22   12   14      0.63      0.00
  -20   12   14     -5.44      0.00
  -18   12   14      1.83      0.00
  -16   12   14      2.73      0.00
  -14   12   14      0.39      0.00
  -12   12   14     -0.71      0.00
  -10   12   14      5.04      0.00
   -8   12   14     -0.09      0.00
   -6   12   14      9.63      0.00
   -4   12   14     -0.02      0.00
   -2   12   14      2.84      0.00
    0   12   14     -2.55      0.00
    2   12   14     -0.70      0.00
    4   12   14     -0.91      0.00
    6   12   14      0.39      0.00
    8   12   14      0.35      0.00
   10   12   14      0.13      0.00
   12   12   14      0.45      0.00
   14   12   14     -0.20      0.00
   16   12   14     -1.87      0.00
   18   12   14     -1.83      0.00
   20   12   14      0.26      0.00
   22   12   14      0.06      0.00
   24   12   14     -0.26      0.00
  -31   13   14      1.27      0.00
  -29   13   14     -0.46      0.00
  -27   13   14      1.94      0.00
  -25   13   14     -0.88      0.00
  -23   13   14     -2.08      0.00
  -21   13   14     -2.59      0.00
  -19   13   14      0.59      0.00
  -17   13   14     -0.03      0.00
  -15   13   14      0.55      0.00
  -13   13   14     -2.40      0.00
  -11   13   14      3.01      0.00
   -9   13   14      1.92      0.00
   -7   13   14     -0.18      0.00
   -5   13   14     -0.44      0.00
   -3   13   14     -5.88      0.00
   -1   13   14      4.11      0.00
    1   13   14      2.17      0.00
    3   13   14      0.92      0.00
    5   13   14      0.82      0.00
    7   13   14     -2.29      0.00
    9   13   14      4.00      0.00
   11   13   14      0.61      0.00
   13   13   14      3.56      0.00
   15   13   14      0.19      0.00
   17   13   14      0.47      0.00
   19   13   14     -2.18      0.00
   21   13   14     -2.09      0.00
   23   13   14      0.57      0.00
  -30   14   14      0.33      0.00
  -28   14   14      1.04      0.00
  -26   14   14      0.48      0.00
  -24   14   14     -0.66      0.00
  -22   14   14      3.62      0.00
  -20   14   14      0.09      0.00
  -18   14   14      1.63      0.00
  -16   14   14      3.85      0.00
  -14   14   14      1.33      0.00
  -12   14   14     -4.45      0.00
  -10   14   14      1.65      0.00
   -8   14   14      1.50      0.00
   -6   14   14     -0.51      0.00
   -4   14   14      2.82      0.00
   -2   14   14     -6.64      0.00
    0   14   14     -0.33      0.00
    2   14   14     -1.46      0.00
    4   14   14     -1.53      0.00
    6   14   14     -4.01      0.00
    8   14   14      4.00      0.00
   10   14   14     -0.41      0.00
   12   14   14      0.05      0.00
   14   14   14      5.06      0.00
   16   14   14     -0.14      0.00
   18   14   14     -2.14      0.00
   20   14   14      1.12      0.00
  -29   15   14      1.27      0.00
  -27   15   14      1.09      0.00
  -25   15   14     -4.06      0.00
  -23   15   14     -1.86      0.00
  -21   15   14     -1.74      0.00
  -19   15   14     -1.94      0.00
  -17   15   14      0.12      0.00
  -15   15   14      0.25      0.00
  -13   15   14      2.46      0.00
  -11   15   14      0.59      0.00
   -9   15   14      4.88      0.00
   -7   15   14      0.71      0.00
   -5   15   14      0.56      0.00
   -3   15   14      0.11      0.00
   -1   15   14     -0.05      0.00
    1   15   14     -0.22      0.00
    3   15   14     -5.49      0.00
    5   15   14      2.69      0.00
    7   15   14     -2.73      0.00
    9   15   14     -1.00      0.00
   11   15   14      1.42      0.00
   13   15   14     -2.66      0.00
   15   15   14      0.00      0.00
   17   15   14      0.95      0.00
   19   15   14      2.19      0.00
  -26   16   14      3.92      0.00
  -24   16   14      2.28      0.00
  -22   16   14      3.38      0.00
  -20   16   14      2.45      0.00
  -18   16   14     -1.92      0.00
  -16   16   14     -1.16      0.00
  -14   16   14      3.02      0.00
  -12   16   14      0.55      0.00
  -10   16   14      1.79      0.00
   -8   16   14      1.17      0.00
   -6   16   14      1.76      0.00
   -4   16   14      2.77      0.00
   -2   16   14      1.28      0.00
    0   16   14     -2.49      0.00
    2   16   14     -0.05      0.00
    4   16   14     -1.79      0.00
    6   16   14     -5.49      0.00
    8   16   14      0.12      0.00
   10   16   14     -1.40      0.00
   12   16   14      5.21      0.00
   14   16   14      4.86      0.00
   16   16   14     -1.39      0.00
   18   16   14     -0.69      0.00
  -25   17   14      0.02      0.00
  -23   17   14     -1.35      0.00
  -21   17   14     -1.54      0.00
  -19   17   14     -2.55      0.00
  -17   17   14     -0.71      0.00
  -15   17   14     -2.59      0.00
  -13   17   14     -2.02      0.00
  -11   17   14     -0.56      0.00
   -9   17   14      0.76      0.00
   -7   17   14     -2.00      0.00
   -5   17   14      1.38      0.00
   -3   17   14     -0.29      0.00
   -1   17   14      2.90      0.00
    1   17   14      0.33      0.00
    3   17   14     -0.41      0.00
    5   17   14     -1.68      0.00
    7   17   14      4.06      0.00
    9   17   14     -1.60      0.00
   11   17   14     -2.02      0.00
   13   17   14     -0.23      0.00
   15   17   14     -4.18      0.00
  -22   18   14      0.20      0.00
  -20   18   14      3.54      0.00
  -18   18   14      1.49      0.00
  -16   18   14      3.35      0.00
  -14   18   14      1.73      0.00
  -12   18   14     -2.32      0.00
  -10   18   14     -0.86      0.00
   -8   18   14      2.63      0.00
   -6   18   14      2.91      0.00
   -4   18   14      4.39      0.00
   -2   18   14     -2.28      0.00
    0   18   14     -2.08      0.00
    2   18   14     -2.97      0.00
    4   18   14      5.23      0.00
    8   18   14     -0.53      0.00
   10   18   14     -4.86      0.00
   12   18   14      1.55      0.00
  -17   19   14      0.74      0.00
  -15   19   14      0.75      0.00
  -13   19   14      3.45      0.00
  -11   19   14     -0.56      0.00
   -9   19   14     -0.11      0.00
   -7   19   14     -0.96      0.00
   -5   19   14     -4.42      0.00
   -3   19   14      5.60      0.00
   -1   19   14      1.45      0.00
    1   19   14      3.12      0.00
    3   19   14      5.54      0.00
    5   19   14     -0.64      0.00
    7   19   14     -1.21      0.00
    9   19   14     -2.49      0.00
  -12   20   14     -4.73      0.00
  -10   20   14      0.93      0.00
   -8   20   14      2.39      0.00
   -6   20   14      3.11      0.00
   -4   20   14      3.79      0.00
   -2   20   14      4.22      0.00
    0   20   14      2.46      0.00
    2   20   14     -0.33      0.00
  -39    1   15     -1.41      0.00
  -37    1   15      0.16      0.00
  -35    1   15     -0.25      0.00
  -33    1   15      0.93      0.00
  -31    1   15     -3.20      0.00
  -29    1   15     -1.42      0.00
  -27    1   15     -4.06      0.00
  -25    1   15      0.72      0.00
  -23    1   15      1.84      0.00
  -21    1   15     -0.28      0.00
  -19    1   15      0.82      0.00
  -17    1   15     -3.63      0.00
  -15    1   15     -3.13      0.00
  -13    1   15      5.81      0.00
  -11    1   15      2.75      0.00
   -9    1   15     12.15      0.00
   -7    1   15    -23.62      0.00
   -5    1   15    -22.64      0.00
   -3    1   15     -9.31      0.00
   -1    1   15      4.79      0.00
    1    1   15     15.27      0.00
    3    1   15     -6.19      0.00
    5    1   15      2.39      0.00
    7    1   15      1.21      0.00
    9    1   15      1.84      0.00
   11    1   15     -1.98      0.00
   13    1   15     -5.88      0.00
   15    1   15      0.24      0.00
   17    1   15     -2.36      0.00
   19    1   15     -3.24      0.00
   21    1   15     -0.38      0.00
   23    1   15      2.35      0.00
   25    1   15     -0.50      0.00
   27    1   15      1.56      0.00
   29    1   15      0.61      0.00
  -40    2   15      2.98      0.00
  -38    2   15      1.57      0.00
  -36    2   15      0.76      0.00
  -34    2   15     -2.00      0.00
  -32    2   15      0.84      0.00
  -30    2   15      3.17      0.00
  -28    2   15      1.11      0.00
  -26    2   15      3.18      0.00
  -24    2   15     -3.03      0.00
  -22    2   15      1.65      0.00
  -20    2   15      4.70      0.00
  -18    2   15      3.41      0.00
  -16    2   15     12.56      0.00
  -14    2   15    -11.61      0.00
  -12    2   15     -9.39      0.00
  -10    2   15     -3.62      0.00
   -8    2   15      5.12      0.00
   -6    2   15      0.79      0.00
   -4    2   15     -5.90      0.00
   -2    2   15    -23.25      0.00
    0    2   15     -7.38      0.00
    2    2   15     10.84      0.00
    4    2   15      0.19      0.00
    6    2   15      5.56      0.00
    8    2   15      4.37      0.00
   10    2   15     -3.39      0.00
   12    2   15     -3.65      0.00
   14    2   15     -1.11      0.00
   16    2   15     -0.89      0.00
   18    2   15      2.37      0.00
   20    2   15      0.98      0.00
   22    2   15     -0.85      0.00
   24    2   15      0.99      0.00
   26    2   15     -0.38      0.00
   28    2   15     -1.15      0.00
   30    2   15      0.35      0.00
  -39    3   15     -1.06      0.00
  -37    3   15     -2.06      0.00
  -35    3   15     -1.12      0.00
  -33    3   15     -1.48      0.00
  -31    3   15     -3.23      0.00
  -29    3   15     -3.31      0.00
  -27    3   15     -1.76      0.00
  -25    3   15      2.87      0.00
  -23    3   15     -0.93      0.00
  -21    3   15     -0.18      0.00
  -19    3   15      0.30      0.00
  -17    3   15     -6.94      0.00
  -15    3   15     -5.61      0.00
  -13    3   15    -10.95      0.00
  -11    3   15      4.59      0.00
   -9    3   15      8.34      0.00
   -7    3   15     -5.54      0.00
   -5    3   15    -13.04      0.00
   -3    3   15     -9.25      0.00
   -1    3   15      5.93      0.00
    1    3   15      5.01      0.00
    3    3   15     -7.55      0.00
    5    3   15      5.75      0.00
    7    3   15      7.99      0.00
    9    3   15      3.81      0.00
   11    3   15      0.60      0.00
   13    3   15     -1.66      0.00
   15    3   15     -2.31      0.00
   17    3   15      0.27      0.00
   19    3   15     -0.65      0.00
   21    3   15      1.39      0.00
   23    3   15      0.05      0.00
   25    3   15      0.95      0.00
   27    3   15      0.94      0.00
   29    3   15      2.16      0.00
  -38    4   15      2.71      0.00
  -36    4   15      2.32      0.00
  -34    4   15      2.75      0.00
  -32    4   15      7.77      0.00
  -30    4   15      4.50      0.00
  -28    4   15      2.85      0.00
  -26    4   15      4.85      0.00
  -24    4   15      3.07      0.00
  -22    4   15      3.82      0.00
  -20    4   15     -3.10      0.00
  -18    4   15     -2.00      0.00
  -16    4   15      2.81      0.00
  -14    4   15      4.21      0.00
  -12    4   15      2.81      0.00
  -10    4   15      4.06      0.00
   -8    4   15     -3.80      0.00
   -6    4   15      0.36      0.00
   -4    4   15      7.26      0.00
   -2    4   15     -2.36      0.00
    0    4   15    -11.92      0.00
    2    4   15      7.17      0.00
    4    4   15     -7.45      0.00
    6    4   15     10.73      0.00
    8    4   15      2.00      0.00
   10    4   15      3.21      0.00
   12    4   15     -0.42      0.00
   14    4   15      1.23      0.00
   16    4   15      0.92      0.00
   18    4   15     -0.95      0.00
   20    4   15      3.59      0.00
   22    4   15      0.71      0.00
   24    4   15     -0.66      0.00
   26    4   15      0.19      0.00
   28    4   15     -2.81      0.00
  -39    5   15      4.40      0.00
  -37    5   15     -1.04      0.00
  -35    5   15      1.24      0.00
  -33    5   15      5.00      0.00
  -31    5   15     -1.88      0.00
  -29    5   15     -2.25      0.00
  -27    5   15     -0.95      0.00
  -25    5   15      0.18      0.00
  -23    5   15      0.28      0.00
  -21    5   15      4.26      0.00
  -19    5   15      5.45      0.00
  -17    5   15      9.99      0.00
  -15    5   15      4.40      0.00
  -13    5   15     -6.20      0.00
  -11    5   15    -14.61      0.00
   -9    5   15     -4.00      0.00
   -7    5   15    -13.68      0.00
   -5    5   15     -0.15      0.00
   -3    5   15      2.11      0.00
   -1    5   15     -1.30      0.00
    1    5   15     10.53      0.00
    3    5   15      0.66      0.00
    5    5   15      0.75      0.00
    7    5   15      1.69      0.00
    9    5   15     -0.55      0.00
   11    5   15      1.13      0.00
   13    5   15      2.13      0.00
   15    5   15     -5.39      0.00
   17    5   15     -3.14      0.00
   19    5   15      1.51      0.00
   21    5   15     -5.33      0.00
   23    5   15     -0.72      0.00
   25    5   15     -1.94      0.00
   27    5   15     -0.98      0.00
   29    5   15     -2.17      0.00
  -38    6   15     -0.33      0.00
  -36    6   15      0.06      0.00
  -34    6   15     -3.75      0.00
  -32    6   15      0.99      0.00
  -30    6   15     -1.79      0.00
  -28    6   15     -3.39      0.00
  -26    6   15      2.05      0.00
  -24    6   15     -1.26      0.00
  -22    6   15     -2.71      0.00
  -20    6   15      2.31      0.00
  -18    6   15     -2.05      0.00
  -16    6   15     -1.63      0.00
  -14    6   15     -0.78      0.00
  -12    6   15      3.04      0.00
  -10    6   15     -8.21      0.00
   -8    6   15      6.99      0.00
   -6    6   15     -2.24      0.00
   -4    6   15      9.23      0.00
   -2    6   15      7.85      0.00
    0    6   15    -13.34      0.00
    2    6   15      5.17      0.00
    4    6   15     -1.24      0.00
    6    6   15      6.10      0.00
    8    6   15     -1.21      0.00
   10    6   15      1.61      0.00
   12    6   15     -0.74      0.00
   14    6   15      1.58      0.00
   16    6   15      5.30      0.00
   18    6   15     -2.08      0.00
   20    6   15     -1.44      0.00
   22    6   15      0.89      0.00
   24    6   15      1.60      0.00
   26    6   15      3.02      0.00
   28    6   15      1.69      0.00
  -37    7   15     -0.83      0.00
  -35    7   15      1.27      0.00
  -33    7   15     -1.90      0.00
  -31    7   15      2.38      0.00
  -29    7   15      1.50      0.00
  -27    7   15      0.18      0.00
  -25    7   15      1.09      0.00
  -23    7   15      2.19      0.00
  -21    7   15      3.67      0.00
  -19    7   15     -1.04      0.00
  -17    7   15     -1.79      0.00
  -15    7   15      4.91      0.00
  -13    7   15     -1.12      0.00
  -11    7   15      3.84      0.00
   -9    7   15     -2.82      0.00
   -7    7   15    -11.15      0.00
   -5    7   15     -2.41      0.00
   -3    7   15     -0.21      0.00
   -1    7   15     -0.35      0.00
    1    7   15      9.97      0.00
    3    7   15     -0.07      0.00
    5    7   15     -2.39      0.00
    7    7   15      6.38      0.00
    9    7   15     -3.11      0.00
   11    7   15     -1.16      0.00
   13    7   15      0.46      0.00
   15    7   15     -6.08      0.00
   17    7   15     -3.03      0.00
   19    7   15      2.33      0.00
   21    7   15      0.92      0.00
   23    7   15     -2.83      0.00
   25    7   15     -2.12      0.00
   27    7   15     -2.73      0.00
  -36    8   15     -0.34      0.00
  -34    8   15      6.50      0.00
  -32    8   15     -3.52      0.00
  -30    8   15      4.28      0.00
  -28    8   15     -0.44      0.00
  -26    8   15      7.01      0.00
  -24    8   15     -2.64      0.00
  -22    8   15      3.02      0.00
  -20    8   15      1.96      0.00
  -18    8   15      9.35      0.00
  -16    8   15      0.95      0.00
  -14    8   15     -8.16      0.00
  -12    8   15     -8.59      0.00
  -10    8   15     -0.99      0.00
   -8    8   15      8.97      0.00
   -6    8   15      2.84      0.00
   -4    8   15      4.05      0.00
   -2    8   15      6.90      0.00
    0    8   15    -10.26      0.00
    2    8   15      3.57      0.00
    4    8   15     -2.76      0.00
    6    8   15      5.11      0.00
    8    8   15     -5.21      0.00
   10    8   15     -5.63      0.00
   12    8   15      0.53      0.00
   14    8   15     -1.45      0.00
   16    8   15      5.89      0.00
   18    8   15      1.66      0.00
   20    8   15     -0.97      0.00
   22    8   15      1.10      0.00
   24    8   15     -0.78      0.00
   26    8   15      3.78      0.00
  -35    9   15     -0.27      0.00
  -33    9   15      1.51      0.00
  -31    9   15      1.85      0.00
  -29    9   15      0.70      0.00
  -27    9   15      0.86      0.00
  -25    9   15     -2.83      0.00
  -23    9   15      1.65      0.00
  -21    9   15      2.78      0.00
  -19    9   15      0.79      0.00
  -17    9   15     -1.45      0.00
  -15    9   15      1.10      0.00
  -13    9   15      1.08      0.00
  -11    9   15      0.53      0.00
   -9    9   15     -0.72      0.00
   -7    9   15     -2.32      0.00
   -5    9   15     -7.99      0.00
   -3    9   15      5.80      0.00
   -1    9   15      2.19      0.00
    1    9   15      0.71      0.00
    3    9   15      3.65      0.00
    5    9   15     -5.46      0.00
    7    9   15      3.93      0.00
    9    9   15     -3.57      0.00
   11    9   15     -3.35      0.00
   13    9   15     -6.04      0.00
   15    9   15     -1.96      0.00
   17    9   15     -2.45      0.00
   19    9   15      0.08      0.00
   21    9   15      1.16      0.00
   23    9   15     -0.31      0.00
   25    9   15     -0.49      0.00
  -34   10   15     -1.50      0.00
  -32   10   15     -4.41      0.00
  -30   10   15     -0.09      0.00
  -28   10   15      1.48      0.00
  -26   10   15      1.70      0.00
  -24   10   15      3.05      0.00
  -22   10   15      1.86      0.00
  -20   10   15      0.50      0.00
  -18   10   15     -1.26      0.00
  -16   10   15      3.88      0.00
  -14   10   15     -5.29      0.00
  -12   10   15     -1.61      0.00
  -10   10   15      0.54      0.00
   -8   10   15     -3.71      0.00
   -6   10   15     -0.26      0.00
   -4   10   15     -2.52      0.00
   -2   10   15      6.78      0.00
    0   10   15     -4.49      0.00
    2   10   15     -0.63      0.00
    4   10   15     -2.44      0.00
    6   10   15      4.50      0.00
    8   10   15     -4.37      0.00
   10   10   15     -2.98      0.00
   12   10   15      3.59      0.00
   14   10   15      7.04      0.00
   16   10   15     -2.82      0.00
   18   10   15      1.74      0.00
   20   10   15     -4.33      0.00
   22   10   15      0.94      0.00
   24   10   15     -0.69      0.00
  -33   11   15      0.02      0.00
  -31   11   15     -0.32      0.00
  -29   11   15      1.62      0.00
  -27   11   15      1.94      0.00
  -25   11   15      0.20      0.00
  -23   11   15     -0.44      0.00
  -21   11   15     -0.16      0.00
  -19   11   15      2.50      0.00
  -17   11   15     -0.09      0.00
  -15   11   15      1.54      0.00
  -13   11   15     -8.41      0.00
  -11   11   15      2.31      0.00
   -9   11   15      2.32      0.00
   -7   11   15      2.66      0.00
   -5   11   15     -8.11      0.00
   -3   11   15      3.88      0.00
   -1   11   15     -3.40      0.00
    1   11   15      0.08      0.00
    3   11   15     -0.10      0.00
    5   11   15      0.07      0.00
    7   11   15     -3.31      0.00
    9   11   15     -1.39      0.00
   11   11   15     -0.58      0.00
   13   11   15     -2.40      0.00
   15   11   15     -1.85      0.00
   17   11   15      0.11      0.00
   19   11   15      2.00      0.00
   21   11   15     -2.04      0.00
   23   11   15     -0.06      0.00
  -32   12   15     -2.06      0.00
  -30   12   15     -1.57      0.00
  -28   12   15      0.01      0.00
  -26   12   15     -2.67      0.00
  -24   12   15      1.29      0.00
  -22   12   15      4.25      0.00
  -20   12   15      1.33      0.00
  -18   12   15     -0.58      0.00
  -16   12   15     -4.72      0.00
  -14   12   15      1.05      0.00
  -12   12   15      5.86      0.00
  -10   12   15     -0.27      0.00
   -8   12   15     -1.05      0.00
   -6   12   15      3.23      0.00
   -4   12   15      2.65      0.00
   -2   12   15      2.70      0.00
    0   12   15     -3.98      0.00
    2   12   15      0.80      0.00
    4   12   15     -2.18      0.00
    6   12   15      3.04      0.00
    8   12   15     -1.94      0.00
   10   12   15     -0.45      0.00
   12   12   15      3.57      0.00
   14   12   15      0.91      0.00
   16   12   15      1.64      0.00
   18   12   15      0.27      0.00
   20   12   15      0.92      0.00
   22   12   15      1.95      0.00
  -31   13   15      0.78      0.00
  -29   13   15      0.31      0.00
  -27   13   15     -0.32      0.00
  -25   13   15     -3.17      0.00
  -23   13   15      5.20      0.00
  -21   13   15      0.46      0.00
  -19   13   15     -1.44      0.00
  -17   13   15      1.57      0.00
  -15   13   15     -0.45      0.00
  -13   13   15     -1.54      0.00
  -11   13   15     -4.30      0.00
   -9   13   15      1.32      0.00
   -7   13   15      1.03      0.00
   -5   13   15      2.18      0.00
   -3   13   15     -2.51      0.00
   -1   13   15      0.96      0.00
    1   13   15     -6.94      0.00
    3   13   15     -0.14      0.00
    5   13   15     -2.05      0.00
    7   13   15     -0.10      0.00
    9   13   15     -1.19      0.00
   11   13   15      5.44      0.00
   13   13   15     -1.25      0.00
   15   13   15      4.26      0.00
   17   13   15      2.71      0.00
   19   13   15      3.74      0.00
   21   13   15      1.53      0.00
  -30   14   15     -0.72      0.00
  -28   14   15     -0.69      0.00
  -26   14   15     -0.15      0.00
  -24   14   15      4.37      0.00
  -22   14   15      1.58      0.00
  -20   14   15      1.97      0.00
  -18   14   15     -5.66      0.00
  -16   14   15     -1.84      0.00
  -14   14   15      0.42      0.00
  -12   14   15     -4.45      0.00
  -10   14   15     -0.80      0.00
   -8   14   15      0.51      0.00
   -6   14   15      4.53      0.00
   -4   14   15      2.19      0.00
   -2   14   15     -3.26      0.00
    0   14   15     -3.82      0.00
    2   14   15     -1.34      0.00
    4   14   15     -0.10      0.00
    6   14   15      1.30      0.00
    8   14   15     -2.61      0.00
   10   14   15     -1.38      0.00
   12   14   15     -1.35      0.00
   14   14   15      1.05      0.00
   16   14   15     -4.57      0.00
   18   14   15      2.70      0.00
   20   14   15      1.20      0.00
  -29   15   15      3.91      0.00
  -27   15   15      0.36      0.00
  -25   15   15     -2.04      0.00
  -23   15   15      0.24      0.00
  -21   15   15      2.31      0.00
  -19   15   15     -1.98      0.00
  -17   15   15     -5.77      0.00
  -15   15   15     -1.29      0.00
  -13   15   15      7.15      0.00
  -11   15   15      1.11      0.00
   -9   15   15      2.43      0.00
   -7   15   15      2.70      0.00
   -5   15   15     -1.26      0.00
   -3   15   15      1.11      0.00
   -1   15   15     -0.84      0.00
    1   15   15      1.30      0.00
    3   15   15      2.33      0.00
    5   15   15      2.21      0.00
    7   15   15     -5.17      0.00
    9   15   15     -6.32      0.00
   11   15   15     -1.57      0.00
   13   15   15     -5.72      0.00
   15   15   15      1.08      0.00
   17   15   15      0.51      0.00
   19   15   15     -0.12      0.00
  -26   16   15      0.34      0.00
  -24   16   15     -0.59      0.00
  -22   16   15     -1.72      0.00
  -20   16   15      1.34      0.00
  -18   16   15      3.05      0.00
  -16   16   15     -1.91      0.00
  -14   16   15      1.60      0.00
  -12   16   15     -3.70      0.00
  -10   16   15    -11.73      0.00
   -8   16   15      0.88      0.00
   -6   16   15      3.60      0.00
   -4   16   15     -0.18      0.00
   -2   16   15      3.24      0.00
    0   16   15     -1.99      0.00
    2   16   15      3.54      0.00
    4   16   15      1.57      0.00
    6   16   15      2.78      0.00
    8   16   15      1.17      0.00
   10   16   15      2.34      0.00
   12   16   15      0.19      0.00
   14   16   15      1.18      0.00
   16   16   15     -3.62      0.00
  -23   17   15     -0.41      0.00
  -21   17   15     -1.31      0.00
  -19   17   15     -1.26      0.00
  -17   17   15     -1.43      0.00
  -15   17   15     -1.23      0.00
  -13   17   15     -2.02      0.00
  -11   17   15     -3.03      0.00
   -9   17   15      1.50      0.00
   -7   17   15      0.12      0.00
   -5   17   15      0.40      0.00
   -3   17   15     -2.82      0.00
   -1   17   15     -0.95      0.00
    1   17   15      0.03      0.00
    3   17   15      2.02      0.00
    5   17   15      3.72      0.00
    7   17   15     -1.74      0.00
    9   17   15     -2.19      0.00
   11   17   15     -0.83      0.00
   13   17   15      1.66      0.00
  -20   18   15      2.33      0.00
  -18   18   15      1.38      0.00
  -16   18   15     -0.11      0.00
  -14   18   15     -0.42      0.00
  -12   18   15     -2.52      0.00
  -10   18   15     -3.65      0.00
   -8   18   15      0.79      0.00
   -6   18   15      0.30      0.00
   -4   18   15      3.87      0.00
   -2   18   15      1.26      0.00
    0   18   15      5.40      0.00
    2   18   15      0.06      0.00
    6   18   15     -1.23      0.00
    8   18   15      2.49      0.00
   10   18   15      1.90      0.00
  -17   19   15     -1.86      0.00
  -15   19   15     -1.75      0.00
  -13   19   15      0.28      0.00
  -11   19   15     -4.54      0.00
   -9   19   15     -2.03      0.00
   -7   19   15      0.60      0.00
   -5   19   15     -3.07      0.00
   -3   19   15     -0.19      0.00
   -1   19   15      3.74      0.00
    1   19   15      0.81      0.00
    3   19   15      2.55      0.00
    5   19   15     -0.53      0.00
    7   19   15     -0.89      0.00
  -10   20   15     -2.22      0.00
   -8   20   15     -4.51      0.00
   -6   20   15      1.79      0.00
   -4   20   15     -5.56      0.00
   -2   20   15     -1.33      0.00
    0   20   15     -3.26      0.00
  -40    0   16     -2.36      0.00
  -38    0   16     -1.13      0.00
  -36    0   16     -1.22      0.00
  -34    0   16     -1.10      0.00
  -32    0   16      0.16      0.00
  -30    0   16      3.67      0.00
  -28    0   16     -3.85      0.00
  -26    0   16      2.89      0.00
  -24    0   16     -1.59      0.00
  -22    0   16     -2.01      0.00
  -20    0   16     -1.21      0.00
  -18    0   16     -6.51      0.00
  -16    0   16    -17.63      0.00
  -14    0   16     -8.90      0.00
  -12    0   16      7.35      0.00
  -10    0   16      8.26      0.00
   -8    0   16     23.32      0.00
   -6    0   16    -16.49      0.00
   -4    0   16      3.84      0.00
   -2    0   16     10.87      0.00
    0    0   16     30.95      0.00
    2    0   16     -5.62      0.00
    4    0   16      9.86      0.00
    6    0   16     -3.60      0.00
    8    0   16      9.23      0.00
   10    0   16      0.84      0.00
   12    0   16     -0.32      0.00
   14    0   16      3.51      0.00
   16    0   16      0.04      0.00
   18    0   16     -4.56      0.00
   20    0   16     -2.02      0.00
   22    0   16      0.36      0.00
   24    0   16     -2.26      0.00
   26    0   16     -3.02      0.00
   28    0   16      0.08      0.00
  -39    1   16      1.11      0.00
  -37    1   16     -0.76      0.00
  -35    1   16     -1.13      0.00
  -33    1   16     -0.46      0.00
  -31    1   16     -1.49      0.00
  -29    1   16     -1.03      0.00
  -27    1   16      2.69      0.00
  -25    1   16      6.03      0.00
  -23    1   16     -1.87      0.00
  -21    1   16      0.29      0.00
  -19    1   16      8.01      0.00
  -17    1   16     10.18      0.00
  -15    1   16      5.82      0.00
  -13    1   16      2.78      0.00
  -11    1   16    -14.69      0.00
   -9    1   16    -16.48      0.00
   -7    1   16    -15.33      0.00
   -5    1   16     19.96      0.00
   -3    1   16     -0.90      0.00
   -1    1   16     21.23      0.00
    1    1   16    -15.11      0.00
    3    1   16     21.18      0.00
    5    1   16      4.29      0.00
    7    1   16     -1.69      0.00
    9    1   16     -3.63      0.00
   11    1   16     -5.91      0.00
   13    1   16      0.78      0.00
   15    1   16     -4.08      0.00
   17    1   16     -0.55      0.00
   19    1   16      2.18      0.00
   21    1   16      2.18      0.00
   23    1   16      2.89      0.00
   25    1   16      2.54      0.00
   27    1   16     -2.04      0.00
   29    1   16     -0.54      0.00
  -40    2   16      2.28      0.00
  -38    2   16     -0.40      0.00
  -36    2   16      1.78      0.00
  -34    2   16      4.53      0.00
  -32    2   16      2.58      0.00
  -30    2   16      3.26      0.00
  -28    2   16      1.52      0.00
  -26    2   16      1.08      0.00
  -24    2   16     -4.07      0.00
  -22    2   16     -4.22      0.00
  -20    2   16     -6.83      0.00
  -18    2   16     -0.72      0.00
  -16    2   16     -1.30      0.00
  -14    2   16     -2.99      0.00
  -12    2   16      0.68      0.00
  -10    2   16      0.05      0.00
   -8    2   16     11.27      0.00
   -6    2   16     11.08      0.00
   -4    2   16      4.24      0.00
   -2    2   16     12.67      0.00
    0    2   16      4.87      0.00
    2    2   16     -0.11      0.00
    4    2   16      1.44      0.00
    6    2   16     -7.63      0.00
    8    2   16      5.56      0.00
   10    2   16     -1.60      0.00
   12    2   16     -0.34      0.00
   14    2   16      3.02      0.00
   16    2   16     -1.42      0.00
   18    2   16      0.19      0.00
   20    2   16      4.66      0.00
   22    2   16     -0.39      0.00
   24    2   16      0.74      0.00
   26    2   16     -2.86      0.00
   28    2   16      0.87      0.00
  -39    3   16      0.18      0.00
  -37    3   16     -0.19      0.00
  -35    3   16     -2.26      0.00
  -33    3   16      0.24      0.00
  -31    3   16     -0.10      0.00
  -29    3   16     -0.41      0.00
  -27    3   16      0.41      0.00
  -25    3   16      2.39      0.00
  -23    3   16     -1.02      0.00
  -21    3   16      2.47      0.00
  -19    3   16      4.68      0.00
  -17    3   16     -8.58      0.00
  -15    3   16     -8.21      0.00
  -13    3   16     -1.57      0.00
  -11    3   16     -3.38      0.00
   -9    3   16     13.68      0.00
   -7    3   16      7.31      0.00
   -5    3   16     -5.15      0.00
   -3    3   16    -15.96      0.00
   -1    3   16     10.13      0.00
    1    3   16     -8.30      0.00
    3    3   16      9.63      0.00
    5    3   16      2.76      0.00
    7    3   16      2.59      0.00
    9    3   16      2.26      0.00
   11    3   16      1.73      0.00
   13    3   16     -2.90      0.00
   15    3   16     -1.19      0.00
   17    3   16     -0.35      0.00
   19    3   16      0.18      0.00
   21    3   16      0.99      0.00
   23    3   16      0.95      0.00
   25    3   16      0.39      0.00
   27    3   16     -1.39      0.00
   29    3   16     -5.31      0.00
  -38    4   16     -2.53      0.00
  -36    4   16     -0.25      0.00
  -34    4   16      5.78      0.00
  -32    4   16      4.68      0.00
  -30    4   16     -0.21      0.00
  -28    4   16      1.93      0.00
  -26    4   16      3.45      0.00
  -24    4   16      2.06      0.00
  -22    4   16      5.77      0.00
  -20    4   16      1.22      0.00
  -18    4   16      9.71      0.00
  -16    4   16      6.87      0.00
  -14    4   16      6.78      0.00
  -12    4   16     -2.12      0.00
  -10    4   16     -4.36      0.00
   -8    4   16      9.62      0.00
   -6    4   16     13.18      0.00
   -4    4   16     33.14      0.00
   -2    4   16      0.43      0.00
    0    4   16     -4.31      0.00
    2    4   16      1.95      0.00
    4    4   16      2.90      0.00
    6    4   16    -11.62      0.00
    8    4   16      4.30      0.00
   10    4   16     -1.48      0.00
   12    4   16     -2.22      0.00
   14    4   16      1.37      0.00
   16    4   16     -3.04      0.00
   18    4   16     -3.17      0.00
   20    4   16     -2.51      0.00
   22    4   16     -2.47      0.00
   24    4   16     -6.08      0.00
   26    4   16     -0.16      0.00
   28    4   16      1.88      0.00
  -39    5   16      1.45      0.00
  -37    5   16      1.62      0.00
  -35    5   16      1.75      0.00
  -33    5   16     -5.70      0.00
  -31    5   16      0.16      0.00
  -29    5   16     -2.79      0.00
  -27    5   16     -0.12      0.00
  -25    5   16     -0.51      0.00
  -23    5   16     -1.09      0.00
  -21    5   16      2.23      0.00
  -19    5   16      1.12      0.00
  -17    5   16      1.11      0.00
  -15    5   16     -3.23      0.00
  -13    5   16     -3.89      0.00
  -11    5   16     -6.19      0.00
   -9    5   16     -1.54      0.00
   -7    5   16     -2.30      0.00
   -5    5   16     -0.38      0.00
   -3    5   16     -9.64      0.00
   -1    5   16     12.93      0.00
    1    5   16     -4.71      0.00
    3    5   16      5.22      0.00
    5    5   16     -2.25      0.00
    7    5   16      6.71      0.00
    9    5   16     -2.72      0.00
   11    5   16      1.16      0.00
   13    5   16     -0.86      0.00
   15    5   16     -3.38      0.00
   17    5   16     -2.63      0.00
   19    5   16     -4.55      0.00
   21    5   16     -0.37      0.00
   23    5   16      0.02      0.00
   25    5   16     -1.00      0.00
   27    5   16     -2.52      0.00
  -38    6   16      1.97      0.00
  -36    6   16      0.43      0.00
  -34    6   16      0.74      0.00
  -32    6   16      1.83      0.00
  -30    6   16      0.76      0.00
  -28    6   16      1.49      0.00
  -26    6   16      0.99      0.00
  -24    6   16      3.01      0.00
  -22    6   16      7.60      0.00
  -20    6   16      4.56      0.00
  -18    6   16     -2.54      0.00
  -16    6   16     -2.81      0.00
  -14    6   16      0.15      0.00
  -12    6   16      0.65      0.00
  -10    6   16      2.89      0.00
   -8    6   16     15.53      0.00
   -6    6   16      1.23      0.00
   -4    6   16     -2.08      0.00
   -2    6   16     -0.04      0.00
    0    6   16     -1.11      0.00
    2    6   16      1.22      0.00
    4    6   16      2.99      0.00
    6    6   16     -8.06      0.00
    8    6   16     -0.72      0.00
   10    6   16     -3.39      0.00
   12    6   16      2.15      0.00
   14    6   16     -4.19      0.00
   16    6   16      2.22      0.00
   18    6   16      0.33      0.00
   20    6   16      3.58      0.00
   22    6   16      1.35      0.00
   24    6   16     -0.44      0.00
   26    6   16      3.66      0.00
   28    6   16      3.64      0.00
  -37    7   16      1.21      0.00
  -35    7   16      4.98      0.00
  -33    7   16     -1.77      0.00
  -31    7   16     -1.20      0.00
  -29    7   16      0.27      0.00
  -27    7   16      2.75      0.00
  -25    7   16     -0.61      0.00
  -23    7   16      3.49      0.00
  -21    7   16     -2.30      0.00
  -19    7   16     -2.82      0.00
  -17    7   16      3.79      0.00
  -15    7   16     -2.81      0.00
  -13    7   16      2.45      0.00
  -11    7   16      2.93      0.00
   -9    7   16     -1.38      0.00
   -7    7   16     -2.52      0.00
   -5    7   16      2.55      0.00
   -3    7   16     -3.08      0.00
   -1    7   16      1.48      0.00
    1    7   16     -2.85      0.00
    3    7   16      0.37      0.00
    5    7   16      2.21      0.00
    7    7   16      8.14      0.00
    9    7   16     -5.44      0.00
   11    7   16     -2.43      0.00
   13    7   16      0.63      0.00
   15    7   16     -3.16      0.00
   17    7   16     -3.91      0.00
   19    7   16      0.95      0.00
   21    7   16      2.26      0.00
   23    7   16     -2.96      0.00
   25    7   16      1.31      0.00
   27    7   16     -0.41      0.00
  -36    8   16     -0.50      0.00
  -34    8   16     -1.33      0.00
  -32    8   16      5.25      0.00
  -30    8   16      2.82      0.00
  -28    8   16     -1.62      0.00
  -26    8   16      2.51      0.00
  -24    8   16      0.11      0.00
  -22    8   16      3.15      0.00
  -20    8   16      3.51      0.00
  -18    8   16      2.17      0.00
  -16    8   16      3.34      0.00
  -14    8   16     -1.46      0.00
  -12    8   16      3.21      0.00
  -10    8   16      3.50      0.00
   -8    8   16     -1.18      0.00
   -6    8   16     -3.60      0.00
   -4    8   16      1.21      0.00
   -2    8   16      4.69      0.00
    0    8   16      0.45      0.00
    2    8   16     -1.75      0.00
    4    8   16     -0.22      0.00
    6    8   16     -2.58      0.00
    8    8   16     -3.46      0.00
   10    8   16      0.84      0.00
   12    8   16      2.81      0.00
   14    8   16      0.40      0.00
   16    8   16      3.12      0.00
   18    8   16      0.97      0.00
   20    8   16      0.74      0.00
   22    8   16      3.10      0.00
   24    8   16     -0.50      0.00
   26    8   16      1.02      0.00
  -35    9   16     -0.81      0.00
  -33    9   16     -0.46      0.00
  -31    9   16     -5.50      0.00
  -29    9   16      1.29      0.00
  -27    9   16     -6.11      0.00
  -25    9   16     -3.68      0.00
  -23    9   16     -0.59      0.00
  -21    9   16      0.82      0.00
  -19    9   16     -3.79      0.00
  -17    9   16     -0.77      0.00
  -15    9   16      5.98      0.00
  -13    9   16      5.80      0.00
  -11    9   16      5.57      0.00
   -9    9   16      3.09      0.00
   -7    9   16     -1.05      0.00
   -5    9   16     -1.49      0.00
   -3    9   16     -8.03      0.00
   -1    9   16     -0.64      0.00
    1    9   16     -1.10      0.00
    3    9   16      5.28      0.00
    5    9   16      3.77      0.00
    7    9   16      6.81      0.00
    9    9   16      2.42      0.00
   11    9   16      0.29      0.00
   13    9   16      1.50      0.00
   15    9   16     -4.15      0.00
   17    9   16      1.46      0.00
   19    9   16      0.08      0.00
   21    9   16      0.09      0.00
   23    9   16     -0.57      0.00
   25    9   16      0.17      0.00
  -34   10   16      0.45      0.00
  -32   10   16     -0.43      0.00
  -30   10   16      0.25      0.00
  -28   10   16      0.81      0.00
  -26   10   16      1.60      0.00
  -24   10   16     -0.15      0.00
  -22   10   16      0.64      0.00
  -20   10   16     -5.50      0.00
  -18   10   16     -2.98      0.00
  -16   10   16      0.21      0.00
  -14   10   16     -2.40      0.00
  -12   10   16     -0.19      0.00
  -10   10   16     -5.48      0.00
   -8   10   16     -6.75      0.00
   -6   10   16     -1.71      0.00
   -4   10   16      3.29      0.00
   -2   10   16     -0.15      0.00
    0   10   16     -2.78      0.00
    2   10   16     -5.59      0.00
    4   10   16     -1.20      0.00
    6   10   16      2.52      0.00
    8   10   16     -1.76      0.00
   10   10   16      0.36      0.00
   12   10   16      7.91      0.00
   14   10   16      3.77      0.00
   16   10   16     -6.00      0.00
   18   10   16     -0.10      0.00
   20   10   16      0.27      0.00
   22   10   16     -2.27      0.00
   24   10   16      1.21      0.00
  -33   11   16     -4.04      0.00
  -31   11   16      0.37      0.00
  -29   11   16     -0.09      0.00
  -27   11   16      0.29      0.00
  -25   11   16     -3.80      0.00
  -23   11   16     -1.37      0.00
  -21   11   16     -0.41      0.00
  -19   11   16      0.30      0.00
  -17   11   16     -4.60      0.00
  -15   11   16     -0.64      0.00
  -13   11   16      1.97      0.00
  -11   11   16      0.33      0.00
   -9   11   16      0.69      0.00
   -7   11   16     -0.67      0.00
   -5   11   16      1.85      0.00
   -3   11   16     -4.20      0.00
   -1   11   16      1.33      0.00
    1   11   16      3.31      0.00
    3   11   16     -3.54      0.00
    5   11   16      0.28      0.00
    7   11   16     -0.25      0.00
    9   11   16      3.94      0.00
   11   11   16      1.77      0.00
   13   11   16     -4.82      0.00
   15   11   16      4.25      0.00
   17   11   16      1.17      0.00
   19   11   16      2.01      0.00
   21   11   16      0.80      0.00
   23   11   16      3.16      0.00
  -32   12   16     -3.79      0.00
  -30   12   16     -0.01      0.00
  -28   12   16     -4.04      0.00
  -26   12   16     -0.32      0.00
  -24   12   16      7.05      0.00
  -22   12   16      1.17      0.00
  -20   12   16     -3.68      0.00
  -18   12   16     -0.21      0.00
  -16   12   16      1.55      0.00
  -14   12   16      1.51      0.00
  -12   12   16     -1.44      0.00
  -10   12   16      2.91      0.00
   -8   12   16      2.03      0.00
   -6   12   16      4.06      0.00
   -4   12   16      2.39      0.00
   -2   12   16     -0.50      0.00
    0   12   16      0.58      0.00
    2   12   16     -1.20      0.00
    4   12   16     -1.12      0.00
    6   12   16     -0.40      0.00
    8   12   16     -1.29      0.00
   10   12   16      2.47      0.00
   12   12   16      1.85      0.00
   14   12   16     -4.23      0.00
   16   12   16     -3.23      0.00
   18   12   16     -0.60      0.00
   20   12   16      1.33      0.00
   22   12   16      1.05      0.00
  -31   13   16      2.19      0.00
  -29   13   16      4.14      0.00
  -27   13   16      6.13      0.00
  -25   13   16      2.96      0.00
  -23   13   16     -1.36      0.00
  -21   13   16     -0.46      0.00
  -19   13   16     -7.32      0.00
  -17   13   16      1.34      0.00
  -15   13   16     -4.14      0.00
  -13   13   16     -2.27      0.00
  -11   13   16     -1.01      0.00
   -9   13   16     -0.82      0.00
   -7   13   16     -2.02      0.00
   -5   13   16     -2.23      0.00
   -3   13   16     -7.32      0.00
   -1   13   16     -4.02      0.00
    1   13   16     -2.68      0.00
    3   13   16      1.58      0.00
    5   13   16      1.85      0.00
    7   13   16     -0.53      0.00
    9   13   16      0.14      0.00
   11   13   16      0.30      0.00
   13   13   16     -1.56      0.00
   15   13   16      0.20      0.00
   17   13   16     -0.64      0.00
   19   13   16     -1.30      0.00
   21   13   16     -2.12      0.00
  -30   14   16     -0.03      0.00
  -28   14   16     -2.36      0.00
  -26   14   16      2.22      0.00
  -24   14   16     -1.38      0.00
  -22   14   16      3.95      0.00
  -20   14   16      1.28      0.00
  -18   14   16     -0.86      0.00
  -16   14   16     -2.43      0.00
  -14   14   16      6.33      0.00
  -12   14   16     -0.81      0.00
  -10   14   16      1.09      0.00
   -8   14   16     -2.39      0.00
   -6   14   16      2.60      0.00
   -4   14   16      4.91      0.00
   -2   14   16     -1.62      0.00
    0   14   16      5.66      0.00
    2   14   16      2.88      0.00
    4   14   16     -2.70      0.00
    6   14   16     -0.63      0.00
    8   14   16     -2.47      0.00
   10   14   16     -1.48      0.00
   12   14   16     -6.35      0.00
   14   14   16     -2.92      0.00
   16   14   16     -4.36      0.00
   18   14   16      1.07      0.00
  -27   15   16      2.11      0.00
  -25   15   16      0.20      0.00
  -23   15   16     -0.85      0.00
  -21   15   16     -0.01      0.00
  -19   15   16      5.33      0.00
  -17   15   16     -4.11      0.00
  -15   15   16      0.20      0.00
  -13   15   16      3.54      0.00
  -11   15   16     -5.39      0.00
   -9   15   16      3.56      0.00
   -7   15   16      2.19      0.00
   -5   15   16      0.22      0.00
   -3   15   16      3.15      0.00
   -1   15   16     -1.91      0.00
    1   15   16     -0.14      0.00
    3   15   16      0.68      0.00
    5   15   16      5.09      0.00
    7   15   16     -5.16      0.00
    9   15   16      2.57      0.00
   11   15   16     -3.00      0.00
   13   15   16      4.03      0.00
   15   15   16      3.32      0.00
   17   15   16      3.72      0.00
  -26   16   16      4.15      0.00
  -24   16   16     -0.86      0.00
  -22   16   16     -0.78      0.00
  -20   16   16     -0.33      0.00
  -18   16   16     -0.52      0.00
  -16   16   16      1.76      0.00
  -14   16   16     -6.47      0.00
  -12   16   16     -2.01      0.00
  -10   16   16     -4.74      0.00
   -8   16   16     -2.08      0.00
   -6   16   16     -1.16      0.00
   -4   16   16      1.55      0.00
   -2   16   16     -1.13      0.00
    0   16   16      1.72      0.00
    2   16   16     -3.27      0.00
    4   16   16     -1.47      0.00
    6   16   16     -0.31      0.00
    8   16   16      3.72      0.00
   10   16   16     -0.90      0.00
   12   16   16      3.37      0.00
   14   16   16      5.17      0.00
  -23   17   16      0.06      0.00
  -21   17   16      1.09      0.00
  -19   17   16     -1.53      0.00
  -17   17   16     -1.73      0.00
  -15   17   16     -0.69      0.00
  -13   17   16      3.81      0.00
  -11   17   16      3.57      0.00
   -9   17   16     -0.50      0.00
   -7   17   16     -2.39      0.00
   -5   17   16     -2.82      0.00
   -3   17   16     -2.91      0.00
   -1   17   16      2.50      0.00
    1   17   16      0.36      0.00
    3   17   16     -1.55      0.00
    5   17   16     -1.48      0.00
    7   17   16      0.20      0.00
    9   17   16     -1.67      0.00
   11   17   16     -8.50      0.00
   13   17   16     -4.99      0.00
  -20   18   16      0.02      0.00
  -18   18   16      2.26      0.00
  -16   18   16     -1.21      0.00
  -14   18   16     -2.75      0.00
  -12   18   16     -8.37      0.00
  -10   18   16     -4.08      0.00
   -8   18   16     -0.55      0.00
   -6   18   16     -1.16      0.00
   -4   18   16     -0.38      0.00
   -2   18   16      3.95      0.00
    0   18   16     -4.14      0.00
    2   18   16     -0.44      0.00
    4   18   16      0.47      0.00
    6   18   16      0.07      0.00
    8   18   16      4.08      0.00
  -15   19   16      2.25      0.00
  -13   19   16      1.75      0.00
  -11   19   16     -1.53      0.00
   -9   19   16     -4.05      0.00
   -7   19   16     -2.67      0.00
   -5   19   16     -4.98      0.00
   -3   19   16     -2.37      0.00
   -1   19   16     -4.29      0.00
    1   19   16     -5.48      0.00
    3   19   16     -2.27      0.00
    5   19   16     -0.45      0.00
   -8   20   16     -3.28      0.00
   -6   20   16     -0.40      0.00
   -4   20   16      2.01      0.00
  -39    1   17      1.35      0.00
  -37    1   17     -0.46      0.00
  -35    1   17      2.09      0.00
  -33    1   17      0.00      0.00
  -31    1   17      1.21      0.00
  -29    1   17      3.74      0.00
  -27    1   17     -0.06      0.00
  -25    1   17      0.61      0.00
  -23    1   17     -1.14      0.00
  -21    1   17     -5.01      0.00
  -19    1   17     -1.63      0.00
  -17    1   17     -4.23      0.00
  -15    1   17      6.68      0.00
  -13    1   17      2.46      0.00
  -11    1   17      8.57      0.00
   -9    1   17     -7.15      0.00
   -7    1   17    -10.51      0.00
   -5    1   17    -13.31      0.00
   -3    1   17      4.04      0.00
   -1    1   17      0.24      0.00
    1    1   17     -4.40      0.00
    3    1   17     -5.75      0.00
    5    1   17     -0.81      0.00
    7    1   17      2.36      0.00
    9    1   17     -0.33      0.00
   11    1   17     -5.70      0.00
   13    1   17     -0.99      0.00
   15    1   17     -0.80      0.00
   17    1   17      1.29      0.00
   19    1   17     -0.82      0.00
   21    1   17     -0.87      0.00
   23    1   17      1.98      0.00
   25    1   17      3.20      0.00
   27    1   17      1.33      0.00
  -38    2   17     -0.86      0.00
  -36    2   17      0.20      0.00
  -34    2   17     -1.81      0.00
  -32    2   17      2.27      0.00
  -30    2   17      0.69      0.00
  -28    2   17      4.45      0.00
  -26    2   17      0.02      0.00
  -24    2   17      1.20      0.00
  -22    2   17      9.16      0.00
  -20    2   17      7.29      0.00
  -18    2   17      4.99      0.00
  -16    2   17      4.83      0.00
  -14    2   17     -7.04      0.00
  -12    2   17     -8.83      0.00
  -10    2   17     -1.25      0.00
   -8    2   17      9.14      0.00
   -6    2   17     -4.16      0.00
   -4    2   17     -9.09      0.00
   -2    2   17    -10.97      0.00
    0    2   17      2.48      0.00
    2    2   17     13.36      0.00
    4    2   17     -4.26      0.00
    6    2   17      4.10      0.00
    8    2   17      2.91      0.00
   10    2   17      0.68      0.00
   12    2   17     -0.90      0.00
   14    2   17      4.31      0.00
   16    2   17     -0.27      0.00
   18    2   17      0.16      0.00
   20    2   17      1.58      0.00
   22    2   17     -2.82      0.00
   24    2   17     -0.15      0.00
   26    2   17     -0.90      0.00
   28    2   17     -1.72      0.00
  -39    3   17      2.25      0.00
  -37    3   17      0.50      0.00
  -35    3   17      1.47      0.00
  -33    3   17      1.12      0.00
  -31    3   17     -1.20      0.00
  -29    3   17     -0.63      0.00
  -27    3   17     -6.27      0.00
  -25    3   17     -4.41      0.00
  -23    3   17     -4.80      0.00
  -21    3   17     -2.01      0.00
  -19    3   17     -3.66      0.00
  -17    3   17     -3.82      0.00
  -15    3   17     -1.76      0.00
  -13    3   17     -2.51      0.00
  -11    3   17     -4.37      0.00
   -9    3   17      8.69      0.00
   -7    3   17    -14.01      0.00
   -5    3   17     -0.42      0.00
   -3    3   17      0.41      0.00
   -1    3   17     -7.67      0.00
    1    3   17     -1.66      0.00
    3    3   17      2.81      0.00
    5    3   17      3.55      0.00
    7    3   17      6.05      0.00
    9    3   17     -0.24      0.00
   11    3   17     -0.42      0.00
   13    3   17     -1.88      0.00
   15    3   17      1.46      0.00
   17    3   17     -0.79      0.00
   19    3   17    -10.47      0.00
   21    3   17     -4.50      0.00
   23    3   17     -3.66      0.00
   25    3   17      1.08      0.00
   27    3   17      2.87      0.00
  -38    4   17     -1.30      0.00
  -36    4   17      1.89      0.00
  -34    4   17     -1.07      0.00
  -32    4   17      3.90      0.00
  -30    4   17      3.78      0.00
  -28    4   17      5.01      0.00
  -26    4   17      4.05      0.00
  -24    4   17      2.46      0.00
  -22    4   17      1.39      0.00
  -20    4   17      1.36      0.00
  -18    4   17      1.54      0.00
  -16    4   17      8.40      0.00
  -14    4   17      5.92      0.00
  -12    4   17      2.72      0.00
  -10    4   17     -6.82      0.00
   -8    4   17     -4.65      0.00
   -6    4   17     -4.99      0.00
   -4    4   17      1.11      0.00
   -2    4   17      2.94      0.00
    0    4   17      0.20      0.00
    2    4   17      7.06      0.00
    4    4   17    -10.03      0.00
    6    4   17      2.70      0.00
    8    4   17      4.20      0.00
   10    4   17     -2.08      0.00
   12    4   17      0.09      0.00
   14    4   17      2.14      0.00
   16    4   17     -0.39      0.00
   18    4   17     -1.12      0.00
   20    4   17      0.32      0.00
   22    4   17     -1.34      0.00
   24    4   17     -0.70      0.00
   26    4   17     -1.67      0.00
   28    4   17     -0.20      0.00
  -39    5   17      3.21      0.00
  -37    5   17      2.69      0.00
  -35    5   17      1.89      0.00
  -33    5   17     -1.69      0.00
  -31    5   17      0.49      0.00
  -29    5   17      3.34      0.00
  -27    5   17     -5.02      0.00
  -25    5   17     -1.55      0.00
  -23    5   17     -2.20      0.00
  -21    5   17      0.90      0.00
  -19    5   17      5.09      0.00
  -17    5   17      6.24      0.00
  -15    5   17      4.99      0.00
  -13    5   17     -6.77      0.00
  -11    5   17     -4.67      0.00
   -9    5   17     -0.36      0.00
   -7    5   17      2.72      0.00
   -5    5   17     -8.41      0.00
   -3    5   17     -2.76      0.00
   -1    5   17      3.18      0.00
    1    5   17      1.18      0.00
    3    5   17      9.36      0.00
    5    5   17     -1.65      0.00
    7    5   17      1.49      0.00
    9    5   17     -0.73      0.00
   11    5   17      5.03      0.00
   13    5   17     -4.90      0.00
   15    5   17     -3.79      0.00
   17    5   17      1.24      0.00
   19    5   17     -2.22      0.00
   21    5   17     -1.55      0.00
   23    5   17     -0.78      0.00
   25    5   17     -1.24      0.00
   27    5   17      3.18      0.00
  -38    6   17     -0.34      0.00
  -36    6   17     -2.05      0.00
  -34    6   17     -0.14      0.00
  -32    6   17     -4.35      0.00
  -30    6   17     -3.82      0.00
  -28    6   17     -1.12      0.00
  -26    6   17      3.70      0.00
  -24    6   17     -4.22      0.00
  -22    6   17     -2.60      0.00
  -20    6   17      2.10      0.00
  -18    6   17     -0.33      0.00
  -16    6   17      1.74      0.00
  -14    6   17     -1.05      0.00
  -12    6   17     -3.57      0.00
  -10    6   17     -5.28      0.00
   -8    6   17     -0.89      0.00
   -6    6   17    -15.45      0.00
   -4    6   17      3.02      0.00
   -2    6   17      7.10      0.00
    0    6   17     -5.33      0.00
    2    6   17      7.92      0.00
    4    6   17     -9.60      0.00
    6    6   17      1.72      0.00
    8    6   17      1.01      0.00
   10    6   17     -2.47      0.00
   12    6   17      0.47      0.00
   14    6   17      5.85      0.00
   16    6   17     -1.19      0.00
   18    6   17     -2.55      0.00
   20    6   17      1.43      0.00
   22    6   17     -1.06      0.00
   24    6   17      1.92      0.00
   26    6   17      4.10      0.00
  -37    7   17      1.12      0.00
  -35    7   17     -1.91      0.00
  -33    7   17      1.70      0.00
  -31    7   17      0.85      0.00
  -29    7   17     -1.55      0.00
  -27    7   17     -4.04      0.00
  -25    7   17      1.38      0.00
  -23    7   17     -2.63      0.00
  -21    7   17     -1.33      0.00
  -19    7   17      0.67      0.00
  -17    7   17      3.03      0.00
  -15    7   17      5.92      0.00
  -13    7   17      7.04      0.00
  -11    7   17      4.40      0.00
   -9    7   17     -3.35      0.00
   -7    7   17     -2.65      0.00
   -5    7   17      0.55      0.00
   -3    7   17     -2.09      0.00
   -1    7   17      3.71      0.00
    1    7   17      0.56      0.00
    3    7   17      5.79      0.00
    5    7   17      3.63      0.00
    7    7   17      1.79      0.00
    9    7   17     -0.18      0.00
   11    7   17      0.59      0.00
   13    7   17      1.09      0.00
   15    7   17     -3.89      0.00
   17    7   17     -0.21      0.00
   19    7   17      0.38      0.00
   21    7   17      0.36      0.00
   23    7   17     -0.73      0.00
   25    7   17     -3.60      0.00
  -36    8   17      0.50      0.00
  -34    8   17      2.60      0.00
  -32    8   17     -3.51      0.00
  -30    8   17     -2.24      0.00
  -28    8   17     -4.44      0.00
  -26    8   17     -3.11      0.00
  -24    8   17     -6.55      0.00
  -22    8   17     -0.06      0.00
  -20    8   17      1.92      0.00
  -18    8   17      2.42      0.00
  -16    8   17      2.47      0.00
  -14    8   17     -4.35      0.00
  -12    8   17     -7.41      0.00
  -10    8   17     -1.30      0.00
   -8    8   17     -2.47      0.00
   -6    8   17     -2.16      0.00
   -4    8   17     -6.82      0.00
   -2    8   17      3.11      0.00
    0    8   17     -5.63      0.00
    2    8   17      6.67      0.00
    4    8   17     -0.59      0.00
    6    8   17     -1.33      0.00
    8    8   17     -1.30      0.00
   10    8   17     -0.10      0.00
   12    8   17      0.75      0.00
   14    8   17      0.00      0.00
   16    8   17      4.53      0.00
   18    8   17     -0.93      0.00
   20    8   17     -2.91      0.00
   22    8   17     -1.45      0.00
   24    8   17     -4.17      0.00
  -35    9   17      1.96      0.00
  -33    9   17      0.31      0.00
  -31    9   17      1.70      0.00
  -29    9   17      0.86      0.00
  -27    9   17     -4.58      0.00
  -25    9   17     -0.10      0.00
  -23    9   17      1.08      0.00
  -21    9   17      0.06      0.00
  -19    9   17     -1.20      0.00
  -17    9   17      0.06      0.00
  -15    9   17      9.28      0.00
  -13    9   17      0.76      0.00
  -11    9   17      2.37      0.00
   -9    9   17      4.22      0.00
   -7    9   17      1.93      0.00
   -5    9   17     -0.13      0.00
   -3    9   17      1.54      0.00
   -1    9   17      0.36      0.00
    1    9   17     -0.82      0.00
    3    9   17     -0.12      0.00
    5    9   17      2.13      0.00
    7    9   17      7.40      0.00
    9    9   17     -5.47      0.00
   11    9   17     -5.85      0.00
   13    9   17      0.61      0.00
   15    9   17     -8.80      0.00
   17    9   17     -1.83      0.00
   19    9   17      5.53      0.00
   21    9   17     -2.25      0.00
   23    9   17      3.12      0.00
   25    9   17     -0.47      0.00
  -34   10   17     -3.26      0.00
  -32   10   17     -2.42      0.00
  -30   10   17     -1.71      0.00
  -28   10   17     -0.98      0.00
  -26   10   17      2.70      0.00
  -24   10   17     -1.22      0.00
  -22   10   17      1.02      0.00
  -20   10   17      2.68      0.00
  -18   10   17      3.14      0.00
  -16   10   17     -2.14      0.00
  -14   10   17     -1.56      0.00
  -12   10   17     -5.48      0.00
  -10   10   17     -7.88      0.00
   -8   10   17     -4.64      0.00
   -6   10   17     -2.57      0.00
   -4   10   17      0.47      0.00
   -2   10   17      9.97      0.00
    0   10   17      0.21      0.00
    2   10   17     -4.51      0.00
    4   10   17     -1.15      0.00
    6   10   17     -0.87      0.00
    8   10   17      0.59      0.00
   10   10   17      4.04      0.00
   12   10   17      3.26      0.00
   14   10   17      3.69      0.00
   16   10   17     -2.35      0.00
   18   10   17      0.10      0.00
   20   10   17      1.09      0.00
   22   10   17      0.11      0.00
   24   10   17      2.36      0.00
  -33   11   17      1.45      0.00
  -31   11   17      1.12      0.00
  -29   11   17     -1.89      0.00
  -27   11   17      0.95      0.00
  -25   11   17     -1.31      0.00
  -23   11   17     -2.55      0.00
  -21   11   17     -0.92      0.00
  -19   11   17     -1.77      0.00
  -17   11   17     -3.64      0.00
  -15   11   17     -4.58      0.00
  -13   11   17     -3.97      0.00
  -11   11   17      5.05      0.00
   -9   11   17      3.53      0.00
   -7   11   17      1.03      0.00
   -5   11   17     -3.38      0.00
   -3   11   17     -5.42      0.00
   -1   11   17      3.57      0.00
    1   11   17      0.59      0.00
    3   11   17      4.99      0.00
    5   11   17     -1.55      0.00
    7   11   17      5.99      0.00
    9   11   17     -5.21      0.00
   11   11   17     -3.21      0.00
   13   11   17    -13.37      0.00
   15   11   17     -0.75      0.00
   17   11   17     -0.70      0.00
   19   11   17     -0.01      0.00
   21   11   17     -2.98      0.00
  -32   12   17     -2.15      0.00
  -30   12   17      1.33      0.00
  -28   12   17      0.77      0.00
  -26   12   17      1.29      0.00
  -24   12   17     -1.05      0.00
  -22   12   17     -0.83      0.00
  -20   12   17     -3.72      0.00
  -18   12   17      3.47      0.00
  -16   12   17      1.52      0.00
  -14   12   17      4.24      0.00
  -12   12   17      0.35      0.00
  -10   12   17     -0.20      0.00
   -8   12   17     -2.35      0.00
   -6   12   17      0.72      0.00
   -4   12   17     -1.77      0.00
   -2   12   17      3.42      0.00
    0   12   17     -0.57      0.00
    2   12   17      0.48      0.00
    4   12   17     -0.98      0.00
    6   12   17      7.44      0.00
    8   12   17     -2.10      0.00
   10   12   17     -3.76      0.00
   12   12   17      1.09      0.00
   14   12   17     -0.73      0.00
   16   12   17     -2.66      0.00
   18   12   17     -0.42      0.00
   20   12   17      0.19      0.00
  -31   13   17      0.39      0.00
  -29   13   17      1.85      0.00
  -27   13   17      0.73      0.00
  -25   13   17     -4.04      0.00
  -23   13   17     -0.81      0.00
  -21   13   17      2.25      0.00
  -19   13   17      1.53      0.00
  -17   13   17     -0.96      0.00
  -15   13   17      6.42      0.00
  -13   13   17      1.77      0.00
  -11   13   17     -1.75      0.00
   -9   13   17     -2.74      0.00
   -7   13   17      6.97      0.00
   -5   13   17      3.93      0.00
   -3   13   17     -1.32      0.00
   -1   13   17     -4.54      0.00
    1   13   17     -3.96      0.00
    3   13   17     -0.07      0.00
    5   13   17      2.57      0.00
    7   13   17     -0.84      0.00
    9   13   17      1.68      0.00
   11   13   17     -7.17      0.00
   13   13   17     -1.13      0.00
   15   13   17     -1.90      0.00
   17   13   17      2.10      0.00
   19   13   17      0.17      0.00
  -28   14   17     -1.36      0.00
  -26   14   17     -0.02      0.00
  -24   14   17     -2.63      0.00
  -22   14   17     -0.85      0.00
  -20   14   17      5.18      0.00
  -18   14   17     -1.21      0.00
  -16   14   17      0.92      0.00
  -14   14   17      2.25      0.00
  -12   14   17      1.24      0.00
  -10   14   17     -3.39      0.00
   -8   14   17      1.53      0.00
   -6   14   17      3.84      0.00
   -4   14   17      2.14      0.00
   -2   14   17      2.44      0.00
    0   14   17      3.18      0.00
    2   14   17     -5.46      0.00
    4   14   17      0.78      0.00
    6   14   17     -1.74      0.00
    8   14   17     -2.39      0.00
   10   14   17     -2.69      0.00
   12   14   17      3.65      0.00
   14   14   17     -3.92      0.00
   16   14   17     -0.08      0.00
   18   14   17     -0.42      0.00
  -27   15   17     -0.06      0.00
  -25   15   17     -1.63      0.00
  -23   15   17      0.51      0.00
  -21   15   17     -2.16      0.00
  -19   15   17     -0.45      0.00
  -17   15   17      2.53      0.00
  -15   15   17     -1.34      0.00
  -13   15   17      3.22      0.00
  -11   15   17     -0.75      0.00
   -9   15   17     -0.67      0.00
   -7   15   17      0.95      0.00
   -5   15   17      0.71      0.00
   -3   15   17     -1.51      0.00
   -1   15   17     -0.41      0.00
    1   15   17     -2.91      0.00
    3   15   17      3.52      0.00
    5   15   17      2.79      0.00
    7   15   17      8.41      0.00
    9   15   17     -5.18      0.00
   11   15   17      1.64      0.00
   13   15   17     -1.96      0.00
   15   15   17      6.41      0.00
  -24   16   17     -0.88      0.00
  -22   16   17     -2.91      0.00
  -20   16   17      1.10      0.00
  -18   16   17      4.43      0.00
  -16   16   17      1.12      0.00
  -14   16   17     -0.07      0.00
  -12   16   17      1.06      0.00
  -10   16   17     -7.52      0.00
   -8   16   17     -4.03      0.00
   -6   16   17     -4.54      0.00
   -4   16   17     -1.02      0.00
   -2   16   17      5.19      0.00
    0   16   17      2.94      0.00
    2   16   17      0.84      0.00
    4   16   17     -2.23      0.00
    6   16   17     -1.94      0.00
    8   16   17      1.31      0.00
   10   16   17      4.74      0.00
   12   16   17     -3.00      0.00
   14   16   17     -0.63      0.00
  -23   17   17      1.41      0.00
  -21   17   17     -4.09      0.00
  -19   17   17      0.24      0.00
  -17   17   17     -2.57      0.00
  -15   17   17     -2.76      0.00
  -13   17   17     -1.23      0.00
  -11   17   17      2.53      0.00
   -9   17   17     -1.26      0.00
   -7   17   17      6.53      0.00
   -5   17   17     -0.36      0.00
   -3   17   17     -1.48      0.00
   -1   17   17     -4.09      0.00
    1   17   17     -0.53      0.00
    3   17   17     -4.03      0.00
    5   17   17      2.86      0.00
    7   17   17      2.73      0.00
    9   17   17      2.15      0.00
   11   17   17      2.24      0.00
  -18   18   17     -2.64      0.00
  -16   18   17      3.09      0.00
  -14   18   17      2.11      0.00
  -12   18   17     -0.39      0.00
  -10   18   17     -1.25      0.00
   -8   18   17     -1.88      0.00
   -6   18   17     -0.82      0.00
   -4   18   17      0.44      0.00
   -2   18   17      0.46      0.00
    0   18   17      0.45      0.00
    2   18   17      2.83      0.00
    4   18   17      2.06      0.00
    6   18   17     -2.40      0.00
    8   18   17      3.33      0.00
  -13   19   17      7.38      0.00
  -11   19   17     -0.36      0.00
   -9   19   17      0.02      0.00
   -7   19   17      0.19      0.00
   -5   19   17      1.71      0.00
   -3   19   17     -3.67      0.00
   -1   19   17      3.20      0.00
    1   19   17      0.04      0.00
    3   19   17     -4.02      0.00
  -38    0   18     -0.73      0.00
  -36    0   18     -1.83      0.00
  -34    0   18     -1.80      0.00
  -32    0   18      7.08      0.00
  -30    0   18      7.15      0.00
  -28    0   18      4.27      0.00
  -26    0   18      5.35      0.00
  -24    0   18      7.99      0.00
  -22    0   18     -0.39      0.00
  -20    0   18     -5.07      0.00
  -18    0   18     -3.93      0.00
  -16    0   18     -7.63      0.00
  -14    0   18     -0.39      0.00
  -12    0   18     14.19      0.00
  -10    0   18      5.15      0.00
   -8    0   18     -0.68      0.00
   -6    0   18    -18.60      0.00
   -4    0   18      3.88      0.00
   -2    0   18      8.53      0.00
    0    0   18     11.26      0.00
    2    0   18    -13.08      0.00
    4    0   18      7.55      0.00
    6    0   18     -0.41      0.00
    8    0   18      2.30      0.00
   10    0   18     -8.61      0.00
   12    0   18      2.50      0.00
   14    0   18      3.13      0.00
   16    0   18     -0.28      0.00
   18    0   18      0.25      0.00
   20    0   18     -0.17      0.00
   22    0   18     -1.91      0.00
   24    0   18      1.25      0.00
   26    0   18      0.98      0.00
  -39    1   18      0.91      0.00
  -37    1   18     -0.43      0.00
  -35    1   18     -1.87      0.00
  -33    1   18     -3.92      0.00
  -31    1   18     -3.32      0.00
  -29    1   18      1.64      0.00
  -27    1   18     -3.25      0.00
  -25    1   18      1.33      0.00
  -23    1   18     -1.47      0.00
  -21    1   18      1.52      0.00
  -19    1   18      1.05      0.00
  -17    1   18      3.16      0.00
  -15    1   18     -0.77      0.00
  -13    1   18     -2.98      0.00
  -11    1   18    -12.76      0.00
   -9    1   18     -9.39      0.00
   -7    1   18      0.48      0.00
   -5    1   18      7.04      0.00
   -3    1   18     -2.09      0.00
   -1    1   18     10.06      0.00
    1    1   18      2.78      0.00
    3    1   18     16.27      0.00
    5    1   18      0.75      0.00
    7    1   18     -8.80      0.00
    9    1   18     -1.40      0.00
   11    1   18     -6.93      0.00
   13    1   18      0.85      0.00
   15    1   18      1.33      0.00
   17    1   18     -0.04      0.00
   19    1   18      1.40      0.00
   21    1   18     -0.40      0.00
   23    1   18      0.40      0.00
   25    1   18      1.12      0.00
   27    1   18     -0.39      0.00
  -38    2   18      1.10      0.00
  -36    2   18      0.11      0.00
  -34    2   18      0.68      0.00
  -32    2   18      2.57      0.00
  -30    2   18      0.49      0.00
  -28    2   18     -4.66      0.00
  -26    2   18     -1.69      0.00
  -24    2   18     -1.55      0.00
  -22    2   18     -0.98      0.00
  -20    2   18     -2.81      0.00
  -18    2   18      4.34      0.00
  -16    2   18     -1.39      0.00
  -14    2   18     -1.04      0.00
  -12    2   18     -4.53      0.00
  -10    2   18     -6.40      0.00
   -8    2   18      8.44      0.00
   -6    2   18     -0.94      0.00
   -4    2   18     13.26      0.00
   -2    2   18     -3.96      0.00
    0    2   18      9.53      0.00
    2    2   18    -10.36      0.00
    4    2   18      5.86      0.00
    6    2   18     -4.95      0.00
    8    2   18     -0.06      0.00
   10    2   18      1.30      0.00
   12    2   18      1.46      0.00
   14    2   18     -0.10      0.00
   16    2   18     -0.83      0.00
   18    2   18     -2.33      0.00
   20    2   18      1.29      0.00
   22    2   18     -0.52      0.00
   24    2   18     -1.70      0.00
   26    2   18     -0.38      0.00
  -39    3   18     -0.44      0.00
  -37    3   18     -3.00      0.00
  -35    3   18     -2.34      0.00
  -33    3   18     -3.35      0.00
  -31    3   18     -0.36      0.00
  -29    3   18     -1.49      0.00
  -27    3   18     -6.72      0.00
  -25    3   18      2.59      0.00
  -23    3   18     -1.72      0.00
  -21    3   18      1.59      0.00
  -19    3   18     -0.18      0.00
  -17    3   18     -1.92      0.00
  -15    3   18     -1.32      0.00
  -13    3   18      4.13      0.00
  -11    3   18      7.40      0.00
   -9    3   18      7.15      0.00
   -7    3   18     -4.12      0.00
   -5    3   18     -8.47      0.00
   -3    3   18     -4.31      0.00
   -1    3   18     12.46      0.00
    1    3   18     -4.89      0.00
    3    3   18      6.55      0.00
    5    3   18      0.51      0.00
    7    3   18     -0.98      0.00
    9    3   18      0.08      0.00
   11    3   18     -4.15      0.00
   13    3   18     -2.81      0.00
   15    3   18      0.06      0.00
   17    3   18     -0.47      0.00
   19    3   18     -6.42      0.00
   21    3   18      0.66      0.00
   23    3   18     -0.80      0.00
   25    3   18      0.26      0.00
   27    3   18     -1.23      0.00
  -38    4   18     -0.24      0.00
  -36    4   18      0.25      0.00
  -34    4   18      1.51      0.00
  -32    4   18      0.16      0.00
  -30    4   18      4.53      0.00
  -28    4   18      1.15      0.00
  -26    4   18      1.91      0.00
  -24    4   18     -2.61      0.00
  -22    4   18     -0.93      0.00
  -20    4   18      1.14      0.00
  -18    4   18      2.86      0.00
  -16    4   18      4.21      0.00
  -14    4   18      0.32      0.00
  -12    4   18     -2.87      0.00
  -10    4   18    -14.14      0.00
   -8    4   18      8.46      0.00
   -6    4   18     14.05      0.00
   -4    4   18     10.78      0.00
   -2    4   18      0.52      0.00
    0    4   18      2.23      0.00
    2    4   18     -3.81      0.00
    4    4   18     -1.95      0.00
    6    4   18     -8.69      0.00
    8    4   18      5.63      0.00
   10    4   18     -0.06      0.00
   12    4   18     -1.36      0.00
   14    4   18     -2.37      0.00
   16    4   18     -1.25      0.00
   18    4   18      1.81      0.00
   20    4   18      0.96      0.00
   22    4   18     -0.81      0.00
   24    4   18     -1.15      0.00
   26    4   18      1.80      0.00
  -37    5   18      2.10      0.00
  -35    5   18     -2.59      0.00
  -33    5   18     -1.41      0.00
  -31    5   18     -1.72      0.00
  -29    5   18     -0.30      0.00
  -27    5   18     10.34      0.00
  -25    5   18      0.59      0.00
  -23    5   18     -1.27      0.00
  -21    5   18      5.18      0.00
  -19    5   18      2.93      0.00
  -17    5   18      4.64      0.00
  -15    5   18      0.08      0.00
  -13    5   18     -0.13      0.00
  -11    5   18     -4.49      0.00
   -9    5   18      9.23      0.00
   -7    5   18      1.08      0.00
   -5    5   18     -3.29      0.00
   -3    5   18      1.23      0.00
   -1    5   18      3.75      0.00
    1    5   18     -2.53      0.00
    3    5   18      5.58      0.00
    5    5   18      2.74      0.00
    7    5   18     -0.73      0.00
    9    5   18     -1.37      0.00
   11    5   18      2.28      0.00
   13    5   18      3.73      0.00
   15    5   18     -0.92      0.00
   17    5   18     -1.86      0.00
   19    5   18     -1.82      0.00
   21    5   18      2.24      0.00
   23    5   18      0.89      0.00
   25    5   18     -2.89      0.00
  -38    6   18     -1.72      0.00
  -36    6   18     -2.90      0.00
  -34    6   18      2.51      0.00
  -32    6   18      0.88      0.00
  -30    6   18     -1.27      0.00
  -28    6   18     -5.33      0.00
  -26    6   18     -1.67      0.00
  -24    6   18     -0.34      0.00
  -22    6   18      2.08      0.00
  -20    6   18     -3.37      0.00
  -18    6   18     -6.21      0.00
  -16    6   18     -4.47      0.00
  -14    6   18     -3.02      0.00
  -12    6   18      5.43      0.00
  -10    6   18      4.24      0.00
   -8    6   18     -4.57      0.00
   -6    6   18     -1.08      0.00
   -4    6   18     -1.57      0.00
   -2    6   18     -4.47      0.00
    0    6   18      6.17      0.00
    2    6   18     -3.34      0.00
    4    6   18     -1.11      0.00
    6    6   18     -9.10      0.00
    8    6   18      5.59      0.00
   10    6   18     -0.63      0.00
   12    6   18      0.55      0.00
   14    6   18     -1.17      0.00
   16    6   18     -2.57      0.00
   18    6   18      0.26      0.00
   20    6   18      2.00      0.00
   22    6   18      3.41      0.00
   24    6   18      1.67      0.00
   26    6   18      0.65      0.00
  -37    7   18      1.41      0.00
  -35    7   18      2.87      0.00
  -33    7   18     -3.42      0.00
  -31    7   18     -0.91      0.00
  -29    7   18     -0.62      0.00
  -27    7   18     -0.12      0.00
  -25    7   18      0.67      0.00
  -23    7   18     -1.03      0.00
  -21    7   18     -2.17      0.00
  -19    7   18      3.79      0.00
  -17    7   18      1.64      0.00
  -15    7   18      6.29      0.00
  -13    7   18     -1.44      0.00
  -11    7   18     -1.89      0.00
   -9    7   18     -0.47      0.00
   -7    7   18      9.81      0.00
   -5    7   18      1.65      0.00
   -3    7   18     -7.46      0.00
   -1    7   18     -0.75      0.00
    1    7   18     -5.80      0.00
    3    7   18      6.11      0.00
    5    7   18      5.16      0.00
    7    7   18      0.58      0.00
    9    7   18     -2.80      0.00
   11    7   18      4.14      0.00
   13    7   18      3.93      0.00
   15    7   18      2.63      0.00
   17    7   18      2.90      0.00
   19    7   18     -2.18      0.00
   21    7   18      0.55      0.00
   23    7   18     -2.50      0.00
   25    7   18     -1.94      0.00
  -36    8   18      3.04      0.00
  -34    8   18      2.58      0.00
  -32    8   18     10.40      0.00
  -30    8   18     -1.45      0.00
  -28    8   18     -2.89      0.00
  -26    8   18     -0.40      0.00
  -24    8   18     -3.43      0.00
  -22    8   18      3.33      0.00
  -20    8   18      0.37      0.00
  -18    8   18      0.02      0.00
  -16    8   18      3.52      0.00
  -14    8   18     -1.54      0.00
  -12    8   18      0.56      0.00
  -10    8   18     -3.25      0.00
   -8    8   18     -0.89      0.00
   -6    8   18     -4.26      0.00
   -4    8   18      2.67      0.00
   -2    8   18     -0.54      0.00
    0    8   18      1.34      0.00
    2    8   18     -4.22      0.00
    4    8   18     -5.28      0.00
    6    8   18     -0.65      0.00
    8    8   18      4.73      0.00
   10    8   18     -1.94      0.00
   12    8   18      4.13      0.00
   14    8   18      0.51      0.00
   16    8   18     -0.14      0.00
   18    8   18      5.94      0.00
   20    8   18      0.49      0.00
   22    8   18      2.56      0.00
   24    8   18      0.25      0.00
  -35    9   18      1.42      0.00
  -33    9   18      2.74      0.00
  -31    9   18     -0.34      0.00
  -29    9   18      1.82      0.00
  -27    9   18      0.96      0.00
  -25    9   18     -0.34      0.00
  -23    9   18     -0.98      0.00
  -21    9   18      1.78      0.00
  -19    9   18     -1.07      0.00
  -17    9   18     -1.29      0.00
  -15    9   18     -0.54      0.00
  -13    9   18      3.80      0.00
  -11    9   18      8.08      0.00
   -9    9   18      5.21      0.00
   -7    9   18      0.46      0.00
   -5    9   18      1.58      0.00
   -3    9   18     -1.99      0.00
   -1    9   18      1.21      0.00
    1    9   18     -3.04      0.00
    3    9   18     -1.47      0.00
    5    9   18      2.52      0.00
    7    9   18      6.71      0.00
    9    9   18      0.89      0.00
   11    9   18      1.18      0.00
   13    9   18      6.86      0.00
   15    9   18      2.16      0.00
   17    9   18     -1.43      0.00
   19    9   18      2.23      0.00
   21    9   18     -1.47      0.00
   23    9   18     -0.05      0.00
  -34   10   18      0.22      0.00
  -32   10   18     -1.56      0.00
  -30   10   18      1.44      0.00
  -28   10   18      2.13      0.00
  -26   10   18      1.47      0.00
  -24   10   18     -4.02      0.00
  -22   10   18     -3.47      0.00
  -20   10   18     -2.80      0.00
  -18   10   18     -4.86      0.00
  -16   10   18     -5.53      0.00
  -14   10   18     -2.55      0.00
  -12   10   18     -2.52      0.00
  -10   10   18     -5.43      0.00
   -8   10   18     -5.92      0.00
   -6   10   18     -3.58      0.00
   -4   10   18      2.24      0.00
   -2   10   18      1.48      0.00
    0   10   18      2.28      0.00
    2   10   18      0.48      0.00
    4   10   18     -0.84      0.00
    6   10   18      2.04      0.00
    8   10   18      1.58      0.00
   10   10   18      4.12      0.00
   12   10   18      2.86      0.00
   14   10   18     -0.57      0.00
   16   10   18     -0.86      0.00
   18   10   18     -3.29      0.00
   20   10   18     -1.06      0.00
   22   10   18      1.29      0.00
  -33   11   18      2.40      0.00
  -31   11   18      0.15      0.00
  -29   11   18     -0.68      0.00
  -27   11   18     -3.97      0.00
  -25   11   18     -4.85      0.00
  -23   11   18     -3.15      0.00
  -21   11   18     -0.45      0.00
  -19   11   18     -3.22      0.00
  -17   11   18     -1.81      0.00
  -15   11   18     -0.70      0.00
  -13   11   18      1.62      0.00
  -11   11   18      1.35      0.00
   -9   11   18      0.93      0.00
   -7   11   18      0.41      0.00
   -5   11   18     -2.57      0.00
   -3   11   18     -4.47      0.00
   -1   11   18      0.00      0.00
    1   11   18      1.37      0.00
    3   11   18     -4.67      0.00
    5   11   18      1.86      0.00
    7   11   18      3.18      0.00
    9   11   18     -2.13      0.00
   11   11   18      0.26      0.00
   13   11   18      4.38      0.00
   15   11   18      6.83      0.00
   17   11   18      1.07      0.00
   19   11   18      2.29      0.00
   21   11   18      3.39      0.00
  -32   12   18     -1.88      0.00
  -30   12   18      2.74      0.00
  -28   12   18      0.99      0.00
  -26   12   18      2.81      0.00
  -24   12   18     -0.06      0.00
  -22   12   18      4.42      0.00
  -20   12   18     -0.44      0.00
  -18   12   18      3.84      0.00
  -16   12   18      6.64      0.00
  -14   12   18      1.75      0.00
  -12   12   18      1.13      0.00
  -10   12   18      2.89      0.00
   -8   12   18     -0.94      0.00
   -6   12   18      5.81      0.00
   -4   12   18      4.76      0.00
   -2   12   18     -1.45      0.00
    0   12   18     -1.72      0.00
    2   12   18      1.29      0.00
    4   12   18      1.12      0.00
    6   12   18     -3.90      0.00
    8   12   18     -1.45      0.00
   10   12   18     -2.93      0.00
   12   12   18      3.32      0.00
   14   12   18     -2.51      0.00
   16   12   18      0.76      0.00
   18   12   18     -0.47      0.00
   20   12   18      0.21      0.00
  -31   13   18     -0.35      0.00
  -29   13   18      1.88      0.00
  -27   13   18     -2.26      0.00
  -25   13   18     -1.27      0.00
  -23   13   18     -1.32      0.00
  -21   13   18      1.69      0.00
  -19   13   18      1.67      0.00
  -17   13   18      0.19      0.00
  -15   13   18     -3.67      0.00
  -13   13   18     -0.09      0.00
  -11   13   18     -3.80      0.00
   -9   13   18      2.14      0.00
   -7   13   18      2.61      0.00
   -5   13   18     -0.93      0.00
   -3   13   18     -3.13      0.00
   -1   13   18     -6.87      0.00
    1   13   18     -3.26      0.00
    3   13   18     -1.04      0.00
    5   13   18     -2.46      0.00
    7   13   18     -4.08      0.00
    9   13   18      0.46      0.00
   11   13   18      3.62      0.00
   13   13   18     -0.31      0.00
   15   13   18      0.33      0.00
   17   13   18     -0.12      0.00
   19   13   18     -0.33      0.00
  -28   14   18     -0.47      0.00
  -26   14   18     -0.12      0.00
  -24   14   18      3.26      0.00
  -22   14   18      2.70      0.00
  -20   14   18      0.58      0.00
  -18   14   18      0.45      0.00
  -16   14   18      0.23      0.00
  -14   14   18     -2.55      0.00
  -12   14   18      4.70      0.00
  -10   14   18     -1.91      0.00
   -8   14   18     -3.95      0.00
   -6   14   18     -2.76      0.00
   -4   14   18      2.47      0.00
   -2   14   18      4.49      0.00
    0   14   18      6.96      0.00
    2   14   18      6.05      0.00
    4   14   18      0.69      0.00
    6   14   18      6.87      0.00
    8   14   18     -3.92      0.00
   10   14   18      6.39      0.00
   12   14   18     -1.97      0.00
   14   14   18      3.46      0.00
   16   14   18     -4.33      0.00
  -27   15   18     -0.47      0.00
  -25   15   18      1.53      0.00
  -23   15   18     -1.66      0.00
  -21   15   18      3.00      0.00
  -19   15   18      1.73      0.00
  -17   15   18     -2.48      0.00
  -15   15   18     -5.23      0.00
  -13   15   18     -3.10      0.00
  -11   15   18      0.40      0.00
   -9   15   18     -0.41      0.00
   -7   15   18     -2.14      0.00
   -5   15   18      6.26      0.00
   -3   15   18      4.91      0.00
   -1   15   18     -3.78      0.00
    1   15   18      2.25      0.00
    3   15   18      1.32      0.00
    5   15   18      1.24      0.00
    7   15   18      3.34      0.00
    9   15   18      6.24      0.00
   11   15   18      6.24      0.00
   13   15   18      3.96      0.00
   15   15   18      2.51      0.00
  -24   16   18      1.28      0.00
  -22   16   18     -1.65      0.00
  -20   16   18     -1.80      0.00
  -18   16   18      0.42      0.00
  -16   16   18     -3.21      0.00
  -14   16   18      1.45      0.00
  -12   16   18      4.55      0.00
  -10   16   18     -3.36      0.00
   -8   16   18      2.20      0.00
   -6   16   18     -0.57      0.00
   -4   16   18     -1.52      0.00
   -2   16   18     -1.24      0.00
    0   16   18      2.51      0.00
    2   16   18     -0.74      0.00
    4   16   18      0.39      0.00
    6   16   18     -3.02      0.00
    8   16   18      6.09      0.00
   10   16   18      4.63      0.00
   12   16   18      2.46      0.00
  -21   17   18     -1.06      0.00
  -19   17   18     -8.37      0.00
  -17   17   18     -1.53      0.00
  -15   17   18      1.97      0.00
  -13   17   18      1.07      0.00
  -11   17   18      2.37      0.00
   -9   17   18      2.51      0.00
   -7   17   18      1.34      0.00
   -5   17   18     -2.14      0.00
   -3   17   18     -1.63      0.00
   -1   17   18     -3.93      0.00
    1   17   18     -1.37      0.00
    3   17   18     -0.99      0.00
    5   17   18      3.52      0.00
    7   17   18     -0.72      0.00
    9   17   18      0.40      0.00
  -18   18   18     -1.89      0.00
  -16   18   18     -1.62      0.00
  -14   18   18      4.57      0.00
  -12   18   18     -1.64      0.00
  -10   18   18     -0.92      0.00
   -8   18   18     -3.61      0.00
   -6   18   18     -2.80      0.00
   -4   18   18     -2.53      0.00
   -2   18   18     -1.52      0.00
    0   18   18     -1.00      0.00
    2   18   18     -0.03      0.00
    4   18   18      0.33      0.00
    6   18   18     -3.78      0.00
  -11   19   18     -3.05      0.00
   -9   19   18     -0.29      0.00
   -7   19   18     -0.45      0.00
   -5   19   18     -2.29      0.00
   -3   19   18     -3.00      0.00
   -1   19   18     -0.63      0.00
  -39    1   19     -0.54      0.00
  -37    1   19     -3.02      0.00
  -35    1   19      1.89      0.00
  -33    1   19      0.11      0.00
  -31    1   19     -1.45      0.00
  -29    1   19     -1.69      0.00
  -27    1   19      0.65      0.00
  -25    1   19     -1.48      0.00
  -23    1   19     -1.62      0.00
  -21    1   19      1.24      0.00
  -19    1   19     -2.28      0.00
  -17    1   19      3.37      0.00
  -15    1   19      5.81      0.00
  -13    1   19      1.89      0.00
  -11    1   19     -3.49      0.00
   -9    1   19     -3.24      0.00
   -7    1   19     -4.08      0.00
   -5    1   19      3.83      0.00
   -3    1   19      2.96      0.00
   -1    1   19     -4.65      0.00
    1    1   19     -6.89      0.00
    3    1   19      0.48      0.00
    5    1   19      1.23      0.00
    7    1   19      0.62      0.00
    9    1   19      3.09      0.00
   11    1   19     -1.33      0.00
   13    1   19     -3.95      0.00
   15    1   19      1.19      0.00
   17    1   19     -3.37      0.00
   19    1   19     -0.71      0.00
   21    1   19      3.79      0.00
   23    1   19      0.77      0.00
   25    1   19     -2.22      0.00
  -38    2   19     -1.75      0.00
  -36    2   19     -0.94      0.00
  -34    2   19     -2.60      0.00
  -32    2   19     -1.30      0.00
  -30    2   19      0.73      0.00
  -28    2   19     -1.89      0.00
  -26    2   19      3.05      0.00
  -24    2   19      2.30      0.00
  -22    2   19      3.21      0.00
  -20    2   19      6.57      0.00
  -18    2   19      1.65      0.00
  -16    2   19     -1.07      0.00
  -14    2   19     -5.55      0.00
  -12    2   19     -3.47      0.00
  -10    2   19      0.86      0.00
   -8    2   19      4.96      0.00
   -6    2   19     -9.10      0.00
   -4    2   19     -8.66      0.00
   -2    2   19      0.97      0.00
    0    2   19      2.21      0.00
    2    2   19      0.58      0.00
    4    2   19     -3.11      0.00
    6    2   19      5.12      0.00
    8    2   19      1.62      0.00
   10    2   19      0.40      0.00
   12    2   19     -0.19      0.00
   14    2   19     -1.36      0.00
   16    2   19     -1.03      0.00
   18    2   19      1.26      0.00
   20    2   19     -0.17      0.00
   22    2   19     -1.11      0.00
   24    2   19      1.54      0.00
   26    2   19      0.27      0.00
  -39    3   19      3.75      0.00
  -37    3   19      1.77      0.00
  -35    3   19      4.49      0.00
  -33    3   19      0.12      0.00
  -31    3   19      1.33      0.00
  -29    3   19      1.65      0.00
  -27    3   19      2.68      0.00
  -25    3   19     -0.17      0.00
  -23    3   19     -3.20      0.00
  -21    3   19     -4.62      0.00
  -19    3   19     -5.93      0.00
  -17    3   19     -6.11      0.00
  -15    3   19      5.46      0.00
  -13    3   19      3.09      0.00
  -11    3   19      0.26      0.00
   -9    3   19     -2.16      0.00
   -7    3   19      1.83      0.00
   -5    3   19     -3.11      0.00
   -3    3   19     -2.65      0.00
   -1    3   19     -5.08      0.00
    1    3   19     -2.93      0.00
    3    3   19      4.10      0.00
    5    3   19     -0.70      0.00
    7    3   19      4.03      0.00
    9    3   19     -0.22      0.00
   11    3   19     -3.11      0.00
   13    3   19     -0.75      0.00
   15    3   19      2.18      0.00
   17    3   19      2.13      0.00
   19    3   19     -3.07      0.00
   21    3   19     -0.29      0.00
   23    3   19      0.11      0.00
   25    3   19      0.24      0.00
  -38    4   19      0.12      0.00
  -36    4   19     -0.69      0.00
  -34    4   19      2.08      0.00
  -32    4   19      1.20      0.00
  -30    4   19      2.77      0.00
  -28    4   19     25.61      0.00
  -26    4   19      4.67      0.00
  -24    4   19     -0.38      0.00
  -22    4   19      1.89      0.00
  -20    4   19     -0.89      0.00
  -18    4   19     -0.83      0.00
  -16    4   19      5.53      0.00
  -14    4   19      2.02      0.00
  -12    4   19     -5.43      0.00
  -10    4   19     -6.83      0.00
   -8    4   19      0.47      0.00
   -6    4   19     -1.86      0.00
   -4    4   19      3.82      0.00
   -2    4   19      4.67      0.00
    0    4   19     -0.07      0.00
    2    4   19      4.15      0.00
    4    4   19     -5.51      0.00
    6    4   19      2.50      0.00
    8    4   19      0.65      0.00
   10    4   19     -1.87      0.00
   12    4   19      1.82      0.00
   14    4   19      2.07      0.00
   16    4   19     -1.02      0.00
   18    4   19      5.22      0.00
   20    4   19      4.00      0.00
   22    4   19      1.17      0.00
   24    4   19     -1.92      0.00
   26    4   19     -1.83      0.00
  -37    5   19      1.46      0.00
  -35    5   19      1.47      0.00
  -33    5   19      0.63      0.00
  -31    5   19      0.99      0.00
  -29    5   19     -2.46      0.00
  -27    5   19     -3.14      0.00
  -25    5   19      8.89      0.00
  -23    5   19     -2.74      0.00
  -21    5   19     -1.98      0.00
  -19    5   19      5.82      0.00
  -17    5   19     -0.26      0.00
  -15    5   19     -0.17      0.00
  -13    5   19      0.37      0.00
  -11    5   19      4.21      0.00
   -9    5   19      4.50      0.00
   -7    5   19     -0.94      0.00
   -5    5   19    -10.12      0.00
   -3    5   19     -9.07      0.00
   -1    5   19      0.93      0.00
    1    5   19      0.52      0.00
    3    5   19      9.41      0.00
    5    5   19     -7.24      0.00
    7    5   19      1.03      0.00
    9    5   19      4.36      0.00
   11    5   19      1.59      0.00
   13    5   19     -3.15      0.00
   15    5   19     -1.16      0.00
   17    5   19      2.30      0.00
   19    5   19     -1.86      0.00
   21    5   19      0.99      0.00
   23    5   19      0.76      0.00
   25    5   19     -1.36      0.00
  -36    6   19     -0.06      0.00
  -34    6   19     -2.62      0.00
  -32    6   19     -1.83      0.00
  -30    6   19     -3.04      0.00
  -28    6   19     -1.65      0.00
  -26    6   19     -1.66      0.00
  -24    6   19     -3.49      0.00
  -22    6   19     -3.92      0.00
  -20    6   19     -1.34      0.00
  -18    6   19     -3.65      0.00
  -16    6   19      1.32      0.00
  -14    6   19     -1.27      0.00
  -12    6   19     -4.26      0.00
  -10    6   19     -7.21      0.00
   -8    6   19     -3.76      0.00
   -6    6   19     -2.88      0.00
   -4    6   19      1.67      0.00
   -2    6   19      5.48      0.00
    0    6   19     -5.13      0.00
    2    6   19     -1.37      0.00
    4    6   19     -3.73      0.00
    6    6   19     -0.32      0.00
    8    6   19      0.98      0.00
   10    6   19     -0.37      0.00
   12    6   19     -0.15      0.00
   14    6   19      1.29      0.00
   16    6   19      2.30      0.00
   18    6   19     -2.55      0.00
   20    6   19      0.87      0.00
   22    6   19      0.99      0.00
   24    6   19      2.82      0.00
  -37    7   19      3.70      0.00
  -35    7   19      3.33      0.00
  -33    7   19      4.46      0.00
  -31    7   19     -0.23      0.00
  -29    7   19     -0.53      0.00
  -27    7   19      1.07      0.00
  -25    7   19      0.70      0.00
  -23    7   19     -3.62      0.00
  -21    7   19     -0.35      0.00
  -19    7   19      2.00      0.00
  -17    7   19      2.70      0.00
  -15    7   19      5.40      0.00
  -13    7   19     -0.03      0.00
  -11    7   19     -3.68      0.00
   -9    7   19      4.03      0.00
   -7    7   19      2.17      0.00
   -5    7   19     -0.82      0.00
   -3    7   19     -6.83      0.00
   -1    7   19      0.61      0.00
    1    7   19     -1.20      0.00
    3    7   19      8.05      0.00
    5    7   19     -0.55      0.00
    7    7   19      4.76      0.00
    9    7   19     -0.03      0.00
   11    7   19      4.52      0.00
   13    7   19      4.43      0.00
   15    7   19      2.13      0.00
   17    7   19      3.88      0.00
   19    7   19      2.49      0.00
   21    7   19      0.04      0.00
   23    7   19     -0.63      0.00
  -36    8   19      1.45      0.00
  -34    8   19      5.80      0.00
  -32    8   19     -0.46      0.00
  -30    8   19      1.75      0.00
  -28    8   19     -1.45      0.00
  -26    8   19     -2.72      0.00
  -24    8   19     -0.25      0.00
  -22    8   19      1.87      0.00
  -20    8   19     -0.98      0.00
  -18    8   19      0.70      0.00
  -16    8   19     -7.34      0.00
  -14    8   19     -2.90      0.00
  -12    8   19     -0.65      0.00
  -10    8   19     -1.55      0.00
   -8    8   19      3.58      0.00
   -6    8   19     -3.85      0.00
   -4    8   19      0.27      0.00
   -2    8   19      0.64      0.00
    0    8   19      0.07      0.00
    2    8   19      3.42      0.00
    4    8   19     -7.31      0.00
    6    8   19      1.32      0.00
    8    8   19      2.94      0.00
   10    8   19     -4.09      0.00
   12    8   19     -0.32      0.00
   14    8   19      4.64      0.00
   16    8   19     -3.25      0.00
   18    8   19      0.06      0.00
   20    8   19     -3.31      0.00
   22    8   19     -4.82      0.00
  -35    9   19     -2.22      0.00
  -33    9   19     -4.84      0.00
  -31    9   19      1.69      0.00
  -29    9   19      3.72      0.00
  -27    9   19     -1.00      0.00
  -25    9   19      3.00      0.00
  -23    9   19     -4.61      0.00
  -21    9   19     -1.29      0.00
  -19    9   19     -3.96      0.00
  -17    9   19     -0.70      0.00
  -15    9   19      3.65      0.00
  -13    9   19     -1.45      0.00
  -11    9   19      5.48      0.00
   -9    9   19      1.97      0.00
   -7    9   19      1.41      0.00
   -5    9   19      4.83      0.00
   -3    9   19     -0.17      0.00
   -1    9   19      4.17      0.00
    1    9   19     -4.38      0.00
    3    9   19      4.14      0.00
    5    9   19      4.23      0.00
    7    9   19      2.71      0.00
    9    9   19     -0.14      0.00
   11    9   19      2.71      0.00
   13    9   19     -4.55      0.00
   15    9   19     -0.94      0.00
   17    9   19     -4.48      0.00
   19    9   19      3.15      0.00
   21    9   19      6.31      0.00
  -34   10   19     -1.43      0.00
  -32   10   19      0.16      0.00
  -30   10   19     -1.40      0.00
  -28   10   19     -3.47      0.00
  -26   10   19      0.56      0.00
  -24   10   19     -1.11      0.00
  -22   10   19      1.15      0.00
  -20   10   19      0.42      0.00
  -18   10   19     -1.12      0.00
  -16   10   19     -1.45      0.00
  -14   10   19     -2.80      0.00
  -12   10   19    -12.04      0.00
  -10   10   19     -3.23      0.00
   -8   10   19      0.10      0.00
   -6   10   19     -1.68      0.00
   -4   10   19     -3.69      0.00
   -2   10   19     -0.06      0.00
    0   10   19      1.21      0.00
    2   10   19      1.02      0.00
    4   10   19     -2.72      0.00
    6   10   19      1.19      0.00
    8   10   19      4.65      0.00
   10   10   19      0.01      0.00
   12   10   19      3.87      0.00
   14   10   19      4.92      0.00
   16   10   19     -0.29      0.00
   18   10   19      2.72      0.00
   20   10   19      2.75      0.00
  -33   11   19      0.97      0.00
  -31   11   19     -1.00      0.00
  -29   11   19      1.99      0.00
  -27   11   19     -0.77      0.00
  -25   11   19     -0.52      0.00
  -23   11   19      1.56      0.00
  -21   11   19     -3.92      0.00
  -19   11   19      1.06      0.00
  -17   11   19      1.12      0.00
  -15   11   19     -2.99      0.00
  -13   11   19      1.61      0.00
  -11   11   19      2.21      0.00
   -9   11   19     -0.85      0.00
   -7   11   19      4.78      0.00
   -5   11   19     -1.10      0.00
   -3   11   19     -3.82      0.00
   -1   11   19     -4.25      0.00
    1   11   19      0.62      0.00
    3   11   19     -1.44      0.00
    5   11   19     -2.80      0.00
    7   11   19      2.43      0.00
    9   11   19     -1.33      0.00
   11   11   19     -4.41      0.00
   13   11   19     -2.30      0.00
   15   11   19     -0.08      0.00
   17   11   19     -1.45      0.00
   19   11   19      0.63      0.00
  -32   12   19     -2.09      0.00
  -30   12   19      0.91      0.00
  -28   12   19     -2.35      0.00
  -26   12   19      2.72      0.00
  -24   12   19     -0.07      0.00
  -22   12   19     -3.88      0.00
  -20   12   19      2.97      0.00
  -18   12   19      2.88      0.00
  -16   12   19      1.17      0.00
  -14   12   19     -0.32      0.00
  -12   12   19      0.20      0.00
  -10   12   19      0.99      0.00
   -8   12   19      1.18      0.00
   -6   12   19      2.72      0.00
   -4   12   19      1.73      0.00
   -2   12   19     -0.83      0.00
    0   12   19      1.17      0.00
    2   12   19     -0.77      0.00
    4   12   19      3.01      0.00
    6   12   19     -2.00      0.00
    8   12   19     -1.19      0.00
   10   12   19     -0.99      0.00
   12   12   19      1.56      0.00
   14   12   19     -1.84      0.00
   16   12   19     -1.38      0.00
   18   12   19     -2.12      0.00
  -29   13   19     -2.95      0.00
  -27   13   19     -1.92      0.00
  -25   13   19     -0.38      0.00
  -23   13   19     -0.79      0.00
  -21   13   19      0.36      0.00
  -19   13   19      0.23      0.00
  -17   13   19      1.38      0.00
  -15   13   19     -0.59      0.00
  -13   13   19      0.76      0.00
  -11   13   19     -1.98      0.00
   -9   13   19     -1.28      0.00
   -7   13   19     -2.68      0.00
   -5   13   19     -1.39      0.00
   -3   13   19     -4.42      0.00
   -1   13   19      2.70      0.00
    1   13   19      4.52      0.00
    3   13   19     -3.47      0.00
    5   13   19      0.83      0.00
    7   13   19      6.70      0.00
    9   13   19      4.72      0.00
   11   13   19      4.56      0.00
   13   13   19     -1.30      0.00
   15   13   19     -5.82      0.00
   17   13   19      0.62      0.00
  -28   14   19      0.36      0.00
  -26   14   19      0.02      0.00
  -24   14   19      0.07      0.00
  -22   14   19      0.11      0.00
  -20   14   19     -4.57      0.00
  -18   14   19     -3.79      0.00
  -16   14   19     -3.14      0.00
  -14   14   19      0.49      0.00
  -12   14   19      2.41      0.00
  -10   14   19     -3.88      0.00
   -8   14   19     -5.94      0.00
   -6   14   19      7.63      0.00
   -4   14   19      4.10      0.00
   -2   14   19      1.57      0.00
    0   14   19     -0.38      0.00
    2   14   19      1.50      0.00
    4   14   19      3.96      0.00
    6   14   19      5.54      0.00
    8   14   19      3.08      0.00
   10   14   19      4.86      0.00
   12   14   19      4.52      0.00
   14   14   19      2.20      0.00
   16   14   19      1.84      0.00
  -25   15   19      1.03      0.00
  -23   15   19     -3.68      0.00
  -21   15   19     -2.69      0.00
  -19   15   19      3.08      0.00
  -17   15   19     -0.04      0.00
  -15   15   19      2.24      0.00
  -13   15   19      2.64      0.00
  -11   15   19      2.19      0.00
   -9   15   19      1.16      0.00
   -7   15   19      3.23      0.00
   -5   15   19     -3.05      0.00
   -3   15   19     -4.34      0.00
   -1   15   19     -0.31      0.00
    1   15   19     -0.25      0.00
    3   15   19     -2.09      0.00
    5   15   19     -1.75      0.00
    7   15   19     -1.76      0.00
    9   15   19     -3.03      0.00
   11   15   19      2.10      0.00
   13   15   19     -2.12      0.00
  -24   16   19      2.09      0.00
  -22   16   19     -0.56      0.00
  -20   16   19     -5.44      0.00
  -18   16   19      0.43      0.00
  -16   16   19      3.43      0.00
  -14   16   19      0.44      0.00
  -12   16   19     -2.62      0.00
  -10   16   19     -0.21      0.00
   -8   16   19     -2.87      0.00
   -6   16   19     -6.05      0.00
   -4   16   19     -3.75      0.00
   -2   16   19     -3.87      0.00
    0   16   19     -2.23      0.00
    2   16   19     -0.65      0.00
    4   16   19     -1.20      0.00
    6   16   19     -4.88      0.00
    8   16   19      4.72      0.00
   10   16   19     -3.61      0.00
  -21   17   19     -1.75      0.00
  -19   17   19      0.74      0.00
  -17   17   19     -3.61      0.00
  -15   17   19     -0.81      0.00
  -13   17   19     -0.89      0.00
  -11   17   19      2.48      0.00
   -9   17   19     -0.29      0.00
   -7   17   19     -0.81      0.00
   -5   17   19     -3.75      0.00
   -3   17   19     -3.45      0.00
   -1   17   19     -2.07      0.00
    1   17   19     -2.97      0.00
    3   17   19     -3.39      0.00
    5   17   19      0.82      0.00
    7   17   19     -7.98      0.00
  -16   18   19      0.37      0.00
  -14   18   19     -2.12      0.00
  -12   18   19      0.09      0.00
  -10   18   19     -2.64      0.00
   -8   18   19     -2.35      0.00
   -6   18   19      0.97      0.00
   -4   18   19     -1.93      0.00
   -2   18   19      0.54      0.00
    0   18   19      4.74      0.00
    2   18   19      2.86      0.00
    4   18   19     -4.39      0.00
  -38    0   20     -5.63      0.00
  -36    0   20     -1.69      0.00
  -34    0   20     -2.12      0.00
  -32    0   20     -0.26      0.00
  -30    0   20      1.45      0.00
  -28    0   20      3.65      0.00
  -26    0   20      4.41      0.00
  -24    0   20      4.69      0.00
  -22    0   20      2.46      0.00
  -20    0   20      1.29      0.00
  -18    0   20     -0.69      0.00
  -16    0   20     -3.97      0.00
  -14    0   20      0.86      0.00
  -12    0   20      7.62      0.00
  -10    0   20     -5.27      0.00
   -8    0   20     -1.29      0.00
   -6    0   20     -9.66      0.00
   -4    0   20     10.79      0.00
   -2    0   20      1.35      0.00
    0    0   20      4.05      0.00
    2    0   20     -8.37      0.00
    4    0   20     12.75      0.00
    6    0   20     -1.50      0.00
    8    0   20      1.07      0.00
   10    0   20      6.30      0.00
   12    0   20     -1.62      0.00
   14    0   20     -1.24      0.00
   16    0   20     -3.34      0.00
   18    0   20      2.32      0.00
   20    0   20      6.50      0.00
   22    0   20      1.76      0.00
   24    0   20     -3.24      0.00
  -39    1   20      2.18      0.00
  -37    1   20      1.91      0.00
  -35    1   20      2.40      0.00
  -33    1   20     -0.86      0.00
  -31    1   20      1.91      0.00
  -29    1   20      1.17      0.00
  -27    1   20     -1.33      0.00
  -25    1   20      1.48      0.00
  -23    1   20     -1.75      0.00
  -21    1   20      1.07      0.00
  -19    1   20     -1.88      0.00
  -17    1   20     -0.33      0.00
  -15    1   20     -3.02      0.00
  -13    1   20     -1.92      0.00
  -11    1   20     -3.09      0.00
   -9    1   20     -0.54      0.00
   -7    1   20      7.88      0.00
   -5    1   20     -0.10      0.00
   -3    1   20     -2.18      0.00
   -1    1   20      4.29      0.00
    1    1   20      1.27      0.00
    3    1   20      2.87      0.00
    5    1   20      4.73      0.00
    7    1   20     -3.40      0.00
    9    1   20      3.92      0.00
   11    1   20     -2.11      0.00
   13    1   20      1.43      0.00
   15    1   20     -3.45      0.00
   17    1   20     -1.44      0.00
   19    1   20      1.53      0.00
   21    1   20      4.91      0.00
   23    1   20      1.73      0.00
   25    1   20      1.76      0.00
  -38    2   20      5.37      0.00
  -36    2   20     -0.98      0.00
  -34    2   20     -2.58      0.00
  -32    2   20     -0.28      0.00
  -30    2   20      2.34      0.00
  -28    2   20      3.74      0.00
  -26    2   20      0.56      0.00
  -24    2   20      3.39      0.00
  -22    2   20     -0.30      0.00
  -20    2   20      1.08      0.00
  -18    2   20     -0.04      0.00
  -16    2   20     -4.16      0.00
  -14    2   20     -4.35      0.00
  -12    2   20     -3.42      0.00
  -10    2   20     -6.70      0.00
   -8    2   20      5.22      0.00
   -6    2   20     -1.24      0.00
   -4    2   20      1.46      0.00
   -2    2   20     -3.27      0.00
    0    2   20      4.85      0.00
    2    2   20    -11.07      0.00
    4    2   20      6.22      0.00
    6    2   20     -2.97      0.00
    8    2   20     -1.89      0.00
   10    2   20     -1.63      0.00
   12    2   20     -1.72      0.00
   14    2   20     -1.12      0.00
   16    2   20      2.48      0.00
   18    2   20      3.39      0.00
   20    2   20      2.38      0.00
   22    2   20      0.45      0.00
   24    2   20      0.08      0.00
  -37    3   20      1.09      0.00
  -35    3   20      1.73      0.00
  -33    3   20     -0.97      0.00
  -31    3   20     -2.18      0.00
  -29    3   20     11.38      0.00
  -27    3   20      0.21      0.00
  -25    3   20      3.96      0.00
  -23    3   20      0.63      0.00
  -21    3   20      0.44      0.00
  -19    3   20     -2.36      0.00
  -17    3   20      1.49      0.00
  -15    3   20      4.34      0.00
  -13    3   20     11.12      0.00
  -11    3   20      6.15      0.00
   -9    3   20      0.66      0.00
   -7    3   20      2.33      0.00
   -5    3   20      1.49      0.00
   -3    3   20      5.37      0.00
   -1    3   20      5.44      0.00
    1    3   20     -0.19      0.00
    3    3   20      1.55      0.00
    5    3   20      3.82      0.00
    7    3   20      0.39      0.00
    9    3   20     -0.38      0.00
   11    3   20     -3.06      0.00
   13    3   20     -0.29      0.00
   15    3   20     -0.07      0.00
   17    3   20     -0.39      0.00
   19    3   20     -0.03      0.00
   21    3   20      3.04      0.00
   23    3   20      0.50      0.00
   25    3   20     -0.99      0.00
  -38    4   20     -0.16      0.00
  -36    4   20     -0.58      0.00
  -34    4   20      0.09      0.00
  -32    4   20      0.18      0.00
  -30    4   20     -0.35      0.00
  -28    4   20     -2.63      0.00
  -26    4   20      0.81      0.00
  -24    4   20     -1.57      0.00
  -22    4   20     -2.80      0.00
  -20    4   20      3.25      0.00
  -18    4   20     -0.13      0.00
  -16    4   20     -2.43      0.00
  -14    4   20     -5.62      0.00
  -12    4   20     -6.30      0.00
  -10    4   20     -6.73      0.00
   -8    4   20      4.47      0.00
   -6    4   20      2.84      0.00
   -4    4   20      0.94      0.00
   -2    4   20     -6.40      0.00
    0    4   20      2.84      0.00
    2    4   20      0.19      0.00
    4    4   20      2.95      0.00
    6    4   20     -3.40      0.00
    8    4   20      2.82      0.00
   10    4   20     -1.27      0.00
   12    4   20     -1.47      0.00
   14    4   20      0.54      0.00
   16    4   20     -2.34      0.00
   18    4   20     -1.02      0.00
   20    4   20     -1.27      0.00
   22    4   20      2.01      0.00
   24    4   20     -0.79      0.00
  -37    5   20     -0.16      0.00
  -35    5   20     -0.16      0.00
  -33    5   20      0.83      0.00
  -31    5   20     -0.37      0.00
  -29    5   20     -7.52      0.00
  -27    5   20     -1.20      0.00
  -25    5   20      1.86      0.00
  -23    5   20     -0.02      0.00
  -21    5   20      1.74      0.00
  -19    5   20      2.72      0.00
  -17    5   20      3.18      0.00
  -15    5   20      2.05      0.00
  -13    5   20      1.55      0.00
  -11    5   20      7.13      0.00
   -9    5   20      4.76      0.00
   -7    5   20      1.08      0.00
   -5    5   20      5.02      0.00
   -3    5   20      0.67      0.00
   -1    5   20     -1.84      0.00
    1    5   20      0.12      0.00
    3    5   20      0.48      0.00
    5    5   20      1.80      0.00
    7    5   20     -1.82      0.00
    9    5   20      5.06      0.00
   11    5   20     -0.18      0.00
   13    5   20     -2.36      0.00
   15    5   20      3.39      0.00
   17    5   20      0.42      0.00
   19    5   20     -1.59      0.00
   21    5   20      1.25      0.00
   23    5   20      2.42      0.00
  -36    6   20      3.28      0.00
  -34    6   20     -0.04      0.00
  -32    6   20      1.46      0.00
  -30    6   20     -0.97      0.00
  -28    6   20     -0.86      0.00
  -26    6   20      0.12      0.00
  -24    6   20      0.34      0.00
  -22    6   20      1.72      0.00
  -20    6   20     -5.02      0.00
  -18    6   20     -5.33      0.00
  -16    6   20     -1.68      0.00
  -14    6   20      2.03      0.00
  -12    6   20     -0.17      0.00
  -10    6   20     -7.87      0.00
   -8    6   20     -1.15      0.00
   -6    6   20     -1.33      0.00
   -4    6   20     -4.22      0.00
   -2    6   20     -0.07      0.00
    0    6   20      4.99      0.00
    2    6   20     -1.46      0.00
    4    6   20      5.64      0.00
    6    6   20     -1.20      0.00
    8    6   20      2.05      0.00
   10    6   20     -4.39      0.00
   12    6   20      1.62      0.00
   14    6   20      0.38      0.00
   16    6   20     -2.50      0.00
   18    6   20      0.17      0.00
   20    6   20      0.10      0.00
   22    6   20      2.73      0.00
   24    6   20     -0.67      0.00
  -35    7   20      2.99      0.00
  -33    7   20     -3.66      0.00
  -31    7   20      3.09      0.00
  -29    7   20      1.97      0.00
  -27    7   20      1.10      0.00
  -25    7   20      6.13      0.00
  -23    7   20     -0.26      0.00
  -21    7   20      1.41      0.00
  -19    7   20      0.90      0.00
  -17    7   20      0.45      0.00
  -15    7   20     -1.16      0.00
  -13    7   20     -1.91      0.00
  -11    7   20     -0.59      0.00
   -9    7   20      6.33      0.00
   -7    7   20      2.88      0.00
   -5    7   20      2.69      0.00
   -3    7   20     -7.59      0.00
   -1    7   20     -1.61      0.00
    1    7   20      5.77      0.00
    3    7   20      0.32      0.00
    5    7   20     -0.39      0.00
    7    7   20     -1.47      0.00
    9    7   20     -0.94      0.00
   11    7   20      1.89      0.00
   13    7   20      8.05      0.00
   15    7   20      0.44      0.00
   17    7   20      2.42      0.00
   19    7   20     -1.21      0.00
   21    7   20     -4.84      0.00
   23    7   20     -3.68      0.00
  -34    8   20      1.10      0.00
  -32    8   20      3.12      0.00
  -30    8   20      0.90      0.00
  -28    8   20     -3.14      0.00
  -26    8   20      2.04      0.00
  -24    8   20     -1.60      0.00
  -22    8   20      1.45      0.00
  -20    8   20     -2.48      0.00
  -18    8   20      1.84      0.00
  -16    8   20      2.42      0.00
  -14    8   20      1.06      0.00
  -12    8   20      4.81      0.00
  -10    8   20     -0.49      0.00
   -8    8   20     -3.36      0.00
   -6    8   20     -0.22      0.00
   -4    8   20      3.60      0.00
   -2    8   20     -0.10      0.00
    0    8   20      3.48      0.00
    2    8   20     -2.10      0.00
    4    8   20      2.62      0.00
    6    8   20     -2.05      0.00
    8    8   20      3.56      0.00
   10    8   20     -1.65      0.00
   14    8   20      2.89      0.00
   16    8   20      2.83      0.00
   18    8   20      2.78      0.00
   20    8   20      5.22      0.00
   22    8   20      2.65      0.00
  -35    9   20     -0.11      0.00
  -33    9   20      0.32      0.00
  -31    9   20      2.75      0.00
  -29    9   20      1.43      0.00
  -27    9   20      1.38      0.00
  -25    9   20      1.19      0.00
  -23    9   20     -2.65      0.00
  -21    9   20      1.03      0.00
  -19    9   20     -2.80      0.00
  -17    9   20     -3.90      0.00
  -15    9   20      0.92      0.00
  -13    9   20     -4.14      0.00
  -11    9   20      4.14      0.00
   -9    9   20     -0.42      0.00
   -7    9   20     -1.33      0.00
   -5    9   20     -4.34      0.00
   -3    9   20     -3.36      0.00
   -1    9   20     -2.12      0.00
    1    9   20     -1.48      0.00
    3    9   20      1.14      0.00
    5    9   20     -1.53      0.00
    7    9   20     -1.34      0.00
    9    9   20      2.12      0.00
   13    9   20      5.99      0.00
   15    9   20     -0.84      0.00
   17    9   20     -2.21      0.00
   19    9   20     -0.72      0.00
   21    9   20     -1.50      0.00
  -34   10   20     -0.10      0.00
  -32   10   20      2.56      0.00
  -30   10   20     -0.29      0.00
  -28   10   20      1.07      0.00
  -26   10   20     -1.15      0.00
  -24   10   20     -2.07      0.00
  -22   10   20     -2.36      0.00
  -20   10   20      0.46      0.00
  -18   10   20      1.67      0.00
  -16   10   20      0.54      0.00
  -14   10   20      0.98      0.00
  -12   10   20     -1.11      0.00
  -10   10   20     -1.57      0.00
   -8   10   20     -0.22      0.00
   -6   10   20     -2.04      0.00
   -4   10   20     -0.94      0.00
   -2   10   20     -6.61      0.00
    0   10   20      2.37      0.00
    2   10   20      1.38      0.00
    4   10   20     -4.02      0.00
    6   10   20      1.89      0.00
    8   10   20      1.85      0.00
   10   10   20     -5.17      0.00
   12   10   20      0.48      0.00
   14   10   20     -0.76      0.00
   16   10   20      0.60      0.00
   18   10   20      1.44      0.00
   20   10   20      0.10      0.00
  -31   11   20     -1.61      0.00
  -29   11   20      0.91      0.00
  -27   11   20     -2.47      0.00
  -25   11   20      0.27      0.00
  -23   11   20     -6.84      0.00
  -21   11   20      1.06      0.00
  -19   11   20      0.90      0.00
  -17   11   20     -1.97      0.00
  -15   11   20     -3.01      0.00
  -13   11   20      1.41      0.00
  -11   11   20      1.43      0.00
   -9   11   20     -0.07      0.00
   -7   11   20     -2.10      0.00
   -5   11   20      1.21      0.00
   -3   11   20     -0.96      0.00
   -1   11   20     -0.92      0.00
    1   11   20     -1.23      0.00
    3   11   20      0.36      0.00
    5   11   20     -0.18      0.00
    7   11   20     -0.98      0.00
    9   11   20      0.31      0.00
   11   11   20      1.97      0.00
   13   11   20      1.25      0.00
   15   11   20     -0.44      0.00
   17   11   20     -4.75      0.00
   19   11   20     -0.41      0.00
  -30   12   20      1.17      0.00
  -28   12   20      1.61      0.00
  -26   12   20      0.16      0.00
  -24   12   20      0.00      0.00
  -22   12   20      4.37      0.00
  -20   12   20      2.12      0.00
  -18   12   20      2.24      0.00
  -16   12   20      5.14      0.00
  -14   12   20     -1.63      0.00
  -12   12   20      3.93      0.00
  -10   12   20      1.14      0.00
   -8   12   20     -3.89      0.00
   -6   12   20     -2.45      0.00
   -4   12   20      1.60      0.00
   -2   12   20      3.09      0.00
    0   12   20      2.47      0.00
    2   12   20      0.01      0.00
    4   12   20     -2.25      0.00
    6   12   20     -2.07      0.00
    8   12   20     -3.07      0.00
   10   12   20     -0.84      0.00
   12   12   20     -4.38      0.00
   14   12   20     -6.24      0.00
   16   12   20      1.79      0.00
   18   12   20      2.90      0.00
  -29   13   20      0.56      0.00
  -27   13   20      0.35      0.00
  -25   13   20     -0.84      0.00
  -23   13   20      0.91      0.00
  -21   13   20     -0.52      0.00
  -19   13   20     -2.28      0.00
  -17   13   20     -1.31      0.00
  -15   13   20      0.44      0.00
  -13   13   20     -2.23      0.00
  -11   13   20      2.92      0.00
   -9   13   20     -2.49      0.00
   -7   13   20     -0.65      0.00
   -5   13   20      0.68      0.00
   -3   13   20     -3.82      0.00
   -1   13   20     -6.27      0.00
    1   13   20     -0.04      0.00
    3   13   20      2.19      0.00
    5   13   20      6.04      0.00
    7   13   20      1.08      0.00
    9   13   20      0.05      0.00
   11   13   20      6.79      0.00
   13   13   20      0.09      0.00
   15   13   20      1.92      0.00
  -26   14   20      2.91      0.00
  -24   14   20      1.01      0.00
  -22   14   20      1.28      0.00
  -20   14   20      0.69      0.00
  -18   14   20     -0.50      0.00
  -16   14   20      0.91      0.00
  -14   14   20      2.85      0.00
  -12   14   20      0.49      0.00
  -10   14   20     -1.09      0.00
   -8   14   20      0.95      0.00
   -6   14   20     -0.48      0.00
   -4   14   20      1.20      0.00
   -2   14   20      0.86      0.00
    0   14   20     -3.29      0.00
    2   14   20      2.27      0.00
    4   14   20      0.69      0.00
    6   14   20     -2.25      0.00
    8   14   20     -1.91      0.00
   10   14   20     -5.55      0.00
   12   14   20      2.00      0.00
   14   14   20      4.97      0.00
  -25   15   20      0.53      0.00
  -23   15   20      1.43      0.00
  -21   15   20      1.92      0.00
  -19   15   20      0.48      0.00
  -17   15   20      0.61      0.00
  -15   15   20     -5.55      0.00
  -13   15   20     -4.44      0.00
  -11   15   20      9.36      0.00
   -9   15   20      2.25      0.00
   -7   15   20     -4.47      0.00
   -5   15   20     -1.25      0.00
   -3   15   20     -0.28      0.00
   -1   15   20     -5.71      0.00
    1   15   20     -2.55      0.00
    3   15   20     -0.03      0.00
    5   15   20     -1.31      0.00
    7   15   20     -1.27      0.00
    9   15   20      1.77      0.00
   11   15   20      4.19      0.00
  -22   16   20     -1.51      0.00
  -20   16   20      2.10      0.00
  -18   16   20     -2.19      0.00
  -16   16   20      2.28      0.00
  -14   16   20      1.56      0.00
  -12   16   20     -1.23      0.00
  -10   16   20     -3.45      0.00
   -8   16   20     -1.28      0.00
   -6   16   20     -2.55      0.00
   -4   16   20     -0.36      0.00
   -2   16   20      0.29      0.00
    0   16   20     -0.82      0.00
    2   16   20      0.27      0.00
    4   16   20      3.25      0.00
    6   16   20      2.09      0.00
    8   16   20      0.26      0.00
  -19   17   20     -0.58      0.00
  -17   17   20     -2.11      0.00
  -15   17   20     -5.31      0.00
  -13   17   20      1.96      0.00
  -11   17   20     -0.20      0.00
   -9   17   20      0.68      0.00
   -7   17   20      5.07      0.00
   -5   17   20      1.34      0.00
   -3   17   20      2.09      0.00
   -1   17   20      1.24      0.00
    1   17   20     -0.16      0.00
    3   17   20     -2.29      0.00
    5   17   20      4.86      0.00
  -14   18   20      0.65      0.00
  -12   18   20     -1.08      0.00
  -10   18   20     -2.09      0.00
   -8   18   20      2.48      0.00
   -6   18   20      3.70      0.00
   -4   18   20      0.82      0.00
   -2   18   20      0.43      0.00
    0   18   20     -1.57      0.00
  -37    1   21     -1.46      0.00
  -35    1   21      0.69      0.00
  -33    1   21     -0.74      0.00
  -31    1   21      2.08      0.00
  -29    1   21      4.16      0.00
  -27    1   21      1.23      0.00
  -25    1   21      3.09      0.00
  -23    1   21      3.36      0.00
  -21    1   21      0.18      0.00
  -19    1   21      4.28      0.00
  -17    1   21      0.29      0.00
  -15    1   21      3.10      0.00
  -13    1   21     -0.61      0.00
  -11    1   21     -2.91      0.00
   -9    1   21      0.20      0.00
   -7    1   21      4.51      0.00
   -5    1   21      0.70      0.00
   -3    1   21     -3.70      0.00
   -1    1   21     -1.79      0.00
    1    1   21     -5.37      0.00
    3    1   21      2.91      0.00
    5    1   21      2.76      0.00
    7    1   21     -0.26      0.00
    9    1   21     -7.21      0.00
   11    1   21     -3.26      0.00
   13    1   21      0.48      0.00
   15    1   21      1.22      0.00
   17    1   21      0.45      0.00
   19    1   21     -0.45      0.00
   21    1   21      1.22      0.00
   23    1   21     -1.31      0.00
  -38    2   21      0.33      0.00
  -36    2   21     -2.74      0.00
  -34    2   21     -4.48      0.00
  -32    2   21     -3.38      0.00
  -30    2   21     -2.19      0.00
  -28    2   21      0.15      0.00
  -26    2   21      3.15      0.00
  -24    2   21      1.02      0.00
  -22    2   21     -0.04      0.00
  -20    2   21     -0.37      0.00
  -18    2   21      0.14      0.00
  -16    2   21      0.17      0.00
  -14    2   21      1.13      0.00
  -12    2   21      0.41      0.00
  -10    2   21     -1.58      0.00
   -8    2   21     -4.83      0.00
   -6    2   21     -4.04      0.00
   -4    2   21      1.05      0.00
   -2    2   21      2.30      0.00
    0    2   21      0.08      0.00
    2    2   21      2.72      0.00
    4    2   21     -1.71      0.00
    6    2   21      0.97      0.00
    8    2   21     -1.49      0.00
   10    2   21     -2.59      0.00
   12    2   21     -1.75      0.00
   14    2   21      0.20      0.00
   16    2   21     -0.68      0.00
   18    2   21      0.15      0.00
   20    2   21     -2.79      0.00
   22    2   21     -1.92      0.00
   24    2   21      3.08      0.00
  -37    3   21      0.50      0.00
  -35    3   21      4.91      0.00
  -33    3   21     -0.24      0.00
  -31    3   21     -4.55      0.00
  -29    3   21     -1.30      0.00
  -27    3   21      2.34      0.00
  -25    3   21      1.99      0.00
  -23    3   21     -0.95      0.00
  -21    3   21      1.34      0.00
  -19    3   21     -1.46      0.00
  -17    3   21     -1.08      0.00
  -15    3   21      3.02      0.00
  -13    3   21      1.22      0.00
  -11    3   21      0.44      0.00
   -9    3   21     -1.14      0.00
   -7    3   21      2.81      0.00
   -5    3   21     -1.35      0.00
   -3    3   21     -2.20      0.00
   -1    3   21      3.28      0.00
    1    3   21     12.00      0.00
    3    3   21      8.08      0.00
    5    3   21      0.62      0.00
    7    3   21      4.46      0.00
    9    3   21      0.23      0.00
   11    3   21      2.91      0.00
   13    3   21      2.17      0.00
   15    3   21      0.03      0.00
   17    3   21     -1.81      0.00
   19    3   21     -2.86      0.00
   21    3   21      1.55      0.00
   23    3   21     -2.73      0.00
  -36    4   21     -0.68      0.00
  -34    4   21      1.39      0.00
  -32    4   21      2.50      0.00
  -30    4   21     -0.97      0.00
  -28    4   21      0.84      0.00
  -26    4   21     -0.93      0.00
  -24    4   21      3.11      0.00
  -22    4   21     -2.72      0.00
  -20    4   21      0.86      0.00
  -18    4   21      2.98      0.00
  -16    4   21      0.84      0.00
  -14    4   21     -0.10      0.00
  -12    4   21     -2.06      0.00
  -10    4   21     -6.03      0.00
   -8    4   21     -4.08      0.00
   -6    4   21     -1.57      0.00
   -4    4   21      4.02      0.00
   -2    4   21      3.79      0.00
    0    4   21      4.44      0.00
    2    4   21      1.39      0.00
    4    4   21      0.59      0.00
    6    4   21     -4.57      0.00
    8    4   21      0.24      0.00
   10    4   21     -0.73      0.00
   12    4   21     -0.90      0.00
   14    4   21      0.19      0.00
   16    4   21     -1.51      0.00
   18    4   21      0.28      0.00
   20    4   21     -3.19      0.00
   22    4   21      0.05      0.00
  -37    5   21      1.33      0.00
  -35    5   21     -0.92      0.00
  -33    5   21     -0.44      0.00
  -31    5   21      0.84      0.00
  -29    5   21     -1.46      0.00
  -27    5   21      9.03      0.00
  -25    5   21      3.01      0.00
  -23    5   21      1.36      0.00
  -21    5   21      1.87      0.00
  -19    5   21      1.82      0.00
  -17    5   21     -2.88      0.00
  -15    5   21      2.62      0.00
  -13    5   21      1.72      0.00
  -11    5   21     -1.22      0.00
   -9    5   21     -0.76      0.00
   -7    5   21     -1.93      0.00
   -5    5   21     -6.33      0.00
   -3    5   21     -4.42      0.00
   -1    5   21      6.54      0.00
    1    5   21     -3.34      0.00
    3    5   21      7.32      0.00
    5    5   21     -5.78      0.00
    7    5   21      4.75      0.00
    9    5   21      2.46      0.00
   11    5   21      0.51      0.00
   13    5   21     -4.68      0.00
   15    5   21      0.85      0.00
   17    5   21      1.69      0.00
   19    5   21     -3.02      0.00
   21    5   21     -1.75      0.00
   23    5   21     -0.64      0.00
  -36    6   21      0.20      0.00
  -34    6   21     -1.62      0.00
  -32    6   21     -0.78      0.00
  -30    6   21      0.73      0.00
  -28    6   21      1.16      0.00
  -26    6   21     -0.38      0.00
  -24    6   21      3.96      0.00
  -22    6   21      0.20      0.00
  -20    6   21     -1.44      0.00
  -18    6   21      4.23      0.00
  -16    6   21      4.75      0.00
  -14    6   21      1.41      0.00
  -12    6   21     -5.11      0.00
  -10    6   21     -6.91      0.00
   -8    6   21      2.80      0.00
   -6    6   21     -1.48      0.00
   -4    6   21      5.48      0.00
   -2    6   21      3.93      0.00
    0    6   21      0.43      0.00
    2    6   21      5.10      0.00
    4    6   21      0.47      0.00
    6    6   21     -3.72      0.00
    8    6   21     -2.43      0.00
   10    6   21     -1.47      0.00
   12    6   21      3.34      0.00
   14    6   21      0.87      0.00
   16    6   21     -2.05      0.00
   18    6   21     -3.18      0.00
   20    6   21     -1.29      0.00
   22    6   21     -2.00      0.00
  -35    7   21      0.02      0.00
  -33    7   21     -4.24      0.00
  -31    7   21     -2.33      0.00
  -29    7   21     -4.05      0.00
  -27    7   21     -3.16      0.00
  -25    7   21      0.33      0.00
  -23    7   21     -2.37      0.00
  -21    7   21      1.89      0.00
  -19    7   21      3.34      0.00
  -17    7   21     -1.24      0.00
  -15    7   21     -0.12      0.00
  -13    7   21     -2.13      0.00
  -11    7   21     -2.36      0.00
   -9    7   21     -2.29      0.00
   -7    7   21      1.67      0.00
   -5    7   21      0.48      0.00
   -3    7   21     -3.37      0.00
   -1    7   21      1.04      0.00
    1    7   21     -1.82      0.00
    3    7   21      6.42      0.00
    5    7   21     -4.77      0.00
    7    7   21      1.23      0.00
    9    7   21      3.20      0.00
   11    7   21      1.48      0.00
   13    7   21      5.15      0.00
   15    7   21      4.93      0.00
   17    7   21      3.28      0.00
   19    7   21     -2.22      0.00
   21    7   21     -2.12      0.00
  -34    8   21      4.69      0.00
  -32    8   21     -0.43      0.00
  -30    8   21     -0.62      0.00
  -28    8   21      1.08      0.00
  -26    8   21     -0.83      0.00
  -24    8   21      1.74      0.00
  -22    8   21      1.15      0.00
  -20    8   21      2.67      0.00
  -18    8   21      1.05      0.00
  -16    8   21      5.25      0.00
  -14    8   21     -0.22      0.00
  -12    8   21     -2.43      0.00
  -10    8   21     -1.38      0.00
   -8    8   21      2.02      0.00
   -6    8   21     -1.00      0.00
   -4    8   21      3.47      0.00
   -2    8   21     -1.43      0.00
    0    8   21      0.63      0.00
    2    8   21      1.87      0.00
    4    8   21     -1.48      0.00
    6    8   21     -6.92      0.00
    8    8   21      2.24      0.00
   10    8   21     -1.03      0.00
   14    8   21     -3.27      0.00
   16    8   21     -3.50      0.00
   18    8   21     -5.57      0.00
   20    8   21      2.15      0.00
  -33    9   21     -2.08      0.00
  -31    9   21     -1.68      0.00
  -29    9   21      0.24      0.00
  -27    9   21     -3.13      0.00
  -25    9   21      1.34      0.00
  -23    9   21     -1.53      0.00
  -21    9   21     -1.76      0.00
  -19    9   21     -0.46      0.00
  -17    9   21      1.72      0.00
  -15    9   21      1.24      0.00
  -13    9   21     -4.56      0.00
  -11    9   21     -5.42      0.00
   -9    9   21     -0.64      0.00
   -7    9   21      4.89      0.00
   -5    9   21      2.72      0.00
   -3    9   21     -1.65      0.00
   -1    9   21     -5.65      0.00
    1    9   21     -3.37      0.00
    3    9   21      3.68      0.00
    5    9   21     -0.20      0.00
    7    9   21      0.86      0.00
    9    9   21     -2.61      0.00
   11    9   21     -3.04      0.00
   13    9   21     -4.67      0.00
   15    9   21     -3.59      0.00
   17    9   21     -2.70      0.00
   19    9   21      6.40      0.00
  -32   10   21      0.56      0.00
  -30   10   21      0.70      0.00
  -28   10   21      0.89      0.00
  -26   10   21      2.22      0.00
  -24   10   21     -0.44      0.00
  -22   10   21     -0.02      0.00
  -20   10   21      0.28      0.00
  -18   10   21      2.03      0.00
  -16   10   21     -1.23      0.00
  -14   10   21     -1.44      0.00
  -12   10   21     -5.14      0.00
  -10   10   21     -0.71      0.00
   -8   10   21      0.07      0.00
   -6   10   21      1.22      0.00
   -4   10   21      1.43      0.00
   -2   10   21      1.11      0.00
    0   10   21      3.53      0.00
    2   10   21     -0.04      0.00
    4   10   21     -2.84      0.00
    6   10   21      2.45      0.00
    8   10   21      2.41      0.00
   10   10   21      0.29      0.00
   12   10   21     -0.48      0.00
   14   10   21     -1.63      0.00
   16   10   21     -1.83      0.00
   18   10   21      1.37      0.00
  -31   11   21     -0.43      0.00
  -29   11   21      0.90      0.00
  -27   11   21     -2.51      0.00
  -25   11   21      2.49      0.00
  -23   11   21      1.08      0.00
  -21   11   21      0.59      0.00
  -19   11   21     -0.44      0.00
  -17   11   21     -1.91      0.00
  -15   11   21     -0.62      0.00
  -13   11   21      1.56      0.00
  -11   11   21     -2.39      0.00
   -9   11   21     -4.71      0.00
   -7   11   21      0.78      0.00
   -5   11   21      3.35      0.00
   -3   11   21      1.81      0.00
   -1   11   21     -0.19      0.00
    1   11   21     -3.93      0.00
    3   11   21     -2.48      0.00
    5   11   21     -6.36      0.00
    7   11   21     -1.37      0.00
    9   11   21     -2.19      0.00
   11   11   21     -5.80      0.00
   13   11   21     -3.96      0.00
   15   11   21      4.60      0.00
   17   11   21     -1.63      0.00
  -30   12   21     -0.67      0.00
  -28   12   21      2.08      0.00
  -26   12   21      2.34      0.00
  -24   12   21      4.28      0.00
  -22   12   21     -0.56      0.00
  -20   12   21     -4.43      0.00
  -18   12   21      4.43      0.00
  -16   12   21      6.14      0.00
  -14   12   21      1.15      0.00
  -12   12   21      1.92      0.00
  -10   12   21     -0.12      0.00
   -8   12   21     -2.39      0.00
   -6   12   21      1.00      0.00
   -4   12   21      0.98      0.00
   -2   12   21     -0.17      0.00
    0   12   21     -2.45      0.00
    2   12   21      1.70      0.00
    4   12   21     -0.94      0.00
    6   12   21     -1.14      0.00
    8   12   21     -2.56      0.00
   10   12   21     -1.41      0.00
   12   12   21      5.14      0.00
   14   12   21      2.21      0.00
   16   12   21      1.36      0.00
  -29   13   21      0.86      0.00
  -27   13   21     -2.02      0.00
  -25   13   21     -1.75      0.00
  -23   13   21     -0.43      0.00
  -21   13   21     -1.94      0.00
  -19   13   21     -2.76      0.00
  -17   13   21     -1.23      0.00
  -15   13   21      1.98      0.00
  -13   13   21     -2.91      0.00
  -11   13   21     -1.38      0.00
   -9   13   21     -0.05      0.00
   -7   13   21      2.05      0.00
   -5   13   21      0.23      0.00
   -3   13   21     -2.21      0.00
   -1   13   21     -1.42      0.00
    1   13   21      2.92      0.00
    3   13   21     -3.52      0.00
    5   13   21      2.49      0.00
    7   13   21      3.62      0.00
    9   13   21      1.50      0.00
   11   13   21      3.25      0.00
   13   13   21      3.04      0.00
   15   13   21     -2.10      0.00
  -26   14   21      1.25      0.00
  -24   14   21      0.36      0.00
  -22   14   21     -5.96      0.00
  -20   14   21     -3.56      0.00
  -18   14   21      0.24      0.00
  -16   14   21     -2.61      0.00
  -14   14   21     -0.56      0.00
  -12   14   21      3.59      0.00
  -10   14   21     -0.09      0.00
   -8   14   21     -0.34      0.00
   -6   14   21     -0.87      0.00
   -4   14   21      1.69      0.00
   -2   14   21     -3.81      0.00
    0   14   21     -4.34      0.00
    2   14   21      0.80      0.00
    4   14   21     -0.29      0.00
    6   14   21     -1.19      0.00
    8   14   21      1.07      0.00
   10   14   21     -6.03      0.00
   12   14   21      4.01      0.00
  -23   15   21     -0.93      0.00
  -21   15   21      0.24      0.00
  -19   15   21      1.20      0.00
  -17   15   21      2.69      0.00
  -15   15   21     -0.55      0.00
  -13   15   21     -1.66      0.00
  -11   15   21      0.07      0.00
   -9   15   21     -0.12      0.00
   -7   15   21     -0.60      0.00
   -5   15   21      2.66      0.00
   -3   15   21      1.65      0.00
   -1   15   21      1.92      0.00
    1   15   21     -1.07      0.00
    3   15   21      0.05      0.00
    5   15   21     -0.65      0.00
    7   15   21     -5.95      0.00
    9   15   21     -1.34      0.00
  -20   16   21     -4.08      0.00
  -18   16   21      0.91      0.00
  -16   16   21      1.03      0.00
  -14   16   21      1.71      0.00
  -12   16   21     -5.04      0.00
  -10   16   21     -0.79      0.00
   -8   16   21      4.38      0.00
   -6   16   21      2.40      0.00
   -4   16   21     -6.15      0.00
   -2   16   21     -2.78      0.00
    0   16   21     -0.45      0.00
    2   16   21     -0.98      0.00
    4   16   21      3.81      0.00
    6   16   21      3.72      0.00
  -17   17   21     -0.12      0.00
  -15   17   21     -2.42      0.00
  -13   17   21     -0.53      0.00
  -11   17   21      2.61      0.00
   -9   17   21      0.71      0.00
   -7   17   21      1.60      0.00
   -5   17   21      2.26      0.00
   -3   17   21      2.20      0.00
   -1   17   21     -2.92      0.00
    1   17   21      3.74      0.00
    3   17   21     -3.49      0.00
  -10   18   21      0.09      0.00
   -8   18   21     -0.68      0.00
   -6   18   21     -0.56      0.00
  -38    0   22     -0.04      0.00
  -36    0   22     -4.50      0.00
  -34    0   22     -3.63      0.00
  -32    0   22      1.65      0.00
  -30    0   22      0.76      0.00
  -28    0   22      2.45      0.00
  -26    0   22      3.22      0.00
  -24    0   22      7.68      0.00
  -22    0   22     -0.66      0.00
  -20    0   22      2.11      0.00
  -18    0   22     -1.60      0.00
  -16    0   22     -5.40      0.00
  -14    0   22     -1.67      0.00
  -12    0   22      0.53      0.00
  -10    0   22     -2.68      0.00
   -8    0   22      1.61      0.00
   -6    0   22      3.09      0.00
   -4    0   22      8.57      0.00
   -2    0   22      5.58      0.00
    0    0   22      5.75      0.00
    2    0   22     -2.72      0.00
    4    0   22      5.35      0.00
    6    0   22     -5.15      0.00
    8    0   22     -9.64      0.00
   10    0   22      1.23      0.00
   12    0   22      0.05      0.00
   14    0   22      0.61      0.00
   16    0   22      1.57      0.00
   18    0   22     -2.34      0.00
   20    0   22      0.57      0.00
   22    0   22     -0.44      0.00
  -37    1   22      3.62      0.00
  -33    1   22     -2.39      0.00
  -31    1   22     -0.04      0.00
  -29    1   22      3.27      0.00
  -27    1   22      0.73      0.00
  -25    1   22      2.03      0.00
  -23    1   22     -4.43      0.00
  -21    1   22     -1.97      0.00
  -19    1   22      2.61      0.00
  -17    1   22      3.12      0.00
  -15    1   22     -4.02      0.00
  -13    1   22     -0.79      0.00
  -11    1   22      2.01      0.00
   -9    1   22     -2.91      0.00
   -7    1   22      6.18      0.00
   -5    1   22     -2.49      0.00
   -3    1   22     -2.19      0.00
   -1    1   22     -0.04      0.00
    1    1   22      3.66      0.00
    3    1   22     -1.96      0.00
    5    1   22      4.12      0.00
    7    1   22     -2.41      0.00
    9    1   22      1.46      0.00
   11    1   22      3.17      0.00
   13    1   22      3.68      0.00
   15    1   22     -1.06      0.00
   17    1   22     -3.33      0.00
   19    1   22     -0.20      0.00
   21    1   22      1.44      0.00
   23    1   22      2.56      0.00
  -36    2   22     -1.60      0.00
  -34    2   22     -0.99      0.00
  -32    2   22     -2.59      0.00
  -30    2   22     -1.32      0.00
  -28    2   22      0.80      0.00
  -26    2   22     -2.06      0.00
  -24    2   22      3.83      0.00
  -22    2   22      0.26      0.00
  -20    2   22      0.27      0.00
  -18    2   22      0.41      0.00
  -16    2   22     -6.14      0.00
  -14    2   22     -5.69      0.00
  -12    2   22     -0.93      0.00
  -10    2   22     -6.97      0.00
   -8    2   22      1.33      0.00
   -6    2   22     -0.04      0.00
   -4    2   22      7.41      0.00
   -2    2   22      2.05      0.00
    0    2   22     13.54      0.00
    2    2   22     -5.32      0.00
    4    2   22     -0.39      0.00
    6    2   22     -1.65      0.00
    8    2   22     -0.02      0.00
   10    2   22      3.40      0.00
   12    2   22     -0.78      0.00
   14    2   22     -0.11      0.00
   16    2   22     -1.34      0.00
   18    2   22     -0.45      0.00
   20    2   22     -1.18      0.00
   22    2   22     -0.53      0.00
  -37    3   22      1.45      0.00
  -35    3   22      3.66      0.00
  -33    3   22      2.85      0.00
  -31    3   22      0.09      0.00
  -29    3   22     -1.86      0.00
  -27    3   22     -2.28      0.00
  -25    3   22      1.95      0.00
  -23    3   22      0.46      0.00
  -21    3   22      1.71      0.00
  -19    3   22      0.03      0.00
  -17    3   22      0.00      0.00
  -15    3   22      1.04      0.00
  -13    3   22      0.33      0.00
  -11    3   22      2.10      0.00
   -9    3   22     -2.95      0.00
   -7    3   22      2.27      0.00
   -5    3   22      1.05      0.00
   -3    3   22      5.51      0.00
   -1    3   22      2.55      0.00
    1    3   22     -1.59      0.00
    3    3   22     -1.72      0.00
    5    3   22      5.78      0.00
    7    3   22     -1.60      0.00
    9    3   22      3.62      0.00
   11    3   22     -0.21      0.00
   13    3   22     -0.98      0.00
   15    3   22      0.42      0.00
   17    3   22     -3.24      0.00
   19    3   22     -6.02      0.00
   21    3   22      4.23      0.00
   23    3   22      1.47      0.00
  -36    4   22     -2.13      0.00
  -34    4   22     -0.10      0.00
  -32    4   22      2.54      0.00
  -30    4   22      1.76      0.00
  -28    4   22      3.43      0.00
  -26    4   22     -1.88      0.00
  -24    4   22      1.35      0.00
  -22    4   22      0.40      0.00
  -20    4   22      1.32      0.00
  -18    4   22     -2.74      0.00
  -16    4   22     -2.36      0.00
  -14    4   22     -3.21      0.00
  -12    4   22     -4.01      0.00
  -10    4   22     -6.59      0.00
   -8    4   22     -1.90      0.00
   -6    4   22      1.47      0.00
   -4    4   22      2.74      0.00
   -2    4   22     -3.12      0.00
    0    4   22     -8.78      0.00
    2    4   22     -3.90      0.00
    4    4   22      0.61      0.00
    6    4   22     -1.48      0.00
    8    4   22      1.83      0.00
   10    4   22     -0.52      0.00
   12    4   22     -1.25      0.00
   14    4   22     -3.06      0.00
   16    4   22     -4.74      0.00
   18    4   22     -4.06      0.00
   20    4   22     -2.65      0.00
   22    4   22      1.99      0.00
  -35    5   22      2.15      0.00
  -33    5   22      0.56      0.00
  -31    5   22     -1.15      0.00
  -29    5   22     -3.55      0.00
  -27    5   22     -5.64      0.00
  -25    5   22      0.28      0.00
  -23    5   22      2.07      0.00
  -21    5   22     -2.53      0.00
  -19    5   22     -2.73      0.00
  -17    5   22     -0.98      0.00
  -15    5   22     -2.58      0.00
  -13    5   22      1.13      0.00
  -11    5   22      0.87      0.00
   -9    5   22      5.77      0.00
   -7    5   22      4.78      0.00
   -5    5   22      5.12      0.00
   -3    5   22     -2.40      0.00
   -1    5   22     -2.29      0.00
    1    5   22      0.79      0.00
    3    5   22     -2.54      0.00
    5    5   22      2.64      0.00
    7    5   22      1.28      0.00
    9    5   22      3.04      0.00
   11    5   22     -2.03      0.00
   13    5   22     -0.11      0.00
   15    5   22      5.22      0.00
   17    5   22      1.38      0.00
   19    5   22      0.19      0.00
   21    5   22     -0.35      0.00
  -36    6   22      0.60      0.00
  -34    6   22      0.32      0.00
  -32    6   22     -1.42      0.00
  -30    6   22     -1.26      0.00
  -28    6   22     -3.07      0.00
  -26    6   22      0.40      0.00
  -24    6   22      0.99      0.00
  -22    6   22      2.16      0.00
  -20    6   22     -0.10      0.00
  -18    6   22     -2.10      0.00
  -16    6   22      2.76      0.00
  -14    6   22      0.03      0.00
  -12    6   22     -2.07      0.00
  -10    6   22     -2.46      0.00
   -8    6   22     -3.16      0.00
   -6    6   22     -3.60      0.00
   -4    6   22      6.47      0.00
   -2    6   22     -1.86      0.00
    0    6   22      0.29      0.00
    2    6   22      4.53      0.00
    4    6   22      5.20      0.00
    6    6   22     -0.78      0.00
    8    6   22     -0.22      0.00
   10    6   22      0.55      0.00
   12    6   22      4.34      0.00
   14    6   22     -0.37      0.00
   16    6   22     -5.81      0.00
   18    6   22     -3.22      0.00
   20    6   22     -1.24      0.00
  -35    7   22      0.31      0.00
  -33    7   22     -5.57      0.00
  -31    7   22      0.57      0.00
  -29    7   22      0.09      0.00
  -27    7   22     -0.89      0.00
  -25    7   22      0.55      0.00
  -23    7   22     -2.31      0.00
  -21    7   22      1.88      0.00
  -19    7   22     -4.12      0.00
  -17    7   22     -4.99      0.00
  -15    7   22     -3.81      0.00
  -13    7   22     -4.99      0.00
  -11    7   22      1.01      0.00
   -9    7   22     -1.10      0.00
   -7    7   22      5.52      0.00
   -5    7   22     -0.39      0.00
   -3    7   22     -6.87      0.00
   -1    7   22     -1.15      0.00
    1    7   22      1.60      0.00
    3    7   22     -2.86      0.00
    5    7   22     -0.35      0.00
    7    7   22     -1.03      0.00
    9    7   22      7.65      0.00
   11    7   22      0.40      0.00
   13    7   22     -2.12      0.00
   15    7   22      1.11      0.00
   17    7   22      3.26      0.00
   19    7   22      2.19      0.00
   21    7   22      0.58      0.00
  -34    8   22      3.62      0.00
  -32    8   22      1.43      0.00
  -30    8   22      3.15      0.00
  -28    8   22      0.94      0.00
  -26    8   22     -0.14      0.00
  -24    8   22      2.44      0.00
  -22    8   22     -3.10      0.00
  -20    8   22     -0.56      0.00
  -18    8   22      2.40      0.00
  -16    8   22      2.03      0.00
  -14    8   22     -1.68      0.00
  -12    8   22      0.13      0.00
  -10    8   22     -2.25      0.00
   -8    8   22      0.35      0.00
   -6    8   22     -2.70      0.00
   -4    8   22      1.84      0.00
   -2    8   22     -4.47      0.00
    0    8   22     -0.61      0.00
    2    8   22      2.82      0.00
    4    8   22      5.94      0.00
    6    8   22      1.26      0.00
    8    8   22      1.72      0.00
   10    8   22     -0.02      0.00
   12    8   22     -3.33      0.00
   14    8   22      0.30      0.00
   16    8   22     -1.64      0.00
   18    8   22      7.65      0.00
   20    8   22      2.30      0.00
  -33    9   22      2.97      0.00
  -31    9   22      2.03      0.00
  -29    9   22      1.75      0.00
  -27    9   22      1.02      0.00
  -25    9   22      1.09      0.00
  -23    9   22     -4.35      0.00
  -21    9   22     -0.49      0.00
  -19    9   22     -4.60      0.00
  -17    9   22     -6.19      0.00
  -15    9   22     -1.88      0.00
  -13    9   22     -2.05      0.00
  -11    9   22      2.03      0.00
   -9    9   22     -0.22      0.00
   -7    9   22     -2.57      0.00
   -5    9   22      1.61      0.00
   -3    9   22      2.81      0.00
   -1    9   22     -2.41      0.00
    1    9   22     -1.24      0.00
    3    9   22     -3.68      0.00
    5    9   22      2.65      0.00
    7    9   22     -0.84      0.00
    9    9   22     -1.26      0.00
   11    9   22     -2.26      0.00
   13    9   22      0.85      0.00
   15    9   22     -1.99      0.00
   17    9   22     -1.97      0.00
   19    9   22     -2.16      0.00
  -32   10   22      0.21      0.00
  -30   10   22      2.67      0.00
  -28   10   22      0.49      0.00
  -26   10   22     -2.55      0.00
  -24   10   22     -3.11      0.00
  -22   10   22      2.01      0.00
  -20   10   22      1.20      0.00
  -18   10   22     -0.27      0.00
  -16   10   22      0.67      0.00
  -14   10   22      6.31      0.00
  -12   10   22      2.28      0.00
  -10   10   22      0.32      0.00
   -8   10   22     -1.20      0.00
   -6   10   22     -2.53      0.00
   -4   10   22     -1.19      0.00
   -2   10   22     -1.53      0.00
    0   10   22      0.73      0.00
    2   10   22     -0.88      0.00
    4   10   22     -1.66      0.00
    6   10   22      1.66      0.00
    8   10   22      2.38      0.00
   10   10   22     -0.58      0.00
   12   10   22      2.06      0.00
   16   10   22      3.33      0.00
   18   10   22     -2.29      0.00
  -31   11   22      0.18      0.00
  -29   11   22     -1.15      0.00
  -27   11   22     -0.58      0.00
  -25   11   22      2.60      0.00
  -23   11   22     -2.24      0.00
  -21   11   22      0.21      0.00
  -19   11   22      1.45      0.00
  -17   11   22      0.63      0.00
  -15   11   22      1.00      0.00
  -13   11   22     -2.82      0.00
  -11   11   22      1.16      0.00
   -9   11   22     -1.92      0.00
   -7   11   22     -0.48      0.00
   -5   11   22      1.95      0.00
   -3   11   22      3.71      0.00
   -1   11   22     -5.88      0.00
    1   11   22     -3.65      0.00
    3   11   22     -1.48      0.00
    5   11   22     -1.34      0.00
    7   11   22     -3.04      0.00
    9   11   22      0.06      0.00
   11   11   22      5.52      0.00
   13   11   22      3.31      0.00
   15   11   22     -1.06      0.00
  -28   12   22     -1.02      0.00
  -26   12   22     -2.78      0.00
  -24   12   22      0.92      0.00
  -22   12   22     -0.02      0.00
  -20   12   22     -1.47      0.00
  -18   12   22      3.34      0.00
  -16   12   22      0.42      0.00
  -14   12   22     -3.82      0.00
  -12   12   22     -2.37      0.00
  -10   12   22      6.17      0.00
   -8   12   22     -0.49      0.00
   -6   12   22     -2.83      0.00
   -4   12   22     -0.38      0.00
   -2   12   22     -2.30      0.00
    0   12   22      2.45      0.00
    2   12   22     -1.18      0.00
    4   12   22     -2.33      0.00
    6   12   22      0.49      0.00
    8   12   22      2.77      0.00
   10   12   22     -2.65      0.00
   12   12   22      3.19      0.00
   14   12   22     -4.95      0.00
  -27   13   22     -1.79      0.00
  -25   13   22     -2.56      0.00
  -23   13   22     -5.50      0.00
  -21   13   22      2.50      0.00
  -19   13   22     -0.03      0.00
  -17   13   22     -3.39      0.00
  -15   13   22     -1.46      0.00
  -13   13   22     -0.27      0.00
  -11   13   22      2.24      0.00
   -9   13   22      1.66      0.00
   -7   13   22      2.53      0.00
   -5   13   22      0.99      0.00
   -3   13   22     -0.08      0.00
   -1   13   22     -2.22      0.00
    1   13   22     -0.02      0.00
    3   13   22      1.33      0.00
    5   13   22     -0.84      0.00
    7   13   22     -3.10      0.00
    9   13   22     -0.90      0.00
   11   13   22     -2.26      0.00
   13   13   22      0.41      0.00
  -26   14   22      3.00      0.00
  -24   14   22      0.29      0.00
  -22   14   22      0.56      0.00
  -20   14   22      1.62      0.00
  -18   14   22      0.24      0.00
  -16   14   22      1.73      0.00
  -14   14   22     -1.54      0.00
  -12   14   22     -2.87      0.00
  -10   14   22      4.98      0.00
   -8   14   22      0.75      0.00
   -6   14   22     -0.72      0.00
   -4   14   22      2.08      0.00
   -2   14   22     -0.62      0.00
    0   14   22     -6.08      0.00
    2   14   22     -2.18      0.00
    4   14   22     -2.80      0.00
    6   14   22      3.39      0.00
    8   14   22     -6.21      0.00
   10   14   22     -4.12      0.00
  -23   15   22      3.04      0.00
  -21   15   22      0.91      0.00
  -19   15   22      1.36      0.00
  -17   15   22      1.72      0.00
  -15   15   22     -0.33      0.00
  -13   15   22     -0.63      0.00
  -11   15   22      3.19      0.00
   -9   15   22      0.41      0.00
   -7   15   22      5.29      0.00
   -5   15   22     -0.25      0.00
   -3   15   22     -0.26      0.00
   -1   15   22      1.99      0.00
    1   15   22     -1.22      0.00
    3   15   22      0.62      0.00
    5   15   22      1.62      0.00
    7   15   22     -2.93      0.00
  -20   16   22      0.63      0.00
  -18   16   22     -1.68      0.00
  -16   16   22      1.64      0.00
  -14   16   22      1.51      0.00
  -12   16   22      0.48      0.00
  -10   16   22      1.69      0.00
   -8   16   22     -0.57      0.00
   -6   16   22     -0.83      0.00
   -4   16   22      0.07      0.00
   -2   16   22     -0.12      0.00
    0   16   22      0.20      0.00
    2   16   22     -1.23      0.00
    4   16   22     -1.67      0.00
  -15   17   22     -0.71      0.00
  -13   17   22      0.77      0.00
  -11   17   22      0.77      0.00
   -9   17   22     -0.26      0.00
   -7   17   22     -0.06      0.00
   -5   17   22      0.02      0.00
   -3   17   22      2.53      0.00
   -1   17   22      0.23      0.00
  -37    1   23     -2.32      0.00
  -35    1   23     -0.04      0.00
  -33    1   23      0.38      0.00
  -31    1   23      0.12      0.00
  -29    1   23      1.04      0.00
  -27    1   23     -2.21      0.00
  -25    1   23      0.79      0.00
  -23    1   23      2.94      0.00
  -21    1   23      3.24      0.00
  -19    1   23      1.34      0.00
  -17    1   23     -1.59      0.00
  -15    1   23     -0.42      0.00
  -13    1   23     -1.04      0.00
  -11    1   23     -0.61      0.00
   -9    1   23      0.77      0.00
   -7    1   23     -1.20      0.00
   -5    1   23     -2.17      0.00
   -3    1   23     -3.18      0.00
   -1    1   23     -1.34      0.00
    1    1   23     -0.51      0.00
    3    1   23      3.80      0.00
    5    1   23      2.75      0.00
    7    1   23      0.58      0.00
    9    1   23     -3.30      0.00
   11    1   23     -0.71      0.00
   13    1   23      1.36      0.00
   15    1   23     -1.30      0.00
   17    1   23     -0.31      0.00
   19    1   23      1.52      0.00
   21    1   23     -1.76      0.00
  -36    2   23     -0.65      0.00
  -34    2   23      2.32      0.00
  -32    2   23     -2.96      0.00
  -30    2   23     -3.57      0.00
  -28    2   23      3.26      0.00
  -26    2   23      1.86      0.00
  -24    2   23      3.42      0.00
  -22    2   23     -0.44      0.00
  -20    2   23     -0.56      0.00
  -18    2   23     -1.35      0.00
  -16    2   23      1.61      0.00
  -14    2   23     -1.23      0.00
  -12    2   23     -1.09      0.00
  -10    2   23     -4.49      0.00
   -8    2   23     -2.05      0.00
   -6    2   23     -2.67      0.00
   -4    2   23     -0.15      0.00
   -2    2   23     -0.11      0.00
    0    2   23      0.99      0.00
    2    2   23     -1.25      0.00
    4    2   23      0.30      0.00
    6    2   23     -0.87      0.00
    8    2   23      1.63      0.00
   10    2   23     -2.61      0.00
   12    2   23     -3.08      0.00
   14    2   23     -2.52      0.00
   16    2   23     -1.87      0.00
   18    2   23     -1.87      0.00
   20    2   23     -0.63      0.00
   22    2   23      0.89      0.00
  -37    3   23      0.14      0.00
  -35    3   23      1.74      0.00
  -33    3   23     -5.76      0.00
  -31    3   23     -0.88      0.00
  -29    3   23     -0.24      0.00
  -27    3   23      1.69      0.00
  -25    3   23      1.64      0.00
  -23    3   23      3.28      0.00
  -21    3   23      0.22      0.00
  -19    3   23     -4.20      0.00
  -17    3   23     -3.31      0.00
  -15    3   23     -0.39      0.00
  -13    3   23      1.16      0.00
  -11    3   23      1.01      0.00
   -9    3   23     -1.41      0.00
   -7    3   23      1.13      0.00
   -5    3   23     -1.82      0.00
   -3    3   23     -2.06      0.00
   -1    3   23     -5.07      0.00
    1    3   23     -1.03      0.00
    3    3   23      9.42      0.00
    5    3   23      1.79      0.00
    7    3   23      0.00      0.00
    9    3   23     -0.56      0.00
   11    3   23      1.74      0.00
   13    3   23      0.03      0.00
   15    3   23     -2.54      0.00
   17    3   23     -3.11      0.00
   19    3   23      0.33      0.00
   21    3   23      1.87      0.00
  -36    4   23      0.00      0.00
  -34    4   23      1.88      0.00
  -32    4   23      1.22      0.00
  -30    4   23     -3.67      0.00
  -28    4   23     -1.21      0.00
  -26    4   23      0.86      0.00
  -24    4   23      0.39      0.00
  -22    4   23     -2.83      0.00
  -20    4   23      1.27      0.00
  -18    4   23      1.40      0.00
  -16    4   23     -0.23      0.00
  -14    4   23      3.77      0.00
  -12    4   23     -2.05      0.00
  -10    4   23     -1.28      0.00
   -8    4   23     -2.15      0.00
   -6    4   23      0.25      0.00
   -4    4   23      1.31      0.00
   -2    4   23      1.65      0.00
    0    4   23      1.90      0.00
    2    4   23      1.38      0.00
    4    4   23     -1.55      0.00
    6    4   23     -2.99      0.00
    8    4   23      1.03      0.00
   10    4   23     -3.99      0.00
   12    4   23     -1.19      0.00
   14    4   23     -1.57      0.00
   16    4   23     -0.02      0.00
   18    4   23      6.07      0.00
   20    4   23     -1.77      0.00
  -35    5   23      1.34      0.00
  -33    5   23     -1.52      0.00
  -31    5   23     -1.24      0.00
  -29    5   23      0.94      0.00
  -27    5   23      0.69      0.00
  -25    5   23     -1.60      0.00
  -23    5   23      3.30      0.00
  -21    5   23     -0.07      0.00
  -19    5   23     -2.26      0.00
  -17    5   23     -1.58      0.00
  -15    5   23      1.33      0.00
  -13    5   23      1.15      0.00
  -11    5   23      3.75      0.00
   -9    5   23     -0.45      0.00
   -7    5   23     -1.30      0.00
   -5    5   23     -5.34      0.00
   -3    5   23     -1.77      0.00
   -1    5   23      2.86      0.00
    1    5   23      0.57      0.00
    3    5   23      5.95      0.00
    5    5   23      2.90      0.00
    7    5   23     -1.71      0.00
    9    5   23     -1.37      0.00
   11    5   23     -1.37      0.00
   13    5   23      0.57      0.00
   15    5   23      0.41      0.00
   17    5   23      2.06      0.00
   19    5   23     -5.52      0.00
  -34    6   23     -1.84      0.00
  -32    6   23     -3.86      0.00
  -30    6   23      1.81      0.00
  -28    6   23      2.86      0.00
  -26    6   23      1.47      0.00
  -24    6   23     -0.49      0.00
  -22    6   23     -0.22      0.00
  -20    6   23      4.78      0.00
  -18    6   23      7.03      0.00
  -16    6   23      6.43      0.00
  -14    6   23      5.07      0.00
  -12    6   23      0.72      0.00
  -10    6   23     -6.43      0.00
   -8    6   23      0.45      0.00
   -6    6   23     -1.53      0.00
   -4    6   23      6.55      0.00
   -2    6   23      1.37      0.00
    0    6   23      1.93      0.00
    2    6   23      1.80      0.00
    4    6   23      5.83      0.00
    6    6   23     -9.25      0.00
    8    6   23      4.42      0.00
   10    6   23      0.33      0.00
   12    6   23     -2.31      0.00
   14    6   23     -3.34      0.00
   16    6   23      0.52      0.00
   18    6   23      2.42      0.00
   20    6   23      0.92      0.00
  -35    7   23      0.72      0.00
  -33    7   23     -0.58      0.00
  -31    7   23      2.88      0.00
  -29    7   23     -5.12      0.00
  -27    7   23     -3.03      0.00
  -25    7   23      0.76      0.00
  -23    7   23     -0.45      0.00
  -21    7   23      0.15      0.00
  -19    7   23     -2.25      0.00
  -17    7   23     -0.96      0.00
  -15    7   23      1.63      0.00
  -13    7   23     -2.00      0.00
  -11    7   23     -4.19      0.00
   -9    7   23     -1.71      0.00
   -7    7   23     -0.88      0.00
   -5    7   23     -6.04      0.00
   -3    7   23     -3.58      0.00
   -1    7   23      0.18      0.00
    1    7   23     -5.46      0.00
    3    7   23      6.19      0.00
    5    7   23     -0.58      0.00
    7    7   23      1.54      0.00
    9    7   23      0.93      0.00
   11    7   23     -0.37      0.00
   13    7   23     -0.26      0.00
   15    7   23      5.01      0.00
   17    7   23      4.09      0.00
   19    7   23     -5.83      0.00
  -34    8   23      6.76      0.00
  -32    8   23     -1.55      0.00
  -30    8   23      0.43      0.00
  -28    8   23      0.60      0.00
  -26    8   23     -2.42      0.00
  -24    8   23      0.30      0.00
  -22    8   23      0.91      0.00
  -20    8   23      1.97      0.00
  -18    8   23      6.82      0.00
  -16    8   23      3.61      0.00
  -14    8   23     10.55      0.00
  -12    8   23      5.15      0.00
  -10    8   23     -1.71      0.00
   -8    8   23     -1.85      0.00
   -6    8   23      1.74      0.00
   -4    8   23      8.00      0.00
   -2    8   23      0.35      0.00
    0    8   23     -3.04      0.00
    2    8   23     -1.41      0.00
    4    8   23      1.67      0.00
    6    8   23     -5.58      0.00
    8    8   23     -5.97      0.00
   10    8   23     -3.81      0.00
   12    8   23     -1.34      0.00
   14    8   23     -0.75      0.00
   16    8   23     -7.60      0.00
   18    8   23     -2.77      0.00
  -33    9   23     -0.14      0.00
  -31    9   23     -1.52      0.00
  -29    9   23     -0.25      0.00
  -27    9   23     -2.26      0.00
  -25    9   23     -0.98      0.00
  -23    9   23      0.74      0.00
  -21    9   23     -0.27      0.00
  -19    9   23     -2.40      0.00
  -17    9   23      2.06      0.00
  -15    9   23     10.99      0.00
  -13    9   23     -1.78      0.00
  -11    9   23      0.04      0.00
   -9    9   23     -1.36      0.00
   -7    9   23      2.27      0.00
   -5    9   23      0.27      0.00
   -3    9   23      0.49      0.00
   -1    9   23     -2.25      0.00
    1    9   23     -2.50      0.00
    3    9   23      0.39      0.00
    5    9   23     -0.73      0.00
    7    9   23     -0.78      0.00
    9    9   23     -2.69      0.00
   11    9   23     -1.30      0.00
   13    9   23      4.84      0.00
   15    9   23      2.11      0.00
   17    9   23     -4.46      0.00
  -30   10   23     -0.62      0.00
  -28   10   23     -2.51      0.00
  -26   10   23     -1.19      0.00
  -24   10   23      1.32      0.00
  -22   10   23      0.12      0.00
  -20   10   23      0.51      0.00
  -18   10   23      0.86      0.00
  -16   10   23      0.48      0.00
  -14   10   23      2.14      0.00
  -12   10   23      2.94      0.00
  -10   10   23     -0.66      0.00
   -8   10   23     -1.53      0.00
   -6   10   23     -1.02      0.00
   -4   10   23      0.95      0.00
   -2   10   23     -0.05      0.00
    0   10   23     -0.33      0.00
    2   10   23     -1.09      0.00
    4   10   23     -0.58      0.00
    6   10   23     -3.93      0.00
    8   10   23      2.61      0.00
   10   10   23     -0.07      0.00
   12   10   23     -0.67      0.00
   14   10   23     -3.64      0.00
   16   10   23     -0.84      0.00
  -29   11   23     -1.21      0.00
  -27   11   23     -1.15      0.00
  -25   11   23      4.12      0.00
  -23   11   23      0.79      0.00
  -21   11   23     -1.54      0.00
  -19   11   23      1.17      0.00
  -17   11   23      0.43      0.00
  -15   11   23     -2.24      0.00
  -13   11   23     -1.67      0.00
  -11   11   23     -1.31      0.00
   -9   11   23      0.87      0.00
   -7   11   23      2.56      0.00
   -5   11   23      1.34      0.00
   -3   11   23      1.97      0.00
   -1   11   23      2.63      0.00
    1   11   23      0.58      0.00
    3   11   23     -1.43      0.00
    5   11   23     -8.34      0.00
    7   11   23     -1.15      0.00
    9   11   23     -3.44      0.00
   11   11   23     -2.38      0.00
   13   11   23     -2.90      0.00
   15   11   23     -1.58      0.00
  -28   12   23      0.33      0.00
  -26   12   23     -0.94      0.00
  -24   12   23     -0.75      0.00
  -22   12   23     -2.07      0.00
  -20   12   23     -1.31      0.00
  -18   12   23     -0.89      0.00
  -16   12   23      0.38      0.00
  -14   12   23      0.37      0.00
  -12   12   23      1.68      0.00
  -10   12   23      1.16      0.00
   -8   12   23     -1.33      0.00
   -6   12   23     -1.00      0.00
   -4   12   23     -0.12      0.00
   -2   12   23      2.91      0.00
    0   12   23      5.75      0.00
    2   12   23      1.46      0.00
    4   12   23     -3.57      0.00
    6   12   23     -1.52      0.00
    8   12   23     -0.87      0.00
   10   12   23     -4.59      0.00
   12   12   23      1.02      0.00
  -27   13   23      1.37      0.00
  -25   13   23     -2.37      0.00
  -23   13   23      2.18      0.00
  -21   13   23     -2.46      0.00
  -19   13   23     -4.09      0.00
  -17   13   23      2.67      0.00
  -15   13   23      1.84      0.00
  -13   13   23      0.88      0.00
  -11   13   23      1.28      0.00
   -9   13   23      1.75      0.00
   -7   13   23      3.68      0.00
   -5   13   23      2.80      0.00
   -3   13   23      2.56      0.00
   -1   13   23      0.64      0.00
    1   13   23      0.48      0.00
    3   13   23      0.85      0.00
    5   13   23      4.25      0.00
    7   13   23     -1.95      0.00
    9   13   23      2.88      0.00
   11   13   23     -4.96      0.00
  -24   14   23      2.81      0.00
  -22   14   23      0.66      0.00
  -20   14   23     -3.17      0.00
  -18   14   23      0.38      0.00
  -16   14   23     -0.52      0.00
  -14   14   23      1.78      0.00
  -12   14   23     -1.39      0.00
  -10   14   23     -0.38      0.00
   -8   14   23     -2.64      0.00
   -6   14   23     -1.62      0.00
   -4   14   23     -2.67      0.00
   -2   14   23      3.58      0.00
    0   14   23     -1.18      0.00
    2   14   23      1.58      0.00
    4   14   23     -1.05      0.00
    6   14   23      1.91      0.00
    8   14   23      2.05      0.00
  -21   15   23     -0.97      0.00
  -19   15   23     -1.64      0.00
  -17   15   23      0.50      0.00
  -15   15   23      0.16      0.00
  -13   15   23      1.33      0.00
  -11   15   23      1.22      0.00
   -9   15   23     -1.42      0.00
   -7   15   23      4.66      0.00
   -5   15   23      3.49      0.00
   -3   15   23      1.57      0.00
   -1   15   23      2.71      0.00
    1   15   23      4.03      0.00
    3   15   23     -0.56      0.00
    5   15   23      0.22      0.00
  -18   16   23      1.25      0.00
  -16   16   23      0.90      0.00
  -14   16   23     -0.51      0.00
  -12   16   23     -3.07      0.00
  -10   16   23      0.60      0.00
   -8   16   23     -2.83      0.00
   -6   16   23     -6.07      0.00
   -4   16   23     -1.85      0.00
   -2   16   23     -1.34      0.00
    0   16   23     -4.41      0.00
    2   16   23      1.41      0.00
  -11   17   23     -4.79      0.00
   -9   17   23     -0.72      0.00
   -7   17   23      2.41      0.00
   -5   17   23      4.47      0.00
  -36    0   24     -2.52      0.00
  -34    0   24      6.63      0.00
  -32    0   24     -3.84      0.00
  -30    0   24     -0.61      0.00
  -28    0   24      1.11      0.00
  -26    0   24     -1.92      0.00
  -24    0   24      8.31      0.00
  -22    0   24     -0.67      0.00
  -20    0   24      0.08      0.00
  -18    0   24      0.56      0.00
  -16    0   24      0.27      0.00
  -14    0   24     -3.51      0.00
  -12    0   24     -0.75      0.00
  -10    0   24      2.21      0.00
   -8    0   24      4.48      0.00
   -6    0   24      1.35      0.00
   -4    0   24      5.82      0.00
   -2    0   24      0.66      0.00
    0    0   24      3.86      0.00
    2    0   24     -0.27      0.00
    4    0   24      2.01      0.00
    6    0   24     -3.42      0.00
    8    0   24    -10.76      0.00
   10    0   24     -3.32      0.00
   12    0   24     -0.95      0.00
   14    0   24     -0.94      0.00
   16    0   24     -0.98      0.00
   18    0   24     -0.08      0.00
   20    0   24     -2.70      0.00
  -35    1   24     -0.54      0.00
  -33    1   24     -2.14      0.00
  -31    1   24      3.95      0.00
  -29    1   24      4.48      0.00
  -27    1   24      1.58      0.00
  -25    1   24      2.69      0.00
  -23    1   24      0.08      0.00
  -21    1   24     -0.86      0.00
  -19    1   24     -0.01      0.00
  -17    1   24      3.80      0.00
  -15    1   24     -2.02      0.00
  -13    1   24     -0.22      0.00
  -11    1   24      3.40      0.00
   -9    1   24     -3.15      0.00
   -7    1   24      4.36      0.00
   -5    1   24     -2.51      0.00
   -3    1   24      3.48      0.00
   -1    1   24      3.11      0.00
    1    1   24      4.78      0.00
    3    1   24     -1.20      0.00
    5    1   24      4.12      0.00
    7    1   24      0.38      0.00
    9    1   24      1.42      0.00
   11    1   24      1.95      0.00
   13    1   24      0.84      0.00
   15    1   24     -1.08      0.00
   17    1   24     -0.64      0.00
   19    1   24     -2.57      0.00
  -36    2   24      1.75      0.00
  -34    2   24     -2.54      0.00
  -32    2   24     -0.27      0.00
  -30    2   24     -2.47      0.00
  -28    2   24      1.22      0.00
  -26    2   24      1.44      0.00
  -24    2   24      5.41      0.00
  -22    2   24     -0.58      0.00
  -20    2   24     -1.41      0.00
  -18    2   24      1.23      0.00
  -16    2   24     -1.29      0.00
  -14    2   24     -2.04      0.00
  -12    2   24     -2.57      0.00
  -10    2   24     -0.70      0.00
   -8    2   24      0.53      0.00
   -6    2   24      4.79      0.00
   -4    2   24      4.58      0.00
   -2    2   24      2.09      0.00
    0    2   24      1.34      0.00
    2    2   24     -4.22      0.00
    4    2   24     -1.01      0.00
    6    2   24      0.72      0.00
    8    2   24     -0.82      0.00
   10    2   24     -0.40      0.00
   12    2   24     -2.91      0.00
   14    2   24     -3.27      0.00
   16    2   24      1.13      0.00
   18    2   24     -1.37      0.00
   20    2   24     -0.56      0.00
  -35    3   24      0.80      0.00
  -33    3   24      1.57      0.00
  -31    3   24     -2.39      0.00
  -29    3   24     -3.03      0.00
  -27    3   24     -1.80      0.00
  -25    3   24     -3.35      0.00
  -23    3   24      1.79      0.00
  -21    3   24      0.02      0.00
  -19    3   24     -0.26      0.00
  -17    3   24      1.16      0.00
  -15    3   24     -1.66      0.00
  -13    3   24      0.09      0.00
  -11    3   24      1.96      0.00
   -9    3   24     -2.69      0.00
   -7    3   24     -0.14      0.00
   -5    3   24      0.91      0.00
   -3    3   24      5.61      0.00
   -1    3   24     -2.18      0.00
    1    3   24      1.38      0.00
    3    3   24     -0.50      0.00
    5    3   24      2.37      0.00
    7    3   24     -0.57      0.00
    9    3   24     -0.05      0.00
   11    3   24      0.20      0.00
   13    3   24     -0.29      0.00
   15    3   24     -0.81      0.00
   17    3   24     -0.26      0.00
   19    3   24     -2.08      0.00
  -36    4   24     -0.97      0.00
  -34    4   24      4.12      0.00
  -32    4   24      4.57      0.00
  -30    4   24      3.54      0.00
  -28    4   24      0.70      0.00
  -26    4   24     -3.76      0.00
  -24    4   24      3.76      0.00
  -22    4   24      3.28      0.00
  -20    4   24      4.45      0.00
  -18    4   24      1.29      0.00
  -16    4   24      1.77      0.00
  -14    4   24      0.17      0.00
  -12    4   24      1.30      0.00
  -10    4   24      0.22      0.00
   -8    4   24      1.24      0.00
   -6    4   24      1.84      0.00
   -4    4   24      3.06      0.00
   -2    4   24      1.10      0.00
    0    4   24      2.72      0.00
    2    4   24     -2.66      0.00
    4    4   24      0.48      0.00
    6    4   24     -0.09      0.00
    8    4   24     -2.55      0.00
   10    4   24      0.21      0.00
   12    4   24      0.17      0.00
   14    4   24     -1.83      0.00
   16    4   24      1.25      0.00
   18    4   24     -0.64      0.00
   20    4   24     -5.32      0.00
  -35    5   24      0.61      0.00
  -33    5   24     -1.76      0.00
  -31    5   24      1.27      0.00
  -29    5   24      0.00      0.00
  -27    5   24     -1.43      0.00
  -25    5   24     -0.77      0.00
  -23    5   24     -1.79      0.00
  -21    5   24     -2.79      0.00
  -19    5   24     -1.66      0.00
  -17    5   24     -0.81      0.00
  -15    5   24      0.24      0.00
  -13    5   24     -1.11      0.00
  -11    5   24     -0.18      0.00
   -9    5   24     -1.10      0.00
   -7    5   24     -0.86      0.00
   -5    5   24     -0.40      0.00
   -3    5   24      0.47      0.00
   -1    5   24     -0.91      0.00
    1    5   24      0.38      0.00
    3    5   24     -1.07      0.00
    5    5   24     -2.05      0.00
    7    5   24     -1.90      0.00
    9    5   24      2.09      0.00
   11    5   24     -0.11      0.00
   13    5   24      2.98      0.00
   15    5   24      5.94      0.00
   17    5   24     -1.46      0.00
   19    5   24     -2.88      0.00
  -34    6   24      1.78      0.00
  -32    6   24      2.79      0.00
  -30    6   24      1.63      0.00
  -28    6   24      1.15      0.00
  -26    6   24     -0.80      0.00
  -24    6   24      1.50      0.00
  -22    6   24      2.31      0.00
  -20    6   24      4.15      0.00
  -18    6   24      3.85      0.00
  -16    6   24      2.76      0.00
  -14    6   24     -1.23      0.00
  -12    6   24     -0.99      0.00
  -10    6   24     -2.26      0.00
   -8    6   24     -5.88      0.00
   -6    6   24     -4.50      0.00
   -4    6   24      3.15      0.00
   -2    6   24     -0.40      0.00
    0    6   24     -1.09      0.00
    2    6   24      4.40      0.00
    4    6   24      3.05      0.00
    6    6   24      2.03      0.00
    8    6   24      1.01      0.00
   10    6   24      5.05      0.00
   12    6   24     -1.43      0.00
   14    6   24      0.72      0.00
   16    6   24     -0.73      0.00
   18    6   24      0.12      0.00
  -33    7   24     -0.21      0.00
  -31    7   24     -0.05      0.00
  -29    7   24     -1.23      0.00
  -27    7   24     -1.77      0.00
  -25    7   24     -0.84      0.00
  -23    7   24      1.40      0.00
  -21    7   24      1.83      0.00
  -19    7   24     -3.05      0.00
  -17    7   24     -7.58      0.00
  -15    7   24      0.80      0.00
  -13    7   24     -0.31      0.00
  -11    7   24     -2.54      0.00
   -9    7   24     -2.06      0.00
   -7    7   24     -0.93      0.00
   -5    7   24     -5.47      0.00
   -3    7   24     -3.05      0.00
   -1    7   24     -2.66      0.00
    1    7   24     -2.82      0.00
    3    7   24     -2.88      0.00
    5    7   24      0.56      0.00
    7    7   24     -5.62      0.00
    9    7   24      1.45      0.00
   11    7   24      4.06      0.00
   13    7   24      4.73      0.00
   15    7   24     -0.72      0.00
   17    7   24      1.15      0.00
  -32    8   24     -0.54      0.00
  -30    8   24      6.13      0.00
  -28    8   24      4.10      0.00
  -26    8   24     -1.38      0.00
  -24    8   24     -3.14      0.00
  -22    8   24     -2.36      0.00
  -20    8   24     -1.55      0.00
  -18    8   24      0.53      0.00
  -16    8   24     -0.26      0.00
  -14    8   24      0.84      0.00
  -12    8   24      0.96      0.00
  -10    8   24     -2.20      0.00
   -8    8   24     -2.36      0.00
   -6    8   24     -0.03      0.00
   -4    8   24      1.23      0.00
   -2    8   24     -2.95      0.00
    0    8   24     -0.07      0.00
    2    8   24      1.77      0.00
    4    8   24      2.01      0.00
    6    8   24      1.67      0.00
    8    8   24     -0.21      0.00
   10    8   24     -0.50      0.00
   12    8   24      3.77      0.00
   14    8   24      2.19      0.00
   16    8   24     -0.52      0.00
  -31    9   24      1.70      0.00
  -29    9   24      2.00      0.00
  -27    9   24      1.30      0.00
  -25    9   24      1.81      0.00
  -23    9   24     -1.85      0.00
  -21    9   24      1.96      0.00
  -19    9   24     -4.50      0.00
  -17    9   24     -1.56      0.00
  -15    9   24      0.48      0.00
  -13    9   24     -2.26      0.00
  -11    9   24      3.08      0.00
   -9    9   24     -1.51      0.00
   -7    9   24     -2.69      0.00
   -5    9   24     -4.62      0.00
   -3    9   24      1.67      0.00
   -1    9   24     -1.73      0.00
    1    9   24     -2.14      0.00
    3    9   24     -4.00      0.00
    5    9   24     -1.22      0.00
    7    9   24     -1.10      0.00
    9    9   24      0.58      0.00
   11    9   24     -0.50      0.00
   13    9   24     -2.72      0.00
   15    9   24      3.13      0.00
  -30   10   24     -0.61      0.00
  -28   10   24     -0.31      0.00
  -26   10   24     -2.49      0.00
  -24   10   24     -1.07      0.00
  -22   10   24     -4.52      0.00
  -20   10   24      3.82      0.00
  -18   10   24     -0.82      0.00
  -16   10   24     -5.82      0.00
  -14   10   24      3.75      0.00
  -12   10   24     -5.43      0.00
  -10   10   24     -1.29      0.00
   -8   10   24     -0.89      0.00
   -6   10   24     -3.62      0.00
   -4   10   24     -3.03      0.00
   -2   10   24      0.40      0.00
    0   10   24      1.33      0.00
    2   10   24      4.26      0.00
    4   10   24     -3.46      0.00
    6   10   24      0.52      0.00
    8   10   24      0.35      0.00
   10   10   24      1.12      0.00
   12   10   24      0.05      0.00
   14   10   24      0.78      0.00
  -29   11   24      3.57      0.00
  -27   11   24      2.50      0.00
  -25   11   24      1.36      0.00
  -23   11   24     -4.67      0.00
  -21   11   24      0.28      0.00
  -19   11   24     -1.24      0.00
  -17   11   24      4.10      0.00
  -15   11   24     -2.30      0.00
  -13   11   24     -4.06      0.00
  -11   11   24     -0.87      0.00
   -9   11   24      1.29      0.00
   -7   11   24      0.29      0.00
   -5   11   24      1.54      0.00
   -3   11   24      4.22      0.00
   -1   11   24      0.00      0.00
    1   11   24     -1.10      0.00
    3   11   24     -3.24      0.00
    5   11   24     -0.29      0.00
    7   11   24     -1.42      0.00
    9   11   24      3.21      0.00
   11   11   24      0.38      0.00
   13   11   24      3.76      0.00
  -28   12   24     -0.74      0.00
  -26   12   24     -5.01      0.00
  -24   12   24      0.07      0.00
  -22   12   24     -1.48      0.00
  -20   12   24     -1.11      0.00
  -18   12   24      0.33      0.00
  -16   12   24     -0.16      0.00
  -14   12   24     -1.12      0.00
  -12   12   24     -0.26      0.00
  -10   12   24      2.34      0.00
   -8   12   24     -2.26      0.00
   -6   12   24     -0.48      0.00
   -4   12   24      0.10      0.00
   -2   12   24     -0.97      0.00
    0   12   24      0.16      0.00
    2   12   24      0.10      0.00
    4   12   24     -1.25      0.00
    6   12   24      0.69      0.00
    8   12   24      0.85      0.00
   10   12   24     -1.25      0.00
   12   12   24     -0.84      0.00
  -25   13   24      1.25      0.00
  -23   13   24      3.09      0.00
  -21   13   24      0.57      0.00
  -19   13   24      0.22      0.00
  -17   13   24     -0.91      0.00
  -15   13   24      4.97      0.00
  -13   13   24     -0.66      0.00
  -11   13   24     -2.01      0.00
   -9   13   24      2.34      0.00
   -7   13   24      2.96      0.00
   -5   13   24     -0.87      0.00
   -3   13   24      2.56      0.00
   -1   13   24     -3.92      0.00
    1   13   24      0.11      0.00
    3   13   24     -1.50      0.00
    5   13   24     -4.89      0.00
    7   13   24     -0.66      0.00
    9   13   24     -0.07      0.00
  -22   14   24      0.83      0.00
  -20   14   24     -0.87      0.00
  -18   14   24     -3.23      0.00
  -16   14   24      0.38      0.00
  -14   14   24     -0.52      0.00
  -12   14   24      1.30      0.00
  -10   14   24      2.93      0.00
   -8   14   24     -4.36      0.00
   -6   14   24     -2.17      0.00
   -4   14   24     -3.41      0.00
   -2   14   24     -2.26      0.00
    0   14   24      0.80      0.00
    2   14   24     -0.26      0.00
    4   14   24     -1.48      0.00
    6   14   24      0.74      0.00
  -19   15   24      4.94      0.00
  -17   15   24      3.81      0.00
  -15   15   24      1.20      0.00
  -13   15   24      0.15      0.00
  -11   15   24     -2.61      0.00
   -9   15   24      1.90      0.00
   -7   15   24      1.21      0.00
   -5   15   24     -0.51      0.00
   -3   15   24     -1.87      0.00
   -1   15   24     -3.08      0.00
    1   15   24      0.55      0.00
    3   15   24      2.96      0.00
  -14   16   24     -1.16      0.00
  -12   16   24     -3.04      0.00
  -10   16   24     -1.09      0.00
   -8   16   24     -3.55      0.00
   -6   16   24      1.66      0.00
   -4   16   24     -3.53      0.00
   -2   16   24     -2.14      0.00
  -35    1   25     -3.14      0.00
  -33    1   25     -1.58      0.00
  -31    1   25     -3.98      0.00
  -29    1   25     -3.90      0.00
  -27    1   25      0.68      0.00
  -25    1   25      0.04      0.00
  -23    1   25      2.93      0.00
  -21    1   25     -0.56      0.00
  -19    1   25      0.37      0.00
  -17    1   25     -5.42      0.00
  -15    1   25     -0.76      0.00
  -13    1   25     -0.33      0.00
  -11    1   25      1.27      0.00
   -9    1   25     -8.10      0.00
   -7    1   25     -0.36      0.00
   -5    1   25     -0.42      0.00
   -3    1   25     -0.70      0.00
   -1    1   25     -0.37      0.00
    1    1   25     -1.27      0.00
    3    1   25     -0.59      0.00
    5    1   25      2.16      0.00
    7    1   25      4.22      0.00
    9    1   25      2.57      0.00
   11    1   25      0.51      0.00
   13    1   25      0.39      0.00
   15    1   25      0.02      0.00
   17    1   25     -0.15      0.00
   19    1   25      0.44      0.00
  -34    2   25      3.35      0.00
  -32    2   25     -1.04      0.00
  -30    2   25     -3.32      0.00
  -28    2   25      2.43      0.00
  -26    2   25     -0.11      0.00
  -24    2   25      0.42      0.00
  -22    2   25      1.32      0.00
  -20    2   25      2.01      0.00
  -18    2   25      5.02      0.00
  -16    2   25     -1.12      0.00
  -14    2   25     -0.41      0.00
  -12    2   25     -3.98      0.00
  -10    2   25     -0.01      0.00
   -8    2   25     -1.69      0.00
   -6    2   25     -3.74      0.00
   -4    2   25     -3.52      0.00
   -2    2   25     -1.33      0.00
    0    2   25      1.62      0.00
    2    2   25      1.05      0.00
    4    2   25      2.33      0.00
    6    2   25      0.86      0.00
    8    2   25      2.05      0.00
   10    2   25     -1.06      0.00
   12    2   25     -1.35      0.00
   14    2   25     -0.09      0.00
   16    2   25      0.14      0.00
   18    2   25      2.06      0.00
  -35    3   25     -0.08      0.00
  -33    3   25     -2.07      0.00
  -31    3   25     -4.64      0.00
  -29    3   25     -1.57      0.00
  -27    3   25      2.39      0.00
  -25    3   25      0.72      0.00
  -23    3   25      0.10      0.00
  -21    3   25     -1.08      0.00
  -19    3   25     -1.19      0.00
  -17    3   25     -5.16      0.00
  -15    3   25     -2.25      0.00
  -13    3   25      0.56      0.00
  -11    3   25     -1.35      0.00
   -9    3   25     -1.58      0.00
   -7    3   25      1.91      0.00
   -5    3   25      1.59      0.00
   -3    3   25      1.65      0.00
   -1    3   25      2.76      0.00
    1    3   25      1.38      0.00
    3    3   25      2.68      0.00
    5    3   25     -0.07      0.00
    7    3   25     -3.17      0.00
    9    3   25      1.23      0.00
   11    3   25      2.15      0.00
   13    3   25      1.37      0.00
   15    3   25     -1.86      0.00
   17    3   25      0.20      0.00
   19    3   25      3.03      0.00
  -34    4   25      5.33      0.00
  -32    4   25     -0.45      0.00
  -30    4   25      1.83      0.00
  -28    4   25     -0.40      0.00
  -26    4   25      1.78      0.00
  -24    4   25     -0.39      0.00
  -22    4   25     -1.84      0.00
  -20    4   25      2.40      0.00
  -18    4   25     -1.75      0.00
  -16    4   25      0.31      0.00
  -14    4   25      0.56      0.00
  -12    4   25     -0.38      0.00
  -10    4   25     -3.83      0.00
   -8    4   25     -1.87      0.00
   -6    4   25     -1.92      0.00
   -4    4   25     -1.91      0.00
   -2    4   25      2.47      0.00
    0    4   25      4.68      0.00
    2    4   25     -3.79      0.00
    4    4   25     -0.05      0.00
    6    4   25     -2.39      0.00
    8    4   25      0.45      0.00
   10    4   25     -1.06      0.00
   12    4   25      2.14      0.00
   14    4   25      4.98      0.00
   16    4   25     -0.65      0.00
   18    4   25      2.36      0.00
  -33    5   25     -1.64      0.00
  -31    5   25      1.02      0.00
  -29    5   25     -0.60      0.00
  -27    5   25      1.98      0.00
  -25    5   25     -0.39      0.00
  -23    5   25     -1.60      0.00
  -21    5   25     -1.69      0.00
  -19    5   25      2.14      0.00
  -17    5   25     -0.79      0.00
  -15    5   25     -4.26      0.00
  -13    5   25     -1.06      0.00
  -11    5   25      0.33      0.00
   -9    5   25     -3.77      0.00
   -7    5   25     -2.69      0.00
   -5    5   25     -2.08      0.00
   -3    5   25      0.24      0.00
   -1    5   25      1.42      0.00
    1    5   25     -0.72      0.00
    3    5   25      6.54      0.00
    5    5   25      3.01      0.00
    7    5   25     -3.14      0.00
    9    5   25      2.79      0.00
   11    5   25     -1.01      0.00
   13    5   25      0.44      0.00
   15    5   25      1.21      0.00
   17    5   25     -1.47      0.00
  -34    6   25      1.78      0.00
  -32    6   25     -2.03      0.00
  -30    6   25     -0.58      0.00
  -28    6   25     -0.02      0.00
  -26    6   25     -3.59      0.00
  -24    6   25      0.76      0.00
  -22    6   25      5.16      0.00
  -20    6   25      2.26      0.00
  -18    6   25     -4.10      0.00
  -16    6   25     -0.54      0.00
  -14    6   25      5.05      0.00
  -12    6   25     -3.96      0.00
  -10    6   25     -2.18      0.00
   -8    6   25     -0.61      0.00
   -6    6   25     -5.45      0.00
   -4    6   25      0.20      0.00
   -2    6   25      0.51      0.00
    0    6   25     -1.16      0.00
    2    6   25      0.56      0.00
    4    6   25      6.05      0.00
    6    6   25     -1.70      0.00
    8    6   25      1.41      0.00
   10    6   25      1.89      0.00
   12    6   25      0.26      0.00
   14    6   25     -2.08      0.00
   16    6   25      1.48      0.00
  -33    7   25      3.08      0.00
  -31    7   25      0.09      0.00
  -29    7   25      1.84      0.00
  -27    7   25      2.64      0.00
  -25    7   25      0.48      0.00
  -23    7   25      4.16      0.00
  -21    7   25     -1.40      0.00
  -19    7   25     -3.38      0.00
  -17    7   25     -1.96      0.00
  -15    7   25     -1.12      0.00
  -13    7   25      1.61      0.00
  -11    7   25     -1.75      0.00
   -9    7   25     -2.68      0.00
   -7    7   25      4.43      0.00
   -5    7   25     -3.70      0.00
   -3    7   25      1.38      0.00
   -1    7   25      1.34      0.00
    1    7   25     -3.39      0.00
    3    7   25      0.13      0.00
    5    7   25      2.37      0.00
    7    7   25     -2.05      0.00
    9    7   25      0.20      0.00
   11    7   25      1.37      0.00
   13    7   25     -0.32      0.00
   15    7   25      0.67      0.00
  -32    8   25     -2.08      0.00
  -30    8   25      2.95      0.00
  -28    8   25     -0.45      0.00
  -26    8   25     -0.07      0.00
  -24    8   25     -0.66      0.00
  -22    8   25     -3.04      0.00
  -20    8   25     -0.05      0.00
  -18    8   25      0.72      0.00
  -16    8   25      4.25      0.00
  -14    8   25      4.63      0.00
  -12    8   25      1.25      0.00
  -10    8   25      1.28      0.00
   -8    8   25      1.45      0.00
   -6    8   25      0.66      0.00
   -4    8   25      4.73      0.00
   -2    8   25     -1.18      0.00
    0    8   25     -0.95      0.00
    2    8   25     -4.96      0.00
    4    8   25      3.51      0.00
    6    8   25     -4.14      0.00
    8    8   25     -1.72      0.00
   10    8   25     -6.66      0.00
   12    8   25     -4.49      0.00
   14    8   25     -1.13      0.00
  -31    9   25      0.22      0.00
  -29    9   25      1.29      0.00
  -27    9   25      1.16      0.00
  -25    9   25      2.01      0.00
  -23    9   25     -1.11      0.00
  -21    9   25      3.54      0.00
  -19    9   25     -0.45      0.00
  -17    9   25      0.70      0.00
  -15    9   25      0.43      0.00
  -13    9   25     -3.20      0.00
  -11    9   25      0.97      0.00
   -9    9   25     -0.98      0.00
   -7    9   25     -1.31      0.00
   -5    9   25     -2.88      0.00
   -3    9   25      1.42      0.00
   -1    9   25      1.19      0.00
    1    9   25      0.59      0.00
    3    9   25     -0.60      0.00
    5    9   25     -1.08      0.00
    7    9   25     -1.95      0.00
    9    9   25      2.93      0.00
   11    9   25     -2.10      0.00
   13    9   25     -1.10      0.00
  -30   10   25     -2.87      0.00
  -28   10   25      0.01      0.00
  -26   10   25     -1.28      0.00
  -24   10   25     -1.28      0.00
  -22   10   25     -5.33      0.00
  -20   10   25     -5.49      0.00
  -18   10   25     -0.95      0.00
  -16   10   25     -5.30      0.00
  -14   10   25      2.72      0.00
  -12   10   25      0.83      0.00
  -10   10   25      2.52      0.00
   -8   10   25      3.17      0.00
   -6   10   25      5.52      0.00
   -4   10   25     -0.03      0.00
   -2   10   25     -0.71      0.00
    0   10   25     -1.64      0.00
    2   10   25      0.29      0.00
    4   10   25      2.45      0.00
    6   10   25     -2.41      0.00
    8   10   25     -0.98      0.00
   10   10   25     -3.24      0.00
   12   10   25      0.05      0.00
  -27   11   25     -0.41      0.00
  -25   11   25      2.18      0.00
  -23   11   25      3.40      0.00
  -21   11   25      1.04      0.00
  -19   11   25      1.30      0.00
  -17   11   25      2.07      0.00
  -15   11   25     -2.41      0.00
  -13   11   25     -0.37      0.00
  -11   11   25      3.49      0.00
   -9   11   25     -1.06      0.00
   -7   11   25      0.10      0.00
   -5   11   25      2.45      0.00
   -3   11   25      0.82      0.00
   -1   11   25      1.29      0.00
    1   11   25     -0.61      0.00
    3   11   25     -5.02      0.00
    5   11   25     -2.79      0.00
    7   11   25      1.67      0.00
    9   11   25      0.23      0.00
   11   11   25     -2.95      0.00
  -26   12   25     -0.55      0.00
  -24   12   25      1.77      0.00
  -22   12   25      3.15      0.00
  -20   12   25     -1.47      0.00
  -18   12   25     -4.81      0.00
  -16   12   25      0.83      0.00
  -14   12   25      1.31      0.00
  -12   12   25      1.02      0.00
  -10   12   25      1.14      0.00
   -8   12   25      1.87      0.00
   -6   12   25     -0.49      0.00
   -4   12   25     -2.40      0.00
   -2   12   25     -1.57      0.00
    0   12   25      2.15      0.00
    2   12   25      2.49      0.00
    4   12   25     -2.23      0.00
    6   12   25     -2.30      0.00
    8   12   25     -5.33      0.00
   10   12   25     -2.82      0.00
  -23   13   25     -0.39      0.00
  -21   13   25     -2.23      0.00
  -19   13   25     -2.23      0.00
  -17   13   25      4.37      0.00
  -15   13   25      3.56      0.00
  -13   13   25      0.90      0.00
  -11   13   25     -1.39      0.00
   -9   13   25     -1.85      0.00
   -7   13   25     -0.85      0.00
   -5   13   25     -2.23      0.00
   -3   13   25     -2.21      0.00
   -1   13   25      1.53      0.00
    1   13   25      2.32      0.00
    3   13   25      5.08      0.00
    5   13   25      0.89      0.00
    7   13   25     -1.80      0.00
  -20   14   25      1.85      0.00
  -18   14   25      3.56      0.00
  -16   14   25     -0.55      0.00
  -14   14   25     -1.49      0.00
  -12   14   25     -1.59      0.00
  -10   14   25     -0.50      0.00
   -8   14   25     -0.70      0.00
   -6   14   25      0.06      0.00
   -4   14   25     -2.41      0.00
   -2   14   25     -1.26      0.00
    0   14   25      0.18      0.00
    2   14   25      6.70      0.00
    4   14   25     -1.21      0.00
  -17   15   25      3.32      0.00
  -15   15   25      1.03      0.00
  -13   15   25      0.15      0.00
  -11   15   25     -2.77      0.00
   -9   15   25      1.29      0.00
   -7   15   25      3.16      0.00
   -5   15   25      2.47      0.00
   -3   15   25     -0.63      0.00
   -1   15   25      4.26      0.00
    1   15   25     -2.49      0.00
   -8   16   25     -4.96      0.00
  -34    0   26     -4.24      0.00
  -32    0   26     -3.22      0.00
  -30    0   26      3.42      0.00
  -28    0   26      2.20      0.00
  -26    0   26     -0.39      0.00
  -24    0   26      6.03      0.00
  -22    0   26     -0.51      0.00
  -20    0   26      2.15      0.00
  -18    0   26     -2.78      0.00
  -16    0   26      0.17      0.00
  -14    0   26     -2.02      0.00
  -12    0   26      3.52      0.00
  -10    0   26     -2.99      0.00
   -8    0   26     -4.46      0.00
   -6    0   26      3.19      0.00
   -4    0   26      1.58      0.00
   -2    0   26      4.98      0.00
    0    0   26      2.64      0.00
    2    0   26     -4.41      0.00
    4    0   26      0.78      0.00
    6    0   26      2.10      0.00
    8    0   26      1.43      0.00
   10    0   26     -1.01      0.00
   12    0   26     -0.12      0.00
   14    0   26      1.48      0.00
   16    0   26      1.69      0.00
   18    0   26     -0.49      0.00
  -35    1   26     -0.98      0.00
  -33    1   26      4.38      0.00
  -31    1   26     -0.16      0.00
  -29    1   26     -1.50      0.00
  -27    1   26      0.29      0.00
  -25    1   26     -1.54      0.00
  -23    1   26      2.28      0.00
  -21    1   26     -1.31      0.00
  -19    1   26      0.22      0.00
  -17    1   26      1.53      0.00
  -15    1   26     -0.32      0.00
  -13    1   26     -1.09      0.00
  -11    1   26     -0.92      0.00
   -9    1   26     -0.72      0.00
   -7    1   26      3.24      0.00
   -5    1   26     -2.54      0.00
   -3    1   26      2.37      0.00
   -1    1   26      2.70      0.00
    1    1   26      4.26      0.00
    3    1   26     -1.39      0.00
    5    1   26      4.03      0.00
    7    1   26      6.33      0.00
    9    1   26      4.13      0.00
   11    1   26      4.02      0.00
   13    1   26      1.56      0.00
   15    1   26     -0.28      0.00
   17    1   26      2.69      0.00
  -34    2   26      0.81      0.00
  -32    2   26     -3.44      0.00
  -30    2   26      1.14      0.00
  -28    2   26      6.89      0.00
  -26    2   26     -1.55      0.00
  -24    2   26      0.55      0.00
  -22    2   26     -2.09      0.00
  -20    2   26     -0.90      0.00
  -18    2   26      0.95      0.00
  -16    2   26      0.29      0.00
  -14    2   26     -2.43      0.00
  -12    2   26     -7.04      0.00
  -10    2   26      1.46      0.00
   -8    2   26      2.03      0.00
   -6    2   26      3.99      0.00
   -4    2   26      1.85      0.00
   -2    2   26      4.28      0.00
    0    2   26      1.70      0.00
    2    2   26     -1.95      0.00
    4    2   26     -0.27      0.00
    6    2   26     -2.19      0.00
    8    2   26     -4.04      0.00
   10    2   26     -0.39      0.00
   12    2   26     -0.98      0.00
   14    2   26      0.17      0.00
   16    2   26      0.86      0.00
  -33    3   26     -0.60      0.00
  -31    3   26      5.37      0.00
  -29    3   26     -2.87      0.00
  -27    3   26     -0.17      0.00
  -25    3   26     -0.86      0.00
  -23    3   26     -0.20      0.00
  -21    3   26      0.85      0.00
  -19    3   26     -2.96      0.00
  -17    3   26     -0.16      0.00
  -15    3   26     -1.52      0.00
  -13    3   26      0.29      0.00
  -11    3   26      1.73      0.00
   -9    3   26     -2.66      0.00
   -7    3   26     -0.60      0.00
   -5    3   26     -0.62      0.00
   -3    3   26      1.53      0.00
   -1    3   26      0.00      0.00
    1    3   26      0.05      0.00
    3    3   26     -4.86      0.00
    5    3   26     -2.00      0.00
    7    3   26     -2.59      0.00
    9    3   26     -0.42      0.00
   11    3   26      1.09      0.00
   13    3   26      1.01      0.00
   15    3   26     -5.63      0.00
   17    3   26     -5.24      0.00
  -34    4   26      1.16      0.00
  -32    4   26      2.94      0.00
  -30    4   26      1.67      0.00
  -28    4   26     -2.02      0.00
  -26    4   26     -0.97      0.00
  -24    4   26      0.64      0.00
  -22    4   26      3.26      0.00
  -20    4   26      2.37      0.00
  -18    4   26      0.19      0.00
  -16    4   26      2.30      0.00
  -14    4   26      1.09      0.00
  -12    4   26      0.19      0.00
  -10    4   26      2.19      0.00
   -8    4   26      1.77      0.00
   -6    4   26      1.67      0.00
   -4    4   26     -0.46      0.00
   -2    4   26      0.88      0.00
    0    4   26     -0.12      0.00
    2    4   26      2.27      0.00
    4    4   26      1.53      0.00
    6    4   26     -0.86      0.00
    8    4   26     -1.86      0.00
   10    4   26      0.83      0.00
   12    4   26     -0.12      0.00
   14    4   26     -1.02      0.00
   16    4   26      0.11      0.00
  -33    5   26      1.54      0.00
  -31    5   26      0.35      0.00
  -29    5   26      4.57      0.00
  -27    5   26      1.83      0.00
  -25    5   26     -1.55      0.00
  -23    5   26      4.63      0.00
  -21    5   26     -3.27      0.00
  -19    5   26     -2.10      0.00
  -17    5   26     -1.09      0.00
  -15    5   26     -2.25      0.00
  -13    5   26     -3.35      0.00
  -11    5   26      0.14      0.00
   -9    5   26      1.49      0.00
   -7    5   26     -3.07      0.00
   -5    5   26     -0.73      0.00
   -3    5   26      1.90      0.00
   -1    5   26     -1.76      0.00
    1    5   26      0.40      0.00
    3    5   26      1.00      0.00
    5    5   26      1.26      0.00
    7    5   26     -2.27      0.00
    9    5   26     -0.27      0.00
   11    5   26      0.38      0.00
   13    5   26     -2.72      0.00
   15    5   26     -1.16      0.00
  -32    6   26     -1.12      0.00
  -30    6   26     -0.03      0.00
  -28    6   26     -0.36      0.00
  -26    6   26     -1.57      0.00
  -24    6   26      3.33      0.00
  -22    6   26      3.25      0.00
  -20    6   26      1.12      0.00
  -18    6   26      1.00      0.00
  -16    6   26      2.07      0.00
  -14    6   26      3.86      0.00
  -12    6   26      0.26      0.00
  -10    6   26      1.27      0.00
   -8    6   26      0.40      0.00
   -6    6   26     -2.31      0.00
   -4    6   26     -0.69      0.00
   -2    6   26     -0.63      0.00
    0    6   26     -0.86      0.00
    2    6   26      1.58      0.00
    4    6   26      1.36      0.00
    6    6   26      2.10      0.00
    8    6   26      1.08      0.00
   10    6   26      1.36      0.00
   12    6   26      0.73      0.00
   14    6   26     -0.11      0.00
   16    6   26     -1.47      0.00
  -31    7   26      0.64      0.00
  -29    7   26      3.49      0.00
  -27    7   26      5.94      0.00
  -25    7   26      1.57      0.00
  -23    7   26     -2.30      0.00
  -21    7   26      2.16      0.00
  -19    7   26     -0.33      0.00
  -17    7   26      3.80      0.00
  -15    7   26     -0.59      0.00
  -13    7   26     -1.62      0.00
  -11    7   26      0.58      0.00
   -9    7   26      1.41      0.00
   -7    7   26      2.72      0.00
   -5    7   26      1.09      0.00
   -3    7   26      1.12      0.00
   -1    7   26     -0.48      0.00
    1    7   26     -2.65      0.00
    3    7   26     -1.57      0.00
    5    7   26      0.63      0.00
    7    7   26     -1.64      0.00
    9    7   26     -3.30      0.00
   11    7   26      0.54      0.00
   13    7   26     -3.47      0.00
   15    7   26      1.25      0.00
  -30    8   26      1.42      0.00
  -28    8   26      2.49      0.00
  -26    8   26     -2.22      0.00
  -24    8   26     -4.28      0.00
  -22    8   26     -6.72      0.00
  -20    8   26      2.31      0.00
  -18    8   26     -2.08      0.00
  -16    8   26     -3.12      0.00
  -14    8   26      0.60      0.00
  -12    8   26      2.78      0.00
  -10    8   26      1.35      0.00
   -8    8   26      1.20      0.00
   -6    8   26      0.23      0.00
   -4    8   26     -2.77      0.00
   -2    8   26     -2.36      0.00
    0    8   26     -1.04      0.00
    2    8   26      0.10      0.00
    4    8   26      1.94      0.00
    6    8   26      0.01      0.00
    8    8   26     -1.87      0.00
   10    8   26      0.92      0.00
   12    8   26      1.43      0.00
   14    8   26      2.82      0.00
  -29    9   26     -0.23      0.00
  -27    9   26      1.75      0.00
  -25    9   26      2.05      0.00
  -23    9   26      0.68      0.00
  -21    9   26     -0.54      0.00
  -19    9   26     -1.26      0.00
  -17    9   26     -2.74      0.00
  -15    9   26      0.37      0.00
  -13    9   26      5.15      0.00
  -11    9   26      4.51      0.00
   -9    9   26      1.39      0.00
   -7    9   26      3.11      0.00
   -5    9   26      2.00      0.00
   -3    9   26      1.75      0.00
   -1    9   26     -1.83      0.00
    1    9   26     -1.04      0.00
    3    9   26     -1.69      0.00
    5    9   26     -2.56      0.00
    7    9   26     -1.12      0.00
    9    9   26      2.30      0.00
   11    9   26     -0.71      0.00
   13    9   26      1.07      0.00
  -28   10   26     -0.42      0.00
  -26   10   26     -1.14      0.00
  -24   10   26     -0.38      0.00
  -22   10   26     -1.10      0.00
  -20   10   26      0.82      0.00
  -18   10   26     -2.36      0.00
  -16   10   26     -1.39      0.00
  -14   10   26      2.56      0.00
  -12   10   26     -0.69      0.00
  -10   10   26      1.03      0.00
   -8   10   26      0.06      0.00
   -6   10   26      2.52      0.00
   -4   10   26     -1.51      0.00
   -2   10   26     -1.10      0.00
    0   10   26     -0.85      0.00
    2   10   26      2.11      0.00
    4   10   26     -0.85      0.00
    6   10   26      3.94      0.00
    8   10   26     -3.13      0.00
   10   10   26      0.74      0.00
  -27   11   26      0.53      0.00
  -25   11   26      0.09      0.00
  -23   11   26      3.75      0.00
  -21   11   26      2.01      0.00
  -19   11   26      0.18      0.00
  -17   11   26      1.02      0.00
  -15   11   26      0.75      0.00
  -13   11   26      2.00      0.00
  -11   11   26     -0.83      0.00
   -9   11   26      1.88      0.00
   -7   11   26     -2.03      0.00
   -5   11   26     -0.02      0.00
   -3   11   26      5.29      0.00
   -1   11   26      2.98      0.00
    1   11   26      0.02      0.00
    3   11   26      0.05      0.00
    5   11   26     -0.35      0.00
    7   11   26      1.86      0.00
    9   11   26      0.96      0.00
  -24   12   26     -0.91      0.00
  -22   12   26     -3.24      0.00
  -20   12   26     -1.49      0.00
  -18   12   26     -0.61      0.00
  -16   12   26      1.08      0.00
  -14   12   26      1.11      0.00
  -12   12   26     -3.53      0.00
  -10   12   26      2.93      0.00
   -8   12   26      1.27      0.00
   -6   12   26      2.51      0.00
   -4   12   26     -0.30      0.00
   -2   12   26     -3.51      0.00
    0   12   26     -1.55      0.00
    2   12   26      5.54      0.00
    4   12   26     -0.22      0.00
    6   12   26     -3.07      0.00
    8   12   26     -0.45      0.00
  -21   13   26      1.99      0.00
  -19   13   26      3.79      0.00
  -17   13   26      1.28      0.00
  -15   13   26      2.51      0.00
  -13   13   26     -1.80      0.00
  -11   13   26     -3.02      0.00
   -9   13   26      2.40      0.00
   -7   13   26      2.75      0.00
   -5   13   26     -0.03      0.00
   -3   13   26      1.44      0.00
   -1   13   26     -2.57      0.00
    1   13   26      2.48      0.00
    3   13   26      0.74      0.00
  -18   14   26     -4.33      0.00
  -16   14   26     -2.83      0.00
  -14   14   26      1.17      0.00
  -12   14   26      4.55      0.00
  -10   14   26      4.44      0.00
   -8   14   26      0.37      0.00
   -6   14   26      2.68      0.00
   -4   14   26     -0.33      0.00
   -2   14   26      3.93      0.00
    0   14   26     -2.43      0.00
    2   14   26     -1.35      0.00
  -13   15   26     -1.53      0.00
  -11   15   26     -3.29      0.00
   -9   15   26     -2.27      0.00
   -7   15   26     -4.41      0.00
   -5   15   26     -0.27      0.00
   -3   15   26     -2.80      0.00
  -33    1   27     -3.89      0.00
  -31    1   27     -8.35      0.00
  -29    1   27     -0.82      0.00
  -27    1   27     -1.55      0.00
  -25    1   27      0.88      0.00
  -23    1   27      0.40      0.00
  -21    1   27     -1.55      0.00
  -19    1   27     -3.00      0.00
  -17    1   27     -3.01      0.00
  -15    1   27     -0.07      0.00
  -13    1   27     -3.02      0.00
  -11    1   27     -3.42      0.00
   -9    1   27     -1.07      0.00
   -7    1   27      0.56      0.00
   -5    1   27     -0.55      0.00
   -3    1   27     -3.66      0.00
   -1    1   27     -3.13      0.00
    1    1   27     -1.62      0.00
    3    1   27     -0.31      0.00
    5    1   27      0.94      0.00
    7    1   27     -2.38      0.00
    9    1   27      0.57      0.00
   11    1   27      0.29      0.00
   13    1   27     -0.95      0.00
   15    1   27      0.17      0.00
  -34    2   27      1.00      0.00
  -32    2   27      4.41      0.00
  -30    2   27     -1.17      0.00
  -28    2   27      1.34      0.00
  -26    2   27      3.24      0.00
  -24    2   27     -0.22      0.00
  -22    2   27     -1.54      0.00
  -20    2   27      1.88      0.00
  -18    2   27      4.39      0.00
  -16    2   27     -1.74      0.00
  -14    2   27     -2.60      0.00
  -12    2   27      1.02      0.00
  -10    2   27      1.26      0.00
   -8    2   27     -4.24      0.00
   -6    2   27     -2.57      0.00
   -4    2   27     -0.05      0.00
   -2    2   27      1.94      0.00
    0    2   27      4.08      0.00
    2    2   27     -1.07      0.00
    4    2   27     -3.15      0.00
    6    2   27     -4.03      0.00
    8    2   27     -0.86      0.00
   10    2   27     -2.35      0.00
   12    2   27     -1.13      0.00
   14    2   27     -2.85      0.00
  -33    3   27      0.18      0.00
  -31    3   27     -1.60      0.00
  -29    3   27     -4.90      0.00
  -27    3   27      1.79      0.00
  -25    3   27      0.45      0.00
  -23    3   27      1.75      0.00
  -21    3   27     -0.60      0.00
  -19    3   27     -5.16      0.00
  -17    3   27     -3.64      0.00
  -15    3   27     -2.00      0.00
  -13    3   27      0.89      0.00
  -11    3   27     -0.46      0.00
   -9    3   27     -3.50      0.00
   -7    3   27      1.65      0.00
   -5    3   27      0.12      0.00
   -3    3   27     -1.26      0.00
   -1    3   27     -1.56      0.00
    1    3   27      0.43      0.00
    3    3   27     -0.58      0.00
    5    3   27      2.98      0.00
    7    3   27     -1.78      0.00
    9    3   27      0.53      0.00
   11    3   27     -1.26      0.00
   13    3   27     -3.21      0.00
   15    3   27     -1.22      0.00
  -32    4   27     -1.54      0.00
  -30    4   27     -1.57      0.00
  -28    4   27     -1.68      0.00
  -26    4   27      1.81      0.00
  -24    4   27      4.06      0.00
  -22    4   27     -3.66      0.00
  -20    4   27     -3.80      0.00
  -18    4   27      2.25      0.00
  -16    4   27     -0.91      0.00
  -14    4   27     -0.23      0.00
  -12    4   27     -4.53      0.00
  -10    4   27     -0.60      0.00
   -8    4   27     -0.32      0.00
   -6    4   27      0.21      0.00
   -4    4   27      3.66      0.00
   -2    4   27      2.70      0.00
    0    4   27      3.90      0.00
    2    4   27      1.71      0.00
    4    4   27      4.03      0.00
    6    4   27      0.20      0.00
    8    4   27     -1.08      0.00
   10    4   27      1.06      0.00
   12    4   27     -0.09      0.00
   14    4   27      1.41      0.00
  -33    5   27      1.41      0.00
  -31    5   27     -4.01      0.00
  -29    5   27      0.45      0.00
  -27    5   27      1.78      0.00
  -25    5   27      0.83      0.00
  -23    5   27      1.42      0.00
  -21    5   27      0.76      0.00
  -19    5   27      7.35      0.00
  -17    5   27     -0.51      0.00
  -15    5   27     -6.37      0.00
  -13    5   27      1.68      0.00
  -11    5   27     -0.20      0.00
   -9    5   27     -3.33      0.00
   -7    5   27     -1.94      0.00
   -5    5   27     -3.54      0.00
   -3    5   27      0.37      0.00
   -1    5   27      0.25      0.00
    1    5   27     -0.33      0.00
    3    5   27     -0.69      0.00
    5    5   27      2.20      0.00
    7    5   27      2.44      0.00
    9    5   27      1.23      0.00
   11    5   27      0.29      0.00
   13    5   27      1.13      0.00
   15    5   27      1.11      0.00
  -32    6   27     -4.35      0.00
  -30    6   27     -3.23      0.00
  -28    6   27     -3.93      0.00
  -26    6   27     -2.86      0.00
  -24    6   27     -3.88      0.00
  -22    6   27      2.61      0.00
  -20    6   27      0.03      0.00
  -18    6   27      0.33      0.00
  -16    6   27      3.05      0.00
  -14    6   27     -2.08      0.00
  -12    6   27     -3.76      0.00
  -10    6   27     -2.10      0.00
   -8    6   27     -2.00      0.00
   -6    6   27     -1.25      0.00
   -4    6   27     -1.14      0.00
   -2    6   27     -0.60      0.00
    0    6   27      3.71      0.00
    2    6   27     -1.21      0.00
    4    6   27      5.91      0.00
    6    6   27      0.14      0.00
    8    6   27     -3.27      0.00
   10    6   27      0.22      0.00
   12    6   27      0.02      0.00
   14    6   27      0.74      0.00
  -31    7   27      0.18      0.00
  -29    7   27      1.96      0.00
  -27    7   27      1.75      0.00
  -25    7   27      2.07      0.00
  -23    7   27      0.92      0.00
  -21    7   27      2.56      0.00
  -19    7   27      2.55      0.00
  -17    7   27     -3.83      0.00
  -15    7   27     -0.83      0.00
  -13    7   27      3.00      0.00
  -11    7   27     -0.63      0.00
   -9    7   27      0.60      0.00
   -7    7   27      4.30      0.00
   -5    7   27     -1.24      0.00
   -3    7   27      2.44      0.00
   -1    7   27      1.72      0.00
    1    7   27     -3.14      0.00
    3    7   27     -1.48      0.00
    5    7   27      1.35      0.00
    7    7   27     -5.60      0.00
    9    7   27      2.65      0.00
   11    7   27     -0.19      0.00
   13    7   27     -0.72      0.00
  -30    8   27     -4.56      0.00
  -28    8   27     -3.45      0.00
  -26    8   27     -0.93      0.00
  -24    8   27     -0.53      0.00
  -22    8   27     -0.39      0.00
  -20    8   27      0.72      0.00
  -18    8   27      0.27      0.00
  -16    8   27      1.60      0.00
  -14    8   27      2.19      0.00
  -12    8   27      0.15      0.00
  -10    8   27     -0.03      0.00
   -8    8   27      0.70      0.00
   -6    8   27      1.49      0.00
   -4    8   27     -3.11      0.00
   -2    8   27     -0.84      0.00
    0    8   27     -0.01      0.00
    2    8   27      0.30      0.00
    4    8   27     -0.90      0.00
    6    8   27     -2.50      0.00
    8    8   27     -1.08      0.00
   10    8   27     -1.85      0.00
   12    8   27     -0.71      0.00
  -29    9   27     -0.12      0.00
  -27    9   27      0.00      0.00
  -25    9   27     -0.62      0.00
  -23    9   27      6.85      0.00
  -21    9   27      2.43      0.00
  -19    9   27      0.08      0.00
  -17    9   27      0.29      0.00
  -15    9   27      0.50      0.00
  -13    9   27      0.31      0.00
  -11    9   27     -1.08      0.00
   -9    9   27     -6.93      0.00
   -7    9   27     -1.63      0.00
   -5    9   27      2.13      0.00
   -3    9   27      3.12      0.00
   -1    9   27      0.35      0.00
    1    9   27      1.62      0.00
    3    9   27     -3.04      0.00
    5    9   27      4.33      0.00
    7    9   27      0.05      0.00
    9    9   27     -1.43      0.00
   11    9   27     -1.28      0.00
  -26   10   27     -0.32      0.00
  -24   10   27      1.72      0.00
  -22   10   27     -3.69      0.00
  -20   10   27      0.02      0.00
  -18   10   27     -0.89      0.00
  -16   10   27      3.04      0.00
  -14   10   27      2.18      0.00
  -12   10   27     -2.21      0.00
  -10   10   27      1.81      0.00
   -8   10   27      1.46      0.00
   -6   10   27     -1.99      0.00
   -4   10   27      1.52      0.00
   -2   10   27      0.83      0.00
    0   10   27      0.55      0.00
    2   10   27      0.62      0.00
    4   10   27      1.66      0.00
    6   10   27     -0.76      0.00
    8   10   27     -1.51      0.00
  -25   11   27      1.74      0.00
  -23   11   27     -0.48      0.00
  -21   11   27      1.85      0.00
  -19   11   27      1.13      0.00
  -17   11   27      1.19      0.00
  -15   11   27     -0.95      0.00
  -13   11   27     -3.79      0.00
  -11   11   27     -0.03      0.00
   -9   11   27     -2.04      0.00
   -7   11   27      0.36      0.00
   -5   11   27      3.39      0.00
   -3   11   27      1.13      0.00
   -1   11   27     -0.36      0.00
    1   11   27     -3.97      0.00
    3   11   27     -1.95      0.00
    7   11   27      5.01      0.00
  -22   12   27     -0.07      0.00
  -20   12   27      0.08      0.00
  -18   12   27     -0.39      0.00
  -16   12   27      2.27      0.00
  -14   12   27     -0.71      0.00
  -12   12   27     -2.02      0.00
  -10   12   27     -1.44      0.00
   -8   12   27      1.02      0.00
   -6   12   27      2.08      0.00
   -4   12   27     -2.83      0.00
   -2   12   27     -5.50      0.00
    0   12   27      1.17      0.00
    2   12   27      1.44      0.00
    4   12   27     -4.97      0.00
  -19   13   27     -4.49      0.00
  -17   13   27      0.55      0.00
  -15   13   27      0.40      0.00
  -13   13   27      2.61      0.00
  -11   13   27     -2.36      0.00
   -9   13   27     -3.54      0.00
   -7   13   27     -3.59      0.00
   -5   13   27     -2.41      0.00
   -3   13   27      4.75      0.00
   -1   13   27      2.14      0.00
    1   13   27     -3.50      0.00
  -16   14   27     -0.91      0.00
  -14   14   27      0.40      0.00
  -12   14   27     -0.08      0.00
  -10   14   27     -0.70      0.00
   -8   14   27     -2.46      0.00
   -6   14   27      1.15      0.00
   -4   14   27     -2.61      0.00
   -2   14   27     -3.31      0.00
  -32    0   28     -6.08      0.00
  -30    0   28      1.57      0.00
  -28    0   28     -0.34      0.00
  -26    0   28      1.68      0.00
  -24    0   28      2.79      0.00
  -22    0   28      0.97      0.00
  -20    0   28      0.51      0.00
  -18    0   28     -2.52      0.00
  -16    0   28      3.78      0.00
  -14    0   28      2.38      0.00
  -12    0   28     -0.55      0.00
  -10    0   28     -3.70      0.00
   -8    0   28     -3.33      0.00
   -6    0   28      4.69      0.00
   -2    0   28     -1.98      0.00
    0    0   28     -2.00      0.00
    2    0   28     -0.71      0.00
    4    0   28      0.04      0.00
    6    0   28     -0.14      0.00
   10    0   28     -1.37      0.00
   12    0   28      3.14      0.00
   14    0   28      2.13      0.00
  -33    1   28      0.68      0.00
  -31    1   28     -2.21      0.00
  -29    1   28     -2.18      0.00
  -27    1   28      2.33      0.00
  -25    1   28     -1.92      0.00
  -23    1   28     -1.02      0.00
  -21    1   28     -2.96      0.00
  -19    1   28     -1.64      0.00
  -17    1   28     -1.67      0.00
  -15    1   28     -2.00      0.00
  -13    1   28     -2.02      0.00
  -11    1   28      2.24      0.00
   -9    1   28      1.67      0.00
   -7    1   28      2.77      0.00
   -5    1   28      0.07      0.00
   -3    1   28     -0.36      0.00
   -1    1   28      2.39      0.00
    1    1   28      2.31      0.00
    3    1   28     -3.13      0.00
    5    1   28      1.37      0.00
    7    1   28      1.68      0.00
    9    1   28      2.51      0.00
   11    1   28      0.62      0.00
   13    1   28     -1.07      0.00
  -32    2   28      2.07      0.00
  -30    2   28      1.50      0.00
  -28    2   28      0.46      0.00
  -26    2   28     -1.87      0.00
  -24    2   28     -3.31      0.00
  -22    2   28     -1.95      0.00
  -20    2   28     -3.15      0.00
  -18    2   28      2.64      0.00
  -16    2   28      1.81      0.00
  -14    2   28     -2.10      0.00
  -12    2   28     -3.88      0.00
  -10    2   28     -1.77      0.00
   -8    2   28     -1.16      0.00
   -6    2   28      3.10      0.00
   -4    2   28      4.49      0.00
   -2    2   28      1.42      0.00
    0    2   28      2.19      0.00
    2    2   28     -0.57      0.00
    4    2   28     -0.05      0.00
    6    2   28     -1.58      0.00
    8    2   28     -0.92      0.00
   10    2   28     -0.17      0.00
   12    2   28      0.67      0.00
   14    2   28     -0.46      0.00
  -31    3   28     -3.09      0.00
  -29    3   28     -2.71      0.00
  -27    3   28      1.38      0.00
  -25    3   28      0.53      0.00
  -23    3   28      2.70      0.00
  -21    3   28     -2.15      0.00
  -19    3   28     -0.93      0.00
  -17    3   28     -2.23      0.00
  -15    3   28     -0.72      0.00
  -13    3   28      3.07      0.00
  -11    3   28     -0.48      0.00
   -9    3   28      0.98      0.00
   -7    3   28     -0.02      0.00
   -5    3   28      0.60      0.00
   -3    3   28     -1.23      0.00
   -1    3   28     -0.13      0.00
    1    3   28      1.34      0.00
    3    3   28     -2.42      0.00
    5    3   28      1.85      0.00
    7    3   28     -1.74      0.00
    9    3   28     -1.39      0.00
   11    3   28      0.70      0.00
   13    3   28     -0.66      0.00
  -32    4   28     -3.28      0.00
  -30    4   28     -1.40      0.00
  -28    4   28     -1.18      0.00
  -26    4   28      0.24      0.00
  -24    4   28      0.05      0.00
  -22    4   28     -1.65      0.00
  -20    4   28      4.26      0.00
  -18    4   28      2.77      0.00
  -16    4   28      0.92      0.00
  -14    4   28      1.14      0.00
  -12    4   28     -1.32      0.00
  -10    4   28      1.38      0.00
   -8    4   28     -1.27      0.00
   -6    4   28      0.15      0.00
   -4    4   28     -3.92      0.00
   -2    4   28      0.19      0.00
    0    4   28      0.03      0.00
    2    4   28      0.59      0.00
    4    4   28     -3.87      0.00
    6    4   28      0.58      0.00
    8    4   28      0.00      0.00
   10    4   28      1.47      0.00
   12    4   28      3.02      0.00
  -31    5   28      1.01      0.00
  -29    5   28      3.82      0.00
  -27    5   28      2.17      0.00
  -25    5   28     -2.03      0.00
  -23    5   28      1.76      0.00
  -21    5   28      3.16      0.00
  -19    5   28     -1.16      0.00
  -17    5   28      0.03      0.00
  -15    5   28     -1.39      0.00
  -13    5   28      1.99      0.00
  -11    5   28     -2.50      0.00
   -9    5   28     -2.54      0.00
   -7    5   28     -3.51      0.00
   -5    5   28     -1.81      0.00
   -3    5   28      0.77      0.00
   -1    5   28     -0.53      0.00
    1    5   28     -2.72      0.00
    3    5   28     -0.53      0.00
    5    5   28     -0.36      0.00
    7    5   28     -3.29      0.00
    9    5   28     -3.09      0.00
   11    5   28      1.66      0.00
   13    5   28      0.79      0.00
  -30    6   28     -3.09      0.00
  -28    6   28     -3.65      0.00
  -26    6   28     -1.20      0.00
  -24    6   28      1.51      0.00
  -22    6   28      1.58      0.00
  -20    6   28     -0.24      0.00
  -18    6   28     -4.66      0.00
  -16    6   28      6.34      0.00
  -14    6   28      0.45      0.00
  -12    6   28      2.02      0.00
  -10    6   28      0.41      0.00
   -8    6   28      1.26      0.00
   -6    6   28     -1.67      0.00
   -4    6   28     -1.11      0.00
   -2    6   28      2.34      0.00
    0    6   28      3.30      0.00
    2    6   28      0.47      0.00
    4    6   28      0.86      0.00
    6    6   28     -2.70      0.00
    8    6   28     -0.18      0.00
   10    6   28      1.71      0.00
   12    6   28      2.70      0.00
  -29    7   28      1.59      0.00
  -27    7   28      4.79      0.00
  -25    7   28      0.33      0.00
  -23    7   28      3.61      0.00
  -21    7   28      0.33      0.00
  -19    7   28      4.85      0.00
  -17    7   28     -0.24      0.00
  -15    7   28      1.25      0.00
  -13    7   28     -0.76      0.00
  -11    7   28     -2.20      0.00
   -9    7   28      0.66      0.00
   -7    7   28      3.72      0.00
   -5    7   28     -0.36      0.00
   -3    7   28     -1.53      0.00
   -1    7   28     -1.35      0.00
    1    7   28      0.02      0.00
    3    7   28     -3.11      0.00
    5    7   28      0.16      0.00
    7    7   28      0.22      0.00
    9    7   28     -0.05      0.00
   11    7   28     -2.98      0.00
  -28    8   28      0.12      0.00
  -26    8   28     -1.34      0.00
  -24    8   28     -0.85      0.00
  -22    8   28      2.54      0.00
  -20    8   28      1.19      0.00
  -18    8   28     -0.96      0.00
  -16    8   28      1.75      0.00
  -14    8   28      2.54      0.00
  -12    8   28     -1.74      0.00
  -10    8   28      0.25      0.00
   -8    8   28     -0.28      0.00
   -6    8   28     -0.28      0.00
   -4    8   28     -0.61      0.00
   -2    8   28      1.06      0.00
    0    8   28     -1.27      0.00
    2    8   28      1.92      0.00
    4    8   28      2.02      0.00
    6    8   28      2.50      0.00
    8    8   28     -4.40      0.00
   10    8   28      1.00      0.00
  -27    9   28      0.20      0.00
  -25    9   28      2.56      0.00
  -23    9   28     -0.66      0.00
  -21    9   28      1.51      0.00
  -19    9   28     -0.75      0.00
  -17    9   28     -0.47      0.00
  -15    9   28      0.42      0.00
  -13    9   28      2.91      0.00
  -11    9   28      0.85      0.00
   -9    9   28     -1.06      0.00
   -7    9   28     -1.37      0.00
   -5    9   28      5.33      0.00
   -3    9   28      2.88      0.00
   -1    9   28     -0.86      0.00
    1    9   28     -3.65      0.00
    3    9   28     -2.63      0.00
    5    9   28     -1.46      0.00
    7    9   28      1.66      0.00
    9    9   28     -2.79      0.00
  -26   10   28      0.50      0.00
  -24   10   28      0.54      0.00
  -22   10   28     -0.95      0.00
  -20   10   28      3.63      0.00
  -18   10   28      2.03      0.00
  -16   10   28      0.49      0.00
  -14   10   28     -2.10      0.00
  -12   10   28     -1.90      0.00
  -10   10   28      1.13      0.00
   -8   10   28      3.40      0.00
   -6   10   28      1.39      0.00
   -4   10   28     -0.35      0.00
   -2   10   28      1.32      0.00
    0   10   28      0.44      0.00
    2   10   28      2.01      0.00
    4   10   28     -0.30      0.00
    6   10   28     -0.07      0.00
  -23   11   28     -0.27      0.00
  -21   11   28      2.32      0.00
  -19   11   28      0.03      0.00
  -17   11   28     -2.03      0.00
  -15   11   28     -2.54      0.00
  -13   11   28     -1.36      0.00
  -11   11   28     -2.05      0.00
   -9   11   28     -0.50      0.00
   -7   11   28     -0.73      0.00
   -5   11   28      1.43      0.00
   -3   11   28      3.89      0.00
   -1   11   28      0.95      0.00
    1   11   28     -1.92      0.00
    3   11   28     -0.45      0.00
    5   11   28     -4.88      0.00
  -20   12   28     -1.54      0.00
  -18   12   28      1.44      0.00
  -16   12   28     -1.24      0.00
  -14   12   28      4.08      0.00
  -12   12   28     -0.46      0.00
  -10   12   28      0.40      0.00
   -8   12   28     -0.38      0.00
   -6   12   28      2.08      0.00
   -4   12   28     -0.68      0.00
   -2   12   28      1.34      0.00
    0   12   28      0.01      0.00
    2   12   28      0.84      0.00
  -17   13   28     -2.67      0.00
  -15   13   28      0.79      0.00
  -13   13   28      0.79      0.00
  -11   13   28     -0.85      0.00
   -9   13   28      4.87      0.00
   -7   13   28      0.20      0.00
   -5   13   28      1.61      0.00
   -3   13   28      3.69      0.00
   -1   13   28     -0.40      0.00
  -31    1   29     -1.83      0.00
  -29    1   29     -3.15      0.00
  -27    1   29      0.21      0.00
  -25    1   29      0.88      0.00
  -23    1   29      2.35      0.00
  -21    1   29     -5.16      0.00
  -19    1   29      2.67      0.00
  -17    1   29     -0.02      0.00
  -15    1   29     -0.34      0.00
  -13    1   29     -3.71      0.00
  -11    1   29     -1.81      0.00
   -9    1   29     -1.05      0.00
   -7    1   29     -0.92      0.00
   -5    1   29      3.43      0.00
   -3    1   29      2.52      0.00
   -1    1   29      0.71      0.00
    1    1   29     -0.56      0.00
    3    1   29     -2.18      0.00
    5    1   29     -0.27      0.00
    7    1   29      2.30      0.00
    9    1   29      2.77      0.00
   11    1   29     -2.32      0.00
   13    1   29      1.22      0.00
  -32    2   29     -1.31      0.00
  -30    2   29     -0.72      0.00
  -28    2   29     -0.90      0.00
  -26    2   29     -1.93      0.00
  -24    2   29      0.25      0.00
  -22    2   29      1.07      0.00
  -20    2   29      3.15      0.00
  -18    2   29      0.05      0.00
  -16    2   29     -7.12      0.00
  -14    2   29      1.01      0.00
  -12    2   29      0.90      0.00
  -10    2   29      0.47      0.00
   -8    2   29     -4.00      0.00
   -6    2   29     -2.20      0.00
   -4    2   29     -1.74      0.00
   -2    2   29      0.97      0.00
    0    2   29      0.43      0.00
    2    2   29     -3.85      0.00
    4    2   29     -2.36      0.00
    6    2   29     -0.21      0.00
    8    2   29     -2.55      0.00
   10    2   29     -1.46      0.00
   12    2   29     -4.61      0.00
  -31    3   29     -0.98      0.00
  -29    3   29     -5.27      0.00
  -27    3   29     -0.04      0.00
  -25    3   29      3.42      0.00
  -23    3   29      0.68      0.00
  -21    3   29      1.80      0.00
  -19    3   29     -2.03      0.00
  -17    3   29     -1.57      0.00
  -15    3   29     -0.49      0.00
  -13    3   29      0.84      0.00
  -11    3   29     -3.36      0.00
   -9    3   29     -3.33      0.00
   -7    3   29     -0.94      0.00
   -5    3   29     -5.44      0.00
   -3    3   29      0.50      0.00
   -1    3   29     -0.89      0.00
    1    3   29      2.04      0.00
    3    3   29     -2.74      0.00
    5    3   29     -0.60      0.00
    7    3   29     -0.39      0.00
    9    3   29     -1.26      0.00
   11    3   29      0.08      0.00
  -30    4   29     -0.03      0.00
  -28    4   29     -0.18      0.00
  -26    4   29      0.46      0.00
  -24    4   29     -0.32      0.00
  -22    4   29     -0.58      0.00
  -20    4   29     -2.96      0.00
  -18    4   29      2.57      0.00
  -16    4   29      4.69      0.00
  -14    4   29      0.22      0.00
  -12    4   29     -1.82      0.00
  -10    4   29     -1.15      0.00
   -8    4   29     -3.04      0.00
   -6    4   29     -1.13      0.00
   -4    4   29      0.49      0.00
   -2    4   29      0.73      0.00
    0    4   29     -0.02      0.00
    2    4   29      0.65      0.00
    4    4   29      0.12      0.00
    6    4   29      1.11      0.00
    8    4   29     -0.75      0.00
   10    4   29      0.07      0.00
   12    4   29      2.82      0.00
  -29    5   29     -0.34      0.00
  -27    5   29     -2.88      0.00
  -25    5   29     -0.20      0.00
  -23    5   29      2.18      0.00
  -21    5   29      1.67      0.00
  -19    5   29     -0.44      0.00
  -17    5   29      1.20      0.00
  -15    5   29     -2.92      0.00
  -13    5   29      1.37      0.00
  -11    5   29     -0.95      0.00
   -9    5   29     -2.29      0.00
   -7    5   29     -3.75      0.00
   -5    5   29     -0.50      0.00
   -3    5   29      4.56      0.00
   -1    5   29      4.51      0.00
    1    5   29      1.49      0.00
    3    5   29     -0.20      0.00
    5    5   29      2.81      0.00
    7    5   29     -0.39      0.00
    9    5   29      1.69      0.00
   11    5   29      1.80      0.00
  -28    6   29     -3.13      0.00
  -26    6   29     -3.30      0.00
  -24    6   29      0.59      0.00
  -22    6   29     -1.46      0.00
  -20    6   29     -2.47      0.00
  -18    6   29      1.16      0.00
  -16    6   29      4.40      0.00
  -14    6   29     -5.79      0.00
  -12    6   29     -2.26      0.00
  -10    6   29     -0.63      0.00
   -8    6   29      2.08      0.00
   -6    6   29     -1.05      0.00
   -4    6   29     -4.65      0.00
   -2    6   29      0.30      0.00
    0    6   29      2.99      0.00
    2    6   29      2.60      0.00
    4    6   29      3.59      0.00
    6    6   29      2.14      0.00
    8    6   29      0.77      0.00
   10    6   29     -0.87      0.00
  -27    7   29      2.56      0.00
  -25    7   29     -3.26      0.00
  -23    7   29      0.42      0.00
  -21    7   29      1.17      0.00
  -19    7   29      1.80      0.00
  -17    7   29      1.07      0.00
  -15    7   29      3.01      0.00
  -13    7   29     -1.98      0.00
  -11    7   29      0.90      0.00
   -9    7   29      2.46      0.00
   -7    7   29      0.68      0.00
   -5    7   29     -0.79      0.00
   -3    7   29      0.37      0.00
   -1    7   29     -5.42      0.00
    1    7   29     -0.92      0.00
    3    7   29     -0.66      0.00
    5    7   29      3.57      0.00
    7    7   29     -2.63      0.00
    9    7   29     -1.77      0.00
  -26    8   29      1.02      0.00
  -24    8   29     -1.26      0.00
  -22    8   29      0.72      0.00
  -20    8   29     -3.00      0.00
  -18    8   29     -1.21      0.00
  -16    8   29     -2.26      0.00
  -14    8   29      1.99      0.00
  -12    8   29      0.54      0.00
  -10    8   29      0.76      0.00
   -8    8   29     -3.30      0.00
   -6    8   29     -0.67      0.00
   -4    8   29      1.66      0.00
   -2    8   29      1.91      0.00
    0    8   29      1.73      0.00
    2    8   29      0.89      0.00
    4    8   29     -0.87      0.00
    6    8   29      0.65      0.00
    8    8   29     -2.60      0.00
  -25    9   29     -1.26      0.00
  -23    9   29     -4.47      0.00
  -21    9   29     -4.04      0.00
  -19    9   29      0.63      0.00
  -17    9   29     -2.20      0.00
  -15    9   29     -1.73      0.00
  -13    9   29      0.94      0.00
  -11    9   29     -3.04      0.00
   -9    9   29     -6.99      0.00
   -7    9   29      0.16      0.00
   -5    9   29     -0.47      0.00
   -3    9   29     -1.84      0.00
   -1    9   29      3.40      0.00
    1    9   29      1.36      0.00
    3    9   29      0.59      0.00
    5    9   29     -0.19      0.00
  -24   10   29     -2.47      0.00
  -22   10   29     -1.40      0.00
  -20   10   29     -1.63      0.00
  -18   10   29     -1.55      0.00
  -16   10   29      0.60      0.00
  -14   10   29     -0.01      0.00
  -12   10   29     -0.96      0.00
  -10   10   29      4.66      0.00
   -8   10   29     -0.40      0.00
   -6   10   29     -2.46      0.00
   -4   10   29     -0.82      0.00
   -2   10   29      3.82      0.00
    0   10   29      1.19      0.00
    2   10   29      1.01      0.00
    4   10   29     -1.90      0.00
  -21   11   29     -3.54      0.00
  -19   11   29     -0.39      0.00
  -17   11   29     -4.50      0.00
  -15   11   29     -0.49      0.00
  -13   11   29      1.78      0.00
  -11   11   29      1.94      0.00
   -9   11   29     -4.82      0.00
   -7   11   29     -0.87      0.00
   -5   11   29      0.05      0.00
   -3   11   29      1.13      0.00
   -1   11   29     -1.65      0.00
    1   11   29      0.10      0.00
  -18   12   29     -2.28      0.00
  -16   12   29      2.30      0.00
  -14   12   29      3.27      0.00
  -12   12   29     -3.82      0.00
  -10   12   29     -1.61      0.00
   -8   12   29      1.53      0.00
   -6   12   29      2.47      0.00
   -4   12   29     -0.69      0.00
   -2   12   29      0.30      0.00
  -11   13   29     -0.96      0.00
   -9   13   29     -4.64      0.00
  -30    0   30     -2.26      0.00
  -28    0   30     -0.47      0.00
  -26    0   30      2.39      0.00
  -24    0   30      2.64      0.00
  -22    0   30     -2.05      0.00
  -20    0   30      2.01      0.00
  -18    0   30      0.82      0.00
  -16    0   30      1.25      0.00
  -14    0   30      1.16      0.00
  -12    0   30     -1.39      0.00
  -10    0   30      0.22      0.00
   -8    0   30      0.57      0.00
   -6    0   30      9.23      0.00
   -4    0   30     10.22      0.00
   -2    0   30     -0.96      0.00
    0    0   30     -0.48      0.00
    2    0   30     -5.85      0.00
    4    0   30      0.66      0.00
    6    0   30      4.64      0.00
    8    0   30     -1.65      0.00
   10    0   30     -4.14      0.00
  -31    1   30      2.09      0.00
  -29    1   30      0.74      0.00
  -27    1   30     -1.12      0.00
  -25    1   30     -0.43      0.00
  -23    1   30     -3.58      0.00
  -21    1   30     -3.43      0.00
  -19    1   30     -4.09      0.00
  -17    1   30     -5.52      0.00
  -15    1   30     -0.41      0.00
  -13    1   30      0.66      0.00
  -11    1   30      1.41      0.00
   -9    1   30      2.04      0.00
   -7    1   30     -1.63      0.00
   -5    1   30     -4.50      0.00
   -3    1   30     -0.92      0.00
   -1    1   30     -1.44      0.00
    1    1   30      1.71      0.00
    3    1   30     -2.29      0.00
    5    1   30     -2.38      0.00
    7    1   30     -1.09      0.00
    9    1   30     -0.45      0.00
  -30    2   30     -4.01      0.00
  -28    2   30     -3.07      0.00
  -26    2   30     -1.64      0.00
  -24    2   30     -3.91      0.00
  -22    2   30      0.38      0.00
  -20    2   30     -1.65      0.00
  -18    2   30     -0.66      0.00
  -16    2   30     -1.10      0.00
  -14    2   30     -2.73      0.00
  -12    2   30     -2.99      0.00
  -10    2   30      0.66      0.00
   -8    2   30      0.19      0.00
   -6    2   30      3.56      0.00
   -4    2   30     -1.53      0.00
   -2    2   30     -1.80      0.00
    0    2   30      1.25      0.00
    2    2   30      3.58      0.00
    4    2   30     -3.27      0.00
    6    2   30      0.68      0.00
    8    2   30     -1.61      0.00
   10    2   30      1.31      0.00
  -29    3   30      0.82      0.00
  -27    3   30      2.21      0.00
  -25    3   30      1.11      0.00
  -23    3   30      1.31      0.00
  -21    3   30     -1.82      0.00
  -19    3   30     -2.77      0.00
  -17    3   30      5.41      0.00
  -15    3   30      3.67      0.00
  -13    3   30      1.50      0.00
  -11    3   30     -0.52      0.00
   -9    3   30     -0.63      0.00
   -7    3   30     -1.57      0.00
   -5    3   30      3.76      0.00
   -3    3   30      1.10      0.00
   -1    3   30     -1.57      0.00
    1    3   30     -0.74      0.00
    3    3   30     -0.59      0.00
    5    3   30      2.08      0.00
    7    3   30     -2.27      0.00
    9    3   30     -2.30      0.00
  -28    4   30     -1.81      0.00
  -26    4   30      2.36      0.00
  -24    4   30      1.39      0.00
  -22    4   30      0.70      0.00
  -20    4   30     -0.51      0.00
  -18    4   30      1.89      0.00
  -16    4   30      0.31      0.00
  -14    4   30     -1.22      0.00
  -12    4   30      4.92      0.00
  -10    4   30      0.01      0.00
   -8    4   30      0.31      0.00
   -6    4   30     -0.97      0.00
   -4    4   30     -1.80      0.00
   -2    4   30      1.19      0.00
    0    4   30      0.64      0.00
    2    4   30      0.51      0.00
    4    4   30     -2.43      0.00
    6    4   30     -0.26      0.00
    8    4   30      1.22      0.00
  -29    5   30      0.43      0.00
  -27    5   30      0.32      0.00
  -25    5   30     -3.14      0.00
  -23    5   30      2.19      0.00
  -21    5   30     -3.25      0.00
  -19    5   30     -0.74      0.00
  -17    5   30     -3.28      0.00
  -15    5   30     -3.89      0.00
  -13    5   30     -3.74      0.00
  -11    5   30     -1.21      0.00
   -9    5   30      3.24      0.00
   -7    5   30      1.60      0.00
   -5    5   30      4.75      0.00
   -3    5   30      0.36      0.00
   -1    5   30     -1.17      0.00
    1    5   30      1.55      0.00
    3    5   30      0.45      0.00
    5    5   30      1.21      0.00
    7    5   30      0.04      0.00
    9    5   30      1.15      0.00
  -28    6   30      1.40      0.00
  -26    6   30      1.07      0.00
  -24    6   30     -0.12      0.00
  -22    6   30      1.53      0.00
  -20    6   30     -2.49      0.00
  -18    6   30     -0.70      0.00
  -16    6   30      1.33      0.00
  -14    6   30      0.33      0.00
  -12    6   30      3.69      0.00
  -10    6   30      1.20      0.00
   -8    6   30     -1.56      0.00
   -6    6   30     -1.65      0.00
   -4    6   30     -2.30      0.00
   -2    6   30     -1.33      0.00
    0    6   30     -2.43      0.00
    2    6   30      1.25      0.00
    4    6   30      0.72      0.00
    6    6   30      0.36      0.00
    8    6   30     -1.77      0.00
  -27    7   30      1.29      0.00
  -25    7   30      0.97      0.00
  -23    7   30     -1.04      0.00
  -21    7   30      4.28      0.00
  -19    7   30      2.74      0.00
  -17    7   30     -6.85      0.00
  -15    7   30      4.25      0.00
  -13    7   30      1.63      0.00
  -11    7   30     -1.82      0.00
   -9    7   30      0.78      0.00
   -7    7   30      1.16      0.00
   -5    7   30     -0.74      0.00
   -3    7   30     -1.98      0.00
   -1    7   30      2.77      0.00
    1    7   30      0.71      0.00
    3    7   30     -3.24      0.00
    5    7   30     -0.94      0.00
    7    7   30      1.95      0.00
  -24    8   30     -0.38      0.00
  -22    8   30     -2.78      0.00
  -20    8   30      1.98      0.00
  -18    8   30      0.26      0.00
  -16    8   30     -0.34      0.00
  -14    8   30      1.81      0.00
  -12    8   30      1.11      0.00
  -10    8   30     -4.33      0.00
   -8    8   30      1.13      0.00
   -6    8   30      0.93      0.00
   -4    8   30     -0.96      0.00
   -2    8   30      3.30      0.00
    0    8   30      3.86      0.00
    2    8   30      3.21      0.00
    4    8   30      1.14      0.00
  -23    9   30     -0.13      0.00
  -21    9   30      1.85      0.00
  -19    9   30      1.30      0.00
  -17    9   30     -0.05      0.00
  -15    9   30      1.76      0.00
  -13    9   30      2.76      0.00
  -11    9   30      1.51      0.00
   -9    9   30     -0.37      0.00
   -7    9   30      0.26      0.00
   -5    9   30     -1.57      0.00
   -3    9   30     -0.25      0.00
   -1    9   30      0.34      0.00
    1    9   30     -3.37      0.00
    3    9   30     -1.39      0.00
  -22   10   30     -0.56      0.00
  -20   10   30      4.45      0.00
  -18   10   30      2.90      0.00
  -16   10   30     -0.20      0.00
  -14   10   30      0.46      0.00
  -12   10   30     -0.32      0.00
  -10   10   30      2.97      0.00
   -8   10   30      1.82      0.00
   -6   10   30      0.76      0.00
   -4   10   30      0.51      0.00
   -2   10   30     -0.22      0.00
    0   10   30      2.71      0.00
  -17   11   30      0.53      0.00
  -15   11   30      1.17      0.00
  -13   11   30      0.57      0.00
  -11   11   30     -7.17      0.00
   -9   11   30     -3.22      0.00
   -7   11   30     -0.64      0.00
   -5   11   30      2.59      0.00
   -3   11   30     -0.89      0.00
   -1   11   30      1.08      0.00
  -12   12   30     -0.14      0.00
  -10   12   30      0.22      0.00
   -8   12   30     -2.65      0.00
  -27    1   31      1.19      0.00
  -25    1   31      2.57      0.00
  -23    1   31      1.88      0.00
  -21    1   31      1.98      0.00
  -19    1   31      0.51      0.00
  -17    1   31      3.87      0.00
  -15    1   31     -2.82      0.00
  -13    1   31     -1.68      0.00
  -11    1   31     -1.35      0.00
   -9    1   31      0.13      0.00
   -7    1   31      1.20      0.00
   -5    1   31     -6.95      0.00
   -3    1   31     -1.84      0.00
   -1    1   31      0.03      0.00
    1    1   31      4.75      0.00
    3    1   31     -0.86      0.00
    5    1   31     -1.83      0.00
    7    1   31      3.02      0.00
  -28    2   31     -2.32      0.00
  -26    2   31     -3.29      0.00
  -24    2   31      1.34      0.00
  -22    2   31      0.78      0.00
  -20    2   31     -0.81      0.00
  -18    2   31      3.05      0.00
  -16    2   31     -3.94      0.00
  -14    2   31     -1.99      0.00
  -12    2   31      2.08      0.00
  -10    2   31     -1.39      0.00
   -8    2   31     -2.17      0.00
   -6    2   31      2.38      0.00
   -4    2   31     -1.10      0.00
   -2    2   31     -0.99      0.00
    0    2   31     -4.89      0.00
    2    2   31      0.56      0.00
    4    2   31      2.55      0.00
    6    2   31     -0.51      0.00
    8    2   31     -0.89      0.00
  -27    3   31      1.89      0.00
  -25    3   31      0.95      0.00
  -23    3   31      4.25      0.00
  -21    3   31      3.59      0.00
  -19    3   31      2.30      0.00
  -17    3   31      2.31      0.00
  -15    3   31     -0.15      0.00
  -13    3   31      1.41      0.00
  -11    3   31     -2.54      0.00
   -9    3   31      1.17      0.00
   -7    3   31     -2.26      0.00
   -5    3   31     -0.30      0.00
   -3    3   31      2.02      0.00
   -1    3   31      2.66      0.00
    1    3   31     -0.92      0.00
    3    3   31     -4.47      0.00
    5    3   31     -0.83      0.00
    7    3   31     -0.97      0.00
  -28    4   31      1.85      0.00
  -26    4   31     -0.60      0.00
  -24    4   31      0.32      0.00
  -22    4   31     -8.23      0.00
  -20    4   31     -2.21      0.00
  -18    4   31     -0.06      0.00
  -16    4   31     -0.45      0.00
  -14    4   31     -1.26      0.00
  -12    4   31     -1.11      0.00
  -10    4   31      1.32      0.00
   -8    4   31      0.76      0.00
   -6    4   31      2.08      0.00
   -4    4   31     -1.30      0.00
   -2    4   31      0.46      0.00
    0    4   31      2.13      0.00
    2    4   31      3.32      0.00
    4    4   31     -0.34      0.00
    6    4   31      1.17      0.00
  -27    5   31     -0.41      0.00
  -25    5   31     -3.80      0.00
  -23    5   31      1.44      0.00
  -21    5   31      3.01      0.00
  -19    5   31     -1.30      0.00
  -17    5   31     -3.71      0.00
  -15    5   31     -1.93      0.00
  -13    5   31     -1.50      0.00
  -11    5   31      0.67      0.00
   -9    5   31     -1.29      0.00
   -7    5   31     -1.11      0.00
   -5    5   31      0.85      0.00
   -3    5   31      2.95      0.00
   -1    5   31     -0.41      0.00
    1    5   31     -2.01      0.00
    3    5   31      0.90      0.00
    5    5   31      2.50      0.00
  -26    6   31      7.27      0.00
  -24    6   31     -0.04      0.00
  -22    6   31      3.04      0.00
  -20    6   31     -0.32      0.00
  -18    6   31     -2.90      0.00
  -16    6   31      6.69      0.00
  -14    6   31      7.29      0.00
  -12    6   31     -0.02      0.00
  -10    6   31     -1.32      0.00
   -8    6   31      0.05      0.00
   -6    6   31     -5.25      0.00
   -4    6   31     -4.48      0.00
   -2    6   31      3.32      0.00
    0    6   31      0.97      0.00
    2    6   31     -0.45      0.00
    4    6   31      0.35      0.00
  -25    7   31     -1.33      0.00
  -23    7   31     -1.02      0.00
  -21    7   31      2.35      0.00
  -19    7   31      2.16      0.00
  -17    7   31     -1.34      0.00
  -15    7   31      0.58      0.00
  -13    7   31     -1.32      0.00
  -11    7   31      3.18      0.00
   -9    7   31      4.44      0.00
   -7    7   31      2.75      0.00
   -5    7   31     -2.32      0.00
   -3    7   31     -2.69      0.00
   -1    7   31      1.62      0.00
    1    7   31     -0.82      0.00
    3    7   31     -0.42      0.00
  -22    8   31      2.50      0.00
  -20    8   31     -2.46      0.00
  -18    8   31      1.89      0.00
  -16    8   31      2.18      0.00
  -14    8   31      1.29      0.00
  -12    8   31      1.82      0.00
  -10    8   31      0.91      0.00
   -8    8   31     -0.72      0.00
   -6    8   31      1.86      0.00
   -4    8   31      1.12      0.00
   -2    8   31      1.62      0.00
    0    8   31     -2.16      0.00
    2    8   31      1.11      0.00
  -21    9   31     -0.03      0.00
  -19    9   31     -0.92      0.00
  -17    9   31     -3.47      0.00
  -15    9   31     -0.15      0.00
  -13    9   31     -0.09      0.00
  -11    9   31     -2.59      0.00
   -9    9   31     -1.99      0.00
   -7    9   31     -1.20      0.00
   -5    9   31     -2.15      0.00
   -3    9   31     -5.19      0.00
   -1    9   31      0.41      0.00
  -18   10   31      2.85      0.00
  -16   10   31      0.24      0.00
  -14   10   31     -2.12      0.00
  -12   10   31     -3.91      0.00
  -10   10   31     -0.12      0.00
   -8   10   31     -2.79      0.00
   -6   10   31      0.26      0.00
   -4   10   31     -2.19      0.00
   -2   10   31     -4.99      0.00
  -11   11   31      3.60      0.00
   -9   11   31     -1.32      0.00
  -26    0   32      5.54      0.00
  -24    0   32      9.11      0.00
  -22    0   32      0.60      0.00
  -20    0   32     -3.30      0.00
  -18    0   32     -0.06      0.00
  -16    0   32      0.42      0.00
  -14    0   32      5.75      0.00
  -12    0   32     -1.22      0.00
  -10    0   32      0.95      0.00
   -8    0   32      4.71      0.00
   -6    0   32      1.43      0.00
   -4    0   32     -2.04      0.00
   -2    0   32     -0.11      0.00
    0    0   32     -1.99      0.00
    2    0   32      6.87      0.00
    4    0   32      1.23      0.00
    6    0   32      1.95      0.00
  -27    1   32      1.93      0.00
  -25    1   32      1.49      0.00
  -23    1   32     -1.37      0.00
  -21    1   32     -0.13      0.00
  -19    1   32      2.72      0.00
  -17    1   32     -1.18      0.00
  -15    1   32     -5.05      0.00
  -13    1   32     -2.44      0.00
  -11    1   32     -1.75      0.00
   -9    1   32      1.38      0.00
   -7    1   32     -0.41      0.00
   -5    1   32      1.94      0.00
   -3    1   32      1.67      0.00
   -1    1   32     -3.74      0.00
    1    1   32      3.51      0.00
    3    1   32      1.22      0.00
    5    1   32     -1.75      0.00
  -26    2   32     -3.03      0.00
  -24    2   32      0.55      0.00
  -22    2   32      0.38      0.00
  -20    2   32     -0.51      0.00
  -18    2   32     -0.76      0.00
  -16    2   32      0.04      0.00
  -14    2   32     -1.22      0.00
  -12    2   32     -0.30      0.00
  -10    2   32      0.93      0.00
   -8    2   32     -0.01      0.00
   -6    2   32      2.96      0.00
   -4    2   32      0.80      0.00
   -2    2   32      1.00      0.00
    0    2   32     -0.02      0.00
    2    2   32     -1.79      0.00
    4    2   32      2.10      0.00
    6    2   32      0.55      0.00
  -27    3   32      0.46      0.00
  -25    3   32      1.46      0.00
  -23    3   32     -1.57      0.00
  -21    3   32      0.96      0.00
  -19    3   32     -1.89      0.00
  -17    3   32      0.23      0.00
  -15    3   32      4.70      0.00
  -13    3   32     -4.00      0.00
  -11    3   32     -3.79      0.00
   -9    3   32     -1.36      0.00
   -7    3   32      1.92      0.00
   -5    3   32      6.53      0.00
   -3    3   32      2.84      0.00
   -1    3   32      0.61      0.00
    1    3   32     -0.43      0.00
    3    3   32     -0.31      0.00
    5    3   32     -2.78      0.00
  -26    4   32      2.22      0.00
  -24    4   32     -2.44      0.00
  -22    4   32     -0.16      0.00
  -20    4   32      1.50      0.00
  -18    4   32      0.25      0.00
  -16    4   32     -0.57      0.00
  -14    4   32     -0.79      0.00
  -12    4   32      0.11      0.00
  -10    4   32     -0.25      0.00
   -8    4   32     -2.39      0.00
   -6    4   32     -3.21      0.00
   -4    4   32      0.37      0.00
   -2    4   32     -0.80      0.00
    0    4   32     -1.29      0.00
    2    4   32      2.92      0.00
    4    4   32     -2.44      0.00
  -25    5   32     -1.53      0.00
  -23    5   32      4.06      0.00
  -21    5   32      3.72      0.00
  -19    5   32     -4.18      0.00
  -17    5   32      1.21      0.00
  -15    5   32      1.96      0.00
  -13    5   32      0.34      0.00
  -11    5   32     -0.55      0.00
   -9    5   32      1.01      0.00
   -7    5   32     -1.42      0.00
   -5    5   32     -0.24      0.00
   -3    5   32     -0.21      0.00
   -1    5   32      0.94      0.00
    1    5   32     -4.23      0.00
    3    5   32      0.38      0.00
  -24    6   32      0.47      0.00
  -22    6   32     -0.67      0.00
  -20    6   32      0.66      0.00
  -18    6   32      1.29      0.00
  -16    6   32      0.91      0.00
  -14    6   32      3.08      0.00
  -12    6   32      4.20      0.00
  -10    6   32     -4.10      0.00
   -8    6   32      0.12      0.00
   -6    6   32     -1.24      0.00
   -4    6   32     -1.68      0.00
   -2    6   32     -0.22      0.00
    0    6   32     -0.22      0.00
    2    6   32      0.28      0.00
  -21    7   32     -0.39      0.00
  -19    7   32      5.59      0.00
  -17    7   32      2.67      0.00
  -15    7   32     -0.60      0.00
  -13    7   32     -3.13      0.00
  -11    7   32      3.83      0.00
   -9    7   32     -0.24      0.00
   -7    7   32     -1.48      0.00
   -5    7   32     -0.72      0.00
   -3    7   32      0.33      0.00
   -1    7   32      1.80      0.00
    1    7   32      0.66      0.00
  -20    8   32     -1.31      0.00
  -18    8   32      0.34      0.00
  -16    8   32     -2.16      0.00
  -14    8   32      3.25      0.00
  -12    8   32     -3.17      0.00
  -10    8   32     -4.99      0.00
   -8    8   32     -0.93      0.00
   -6    8   32      1.58      0.00
   -4    8   32     -2.52      0.00
   -2    8   32     -1.44      0.00
  -17    9   32     -0.03      0.00
  -15    9   32     -0.67      0.00
  -13    9   32      1.43      0.00
  -11    9   32     -1.99      0.00
   -9    9   32     -1.82      0.00
   -7    9   32     -0.78      0.00
   -5    9   32      1.50      0.00
  -25    1   33     -4.23      0.00
  -23    1   33      2.47      0.00
  -21    1   33      0.52      0.00
  -19    1   33      2.48      0.00
  -17    1   33      3.34      0.00
  -15    1   33     -6.96      0.00
  -13    1   33     -1.99      0.00
  -11    1   33      0.27      0.00
   -9    1   33     -0.56      0.00
   -7    1   33     -1.04      0.00
   -5    1   33     -1.19      0.00
   -3    1   33     -1.85      0.00
   -1    1   33      2.17      0.00
    1    1   33     -4.73      0.00
    3    1   33      0.25      0.00
  -24    2   33     -2.23      0.00
  -22    2   33     -0.93      0.00
  -20    2   33     -1.30      0.00
  -18    2   33     -4.97      0.00
  -16    2   33      1.75      0.00
  -14    2   33     -1.03      0.00
  -12    2   33     -2.75      0.00
  -10    2   33     -3.44      0.00
   -8    2   33      0.53      0.00
   -6    2   33      0.56      0.00
   -4    2   33     -4.36      0.00
   -2    2   33     -1.05      0.00
    0    2   33     -2.97      0.00
    2    2   33     -0.69      0.00
  -23    3   33      1.67      0.00
  -21    3   33      1.66      0.00
  -19    3   33      0.24      0.00
  -17    3   33      0.54      0.00
  -15    3   33     -1.44      0.00
  -13    3   33     -3.69      0.00
  -11    3   33      1.60      0.00
   -9    3   33      0.61      0.00
   -7    3   33     -2.44      0.00
   -5    3   33      2.30      0.00
   -3    3   33      0.19      0.00
   -1    3   33      0.20      0.00
    1    3   33      0.29      0.00
  -22    4   33     -5.09      0.00
  -20    4   33     -0.76      0.00
  -18    4   33      5.62      0.00
  -16    4   33     -1.02      0.00
  -14    4   33      0.14      0.00
  -12    4   33     -0.59      0.00
  -10    4   33     -1.23      0.00
   -8    4   33      0.54      0.00
   -6    4   33     -2.76      0.00
   -4    4   33     -4.04      0.00
   -2    4   33      1.36      0.00
    0    4   33      0.57      0.00
    2    4   33      1.55      0.00
  -21    5   33     -1.66      0.00
  -19    5   33     -4.53      0.00
  -17    5   33     -2.31      0.00
  -15    5   33      1.71      0.00
  -13    5   33      5.50      0.00
  -11    5   33     -1.57      0.00
   -9    5   33     -1.23      0.00
   -7    5   33      0.63      0.00
   -5    5   33      1.66      0.00
   -3    5   33      2.83      0.00
   -1    5   33      1.34      0.00
  -20    6   33      2.55      0.00
  -18    6   33      2.93      0.00
  -16    6   33      1.59      0.00
  -14    6   33     -2.85      0.00
  -12    6   33     -1.80      0.00
  -10    6   33     -1.02      0.00
   -8    6   33     -1.05      0.00
   -6    6   33     -0.31      0.00
   -4    6   33      1.67      0.00
   -2    6   33      0.18      0.00
  -19    7   33     -1.30      0.00
  -17    7   33     -3.12      0.00
  -15    7   33     -0.45      0.00
  -13    7   33      0.67      0.00
  -11    7   33      4.04      0.00
   -9    7   33      2.86      0.00
   -7    7   33     -0.78      0.00
   -5    7   33     -1.38      0.00
   -3    7   33     -0.32      0.00
  -16    8   33     -4.13      0.00
  -14    8   33      3.69      0.00
  -12    8   33     -2.46      0.00
  -10    8   33      0.09      0.00
   -8    8   33      3.69      0.00
   -6    8   33      9.48      0.00
  -22    0   34     -6.57      0.00
  -20    0   34     -6.98      0.00
  -18    0   34      2.51      0.00
  -16    0   34     -1.61      0.00
  -14    0   34     -0.87      0.00
  -12    0   34     -2.50      0.00
  -10    0   34     -3.49      0.00
   -8    0   34     -3.80      0.00
   -6    0   34     -2.96      0.00
   -4    0   34      0.88      0.00
   -2    0   34     -1.17      0.00
    0    0   34     -6.05      0.00
  -21    1   34      2.66      0.00
  -19    1   34     -3.37      0.00
  -17    1   34     -3.44      0.00
  -15    1   34     -3.73      0.00
  -13    1   34     -1.02      0.00
  -11    1   34     -4.05      0.00
   -9    1   34      0.29      0.00
   -7    1   34     -1.91      0.00
   -5    1   34     -3.54      0.00
   -3    1   34     -1.56      0.00
   -1    1   34     -1.87      0.00
  -22    2   34     -3.59      0.00
  -20    2   34     -0.41      0.00
  -18    2   34     -2.45      0.00
  -16    2   34      1.34      0.00
  -14    2   34     -1.33      0.00
  -12    2   34     -0.69      0.00
  -10    2   34      0.35      0.00
   -8    2   34     -2.75      0.00
   -6    2   34      2.17      0.00
   -4    2   34      1.15      0.00
   -2    2   34      0.94      0.00
  -21    3   34     -3.61      0.00
  -19    3   34      1.46      0.00
  -17    3   34      0.37      0.00
  -15    3   34      1.35      0.00
  -13    3   34     -0.52      0.00
  -11    3   34     -4.52      0.00
   -9    3   34     -0.47      0.00
   -7    3   34      1.93      0.00
   -5    3   34      3.41      0.00
   -3    3   34      0.37      0.00
   -1    3   34     -2.05      0.00
  -20    4   34      0.70      0.00
  -18    4   34      2.89      0.00
  -16    4   34      0.82      0.00
  -14    4   34      4.76      0.00
  -12    4   34     -0.56      0.00
  -10    4   34     -2.98      0.00
   -8    4   34     -0.65      0.00
   -6    4   34     -4.40      0.00
   -4    4   34      0.04      0.00
   -2    4   34      0.65      0.00
  -19    5   34     -3.83      0.00
  -17    5   34     -1.77      0.00
  -15    5   34      0.93      0.00
  -13    5   34      0.07      0.00
  -11    5   34      2.68      0.00
   -9    5   34     -0.50      0.00
   -7    5   34     -0.60      0.00
   -5    5   34      3.49      0.00
  -16    6   34     -1.21      0.00
  -14    6   34      0.15      0.00
  -12    6   34      2.97      0.00
  -10    6   34      2.43      0.00
   -8    6   34      0.57      0.00
  -17    1   35      1.18      0.00
  -15    1   35     -1.75      0.00
  -13    1   35     -0.64      0.00
  -11    1   35      1.70      0.00
   -9    1   35      1.23      0.00
   -7    1   35      3.06      0.00
   -5    1   35     -2.37      0.00
  -16    2   35      3.00      0.00
  -14    2   35      0.17      0.00
  -12    2   35     -1.72      0.00
  -10    2   35     -0.96      0.00
   -8    2   35      3.54      0.00
   -6    2   35      3.33      0.00
  -15    3   35      1.78      0.00
  -13    3   35      0.51      0.00
  -11    3   35     -1.02      0.00
   -9    3   35      0.30      0.00
   -7    3   35     -2.14      0.00
  -12    4   35      0.11      0.00
  -10    4   35      2.96      0.00
    5    3    0    132.58      0.00
   39    3    0      0.36      0.00
   38    6    0      0.18      0.00
   21   19    0     -1.51      0.00
   18   20    0      0.23      0.00
    8   22    0     -3.66      0.00
   -1    1    1   -681.96      0.00
   39    1    1     -4.55      0.00
    8    6    1    -27.76      0.00
   37    7    1     -4.37      0.00
   29   15    1      1.44      0.00
  -28   16    1      1.77      0.00
  -24   16    1     -6.32      0.00
  -24   18    1     -8.42      0.00
   21   19    1     -0.27      0.00
   18   20    1     -4.13      0.00
  -15   21    1      1.06      0.00
    8   22    1     -2.47      0.00
  -40    0    2     -2.31      0.00
   -2    0    2    189.04      0.00
  -31    3    2      3.35      0.00
   38    4    2     -0.77      0.00
  -39    5    2     -1.45      0.00
   36    8    2      1.81      0.00
  -36   10    2     -3.21      0.00
  -35   11    2      0.67      0.00
  -34   12    2     -1.43      0.00
   30   14    2      6.02      0.00
   25   17    2     -4.29      0.00
  -24   18    2      1.85      0.00
  -15   21    2      0.74      0.00
   -8   22    2     -2.76      0.00
    8   22    2     -2.06      0.00
  -40    2    3      1.87      0.00
   38    2    3     -0.97      0.00
    2    8    3     -4.08      0.00
  -37    9    3     -3.11      0.00
   -1    9    3     12.22      0.00
   35    9    3      0.94      0.00
  -36   10    3      1.99      0.00
   34   10    3      0.43      0.00
  -35   11    3      1.85      0.00
   33   11    3     -3.09      0.00
  -34   12    3     -1.38      0.00
   32   12    3      2.84      0.00
  -33   13    3     -2.61      0.00
   31   13    3     -1.68      0.00
  -15   21    3     -0.29      0.00
   13   21    3      3.09      0.00
   -8   22    3      1.57      0.00
    6   22    3      5.11      0.00
   -4    0    4    209.22      0.00
  -40    4    4      1.95      0.00
   37    5    4     -0.03      0.00
  -38    8    4     -0.67      0.00
  -37    9    4     -1.11      0.00
  -33   13    4      3.51      0.00
  -32   14    4      0.08      0.00
   26   16    4      0.68      0.00
  -27   17    4     -0.93      0.00
   22   18    4      0.68      0.00
   19   19    4     -1.04      0.00
   16   20    4      6.04      0.00
  -15   21    4     -0.36      0.00
   -8   22    4     -0.53      0.00
    6   22    4      3.52      0.00
   37    3    5      2.55      0.00
  -40    4    5     -3.95      0.00
   36    6    5      1.17      0.00
  -38    8    5     -6.21      0.00
  -33   13    5      0.28      0.00
  -32   14    5     -2.52      0.00
   27   15    5      2.07      0.00
  -27   17    5     -1.59      0.00
   19   19    5     -1.22      0.00
   16   20    5      0.10      0.00
  -15   21    5      3.36      0.00
   11   21    5      6.14      0.00
   -8   22    5     -0.37      0.00
    4   22    5      0.39      0.00
  -20    0    6     16.07      0.00
  -40    4    6      1.11      0.00
   36    4    6     -4.18      0.00
  -39    7    6     -1.82      0.00
   35    7    6     -3.26      0.00
  -32   14    6      0.10      0.00
   28   14    6      1.07      0.00
  -27   17    6     -1.44      0.00
   23   17    6     -3.47      0.00
  -15   21    6     -1.53      0.00
    1   21    6      7.38      0.00
   11   21    6      2.33      0.00
   -8   22    6      6.39      0.00
   -6   22    6      1.80      0.00
    2   22    6      1.42      0.00
    4   22    6      4.98      0.00
  -41    1    7     -1.86      0.00
   36    2    7     -1.42      0.00
  -39    7    7      1.05      0.00
   33    9    7      3.59      0.00
   32   10    7     -0.01      0.00
   31   11    7     -2.46      0.00
   30   12    7      2.53      0.00
   29   13    7     -3.79      0.00
  -32   14    7     -0.70      0.00
  -27   17    7     -8.26      0.00
   20   18    7     -4.72      0.00
   17   19    7     -1.43      0.00
   14   20    7     -3.46      0.00
    9   21    7      0.33      0.00
   -6   22    7     -2.45      0.00
   -4   22    7     -1.46      0.00
   -2   22    7      2.38      0.00
    0   22    7     -3.42      0.00
    2   22    7      0.80      0.00
  -41    1    8      2.32      0.00
  -39    7    8     -3.00      0.00
  -32   14    8     -1.74      0.00
  -27   17    8     -1.44      0.00
    9   21    8     -3.01      0.00
   -4   22    8      0.97      0.00
   -2   22    8     -4.25      0.00
    0   22    8     -7.79      0.00
  -41    1    9     -0.73      0.00
   35    1    9     -4.71      0.00
  -39    7    9     -2.06      0.00
   33    7    9      1.06      0.00
  -32   14    9      2.19      0.00
   26   14    9      1.49      0.00
  -27   17    9      0.18      0.00
   21   17    9     -3.74      0.00
  -18   20    9     -0.31      0.00
   12   20    9      5.38      0.00
  -13   21    9     -4.58      0.00
    7   21    9      6.65      0.00
  -41    1   10     -1.79      0.00
   34    4   10     -0.71      0.00
  -39    7   10     -0.21      0.00
   32    8   10     -0.71      0.00
   31    9   10     -1.83      0.00
   28   12   10      4.06      0.00
   27   13   10     -1.08      0.00
  -32   14   10     -2.82      0.00
   22   16   10      4.19      0.00
  -27   17   10      0.04      0.00
  -24   18   10     -3.50      0.00
   18   18   10      5.53      0.00
   15   19   10      0.44      0.00
  -18   20   10      4.83      0.00
  -13   21   10     -7.07      0.00
    5   21   10     -1.69      0.00
  -41    1   11     -2.81      0.00
  -39    7   11     -3.06      0.00
  -31    7   11      5.36      0.00
  -32   14   11     -0.88      0.00
   23   15   11      0.19      0.00
   19   17   11      0.85      0.00
  -24   18   11      1.90      0.00
  -21   19   11     -0.97      0.00
   10   20   11     -5.73      0.00
  -11   21   11     -1.52      0.00
    3   21   11      4.38      0.00
  -41    1   12     -0.96      0.00
   33    1   12     -6.99      0.00
  -39    7   12      1.93      0.00
   31    7   12     -0.74      0.00
  -32   14   12      2.10      0.00
   24   14   12     -0.58      0.00
  -24   18   12     -5.57      0.00
   16   18   12     -3.33      0.00
   13   19   12      0.57      0.00
  -16   20   12     -4.31      0.00
    8   20   12     -1.46      0.00
   -9   21   12     -2.51      0.00
    1   21   12     -2.01      0.00
  -41    1   13      2.44      0.00
  -39    7   13     -2.60      0.00
   29    9   13     -0.06      0.00
   28   10   13      0.67      0.00
   27   11   13     -2.46      0.00
   26   12   13     -1.03      0.00
  -33   13   13     -1.48      0.00
  -28   16   13     -1.03      0.00
   17   17   13     -3.12      0.00
   11   19   13     -7.06      0.00
  -16   20   13      1.61      0.00
   -7   21   13      3.86      0.00
   -5   21   13     -0.87      0.00
   -3   21   13     -2.48      0.00
   -1   21   13      5.22      0.00
  -41    1   14     -0.46      0.00
   30    6   14     -0.79      0.00
  -38    8   14     -1.25      0.00
  -34   12   14      2.64      0.00
  -33   13   14     -2.20      0.00
   22   14   14      3.82      0.00
  -28   16   14      4.68      0.00
    6   18   14      1.31      0.00
  -19   19   14     -3.27      0.00
  -14   20   14     -2.92      0.00
    4   20   14     -1.44      0.00
  -40    4   15      2.34      0.00
   30    4   15     -3.01      0.00
  -38    8   15     -0.02      0.00
   28    8   15      0.75      0.00
  -37    9   15     -2.38      0.00
   27    9   15      0.48      0.00
  -36   10   15      6.95      0.00
   26   10   15      5.71      0.00
  -35   11   15     -3.93      0.00
   25   11   15     -1.45      0.00
  -34   12   15      4.64      0.00
   24   12   15      0.48      0.00
  -25   17   15      2.55      0.00
   15   17   15      5.70      0.00
  -22   18   15     -3.07      0.00
    4   18   15      2.20      0.00
   12   18   15     -8.79      0.00
  -12   20   15     -3.65      0.00
    2   20   15    -10.63      0.00
   30    0   16      1.65      0.00
  -40    4   16      2.05      0.00
   29    5   16     -0.60      0.00
  -37    9   16      3.92      0.00
  -36   10   16     -1.49      0.00
  -35   11   16     -1.33      0.00
   20   14   16     -0.71      0.00
  -29   15   16      1.04      0.00
   16   16   16      1.29      0.00
   10   18   16     -2.33      0.00
  -17   19   16     -1.61      0.00
    7   19   16     -3.05      0.00
  -10   20   16     -1.10      0.00
   -2   20   16     -0.29      0.00
    0   20   16      2.60      0.00
   29    1   17     -2.12      0.00
  -40    2   17      1.21      0.00
   27    7   17      0.35      0.00
   26    8   17      0.36      0.00
   23   11   17      0.78      0.00
   22   12   17      1.10      0.00
  -30   14   17     -4.80      0.00
   17   15   17     -6.11      0.00
  -26   16   17     -0.40      0.00
  -20   18   17     -2.21      0.00
  -15   19   17     -0.70      0.00
    5   19   17      2.91      0.00
  -40    0   18      1.34      0.00
   28    0   18     -4.16      0.00
  -40    2   18      1.86      0.00
   28    2   18      3.36      0.00
  -39    5   18      2.41      0.00
   27    5   18      0.23      0.00
   18   14   18      1.84      0.00
  -23   17   18      2.04      0.00
   11   17   18     -4.53      0.00
  -13   19   18     -0.12      0.00
    1   19   18     -2.24      0.00
   27    1   19      2.07      0.00
  -38    6   19     -5.02      0.00
   25    7   19     -1.67      0.00
   24    8   19     -2.19      0.00
   23    9   19      2.66      0.00
   22   10   19     -2.86      0.00
   21   11   19     -3.20      0.00
  -31   13   19     -3.16      0.00
  -27   15   19      1.27      0.00
   12   16   19      0.85      0.00
    9   17   19      0.09      0.00
  -18   18   19      2.45      0.00
  -11   19   19      1.72      0.00
   -9   19   19      1.63      0.00
   -7   19   19      4.81      0.00
   -5   19   19      4.02      0.00
   -3   19   19      2.88      0.00
   26    0   20     -2.21      0.00
   26    2   20     -1.87      0.00
  -39    3   20      0.76      0.00
   25    5   20      2.31      0.00
  -37    7   20      0.93      0.00
  -36    8   20     -4.38      0.00
   12    8   20     -3.05      0.00
   11    9   20      1.56      0.00
  -33   11   20     -2.26      0.00
   17   13   20      0.60      0.00
  -28   14   20      3.09      0.00
   13   15   20      1.18      0.00
   10   16   20      0.98      0.00
    7   17   20     -5.19      0.00
  -16   18   20      3.22      0.00
    2   18   20      5.33      0.00
  -39    1   21      3.05      0.00
   25    1   21     -0.45      0.00
  -38    4   21     -1.83      0.00
   24    4   21      3.14      0.00
   12    8   21     -0.05      0.00
   21    9   21      1.86      0.00
   20   10   21      2.02      0.00
  -25   15   21     -3.83      0.00
   11   15   21     -1.88      0.00
  -22   16   21     -3.77      0.00
    8   16   21     -5.20      0.00
  -19   17   21      1.84      0.00
    5   17   21     -5.81      0.00
  -12   18   21     -1.13      0.00
   -4   18   21     -3.04      0.00
   -2   18   21     -0.66      0.00
   24    0   22     -4.65      0.00
  -35    1   22      3.04      0.00
  -38    2   22      0.90      0.00
  -37    5   22     -0.80      0.00
   22    6   22      0.61      0.00
   14   10   22      9.25      0.00
   17   11   22     -5.01      0.00
  -30   12   22     -0.08      0.00
   12   14   22     -1.80      0.00
    9   15   22      7.15      0.00
    6   16   22      6.00      0.00
  -17   17   22     -0.88      0.00
    1   17   22     -0.91      0.00
   22    4   23     -2.45      0.00
   21    5   23     -3.61      0.00
  -36    6   23      0.31      0.00
  -32   10   23      3.77      0.00
  -31   11   23     -3.39      0.00
   14   12   23     -1.22      0.00
   10   14   23      1.45      0.00
  -23   15   23      1.46      0.00
    7   15   23      0.26      0.00
    4   16   23      2.07      0.00
  -13   17   23     -2.33      0.00
   -3   17   23     -4.41      0.00
   -1   17   23     -1.88      0.00
  -37    1   24      3.69      0.00
   21    1   24      0.46      0.00
   21    3   24     -1.86      0.00
   18    8   24      2.20      0.00
   17    9   24     -3.87      0.00
  -24   14   24     -2.44      0.00
    8   14   24     -7.88      0.00
  -21   15   24      3.68      0.00
    5   15   24     -3.67      0.00
  -16   16   24      1.43      0.00
    0   16   24     -1.94      0.00
  -36    2   25      2.38      0.00
  -35    5   25     -0.72      0.00
   18    6   25      6.83      0.00
   17    7   25     -2.26      0.00
   16    8   25     -1.23      0.00
   15    9   25      1.53      0.00
   14   10   25      0.73      0.00
  -29   11   25      2.74      0.00
  -25   13   25     -2.38      0.00
  -22   14   25      2.33      0.00
    6   14   25      1.48      0.00
  -19   15   25      0.95      0.00
  -12   16   25      0.25      0.00
  -10   16   25     -0.88      0.00
   -6   16   25     -2.90      0.00
   -4   16   25      0.87      0.00
   18    2   26      4.18      0.00
  -35    3   26      1.30      0.00
   17    5   26      0.74      0.00
  -33    7   26     -3.03      0.00
  -32    8   26      0.18      0.00
  -31    9   26     -2.54      0.00
   12   10   26      0.93      0.00
  -26   12   26     -1.97      0.00
  -23   13   26     -3.50      0.00
    5   13   26     -4.60      0.00
  -20   14   26     -1.44      0.00
  -15   15   26      2.10      0.00
   -1   15   26     -2.47      0.00
  -35    1   27      2.54      0.00
   17    1   27      0.96      0.00
   16    2   27     -8.93      0.00
  -34    4   27      4.04      0.00
   16    4   27      3.43      0.00
  -28   10   27     -0.13      0.00
   10   10   27     -0.64      0.00
    5   11   27     -2.18      0.00
  -24   12   27     -2.26      0.00
    6   12   27     -5.95      0.00
  -21   13   27     -3.09      0.00
    3   13   27      2.20      0.00
  -18   14   27     -2.53      0.00
    0   14   27     -0.39      0.00
  -34    0   28     -2.99      0.00
   -4    0   28     -3.11      0.00
    8    0   28     -2.61      0.00
   15    1   28     -3.42      0.00
  -33    3   28      0.05      0.00
   15    3   28      3.30      0.00
   14    4   28      3.01      0.00
    8   10   28      3.03      0.00
  -25   11   28     -2.94      0.00
  -22   12   28     -3.43      0.00
    4   12   28     -0.35      0.00
  -19   13   28      0.68      0.00
  -12   14   28      3.17      0.00
  -10   14   28      0.06      0.00
   -8   14   28      1.60      0.00
   -6   14   28      4.12      0.00
   13    3   29      2.01      0.00
  -31    5   29      0.50      0.00
  -30    6   29     -3.31      0.00
  -29    7   29      1.87      0.00
  -28    8   29     -1.62      0.00
  -27    9   29     -4.64      0.00
    7    9   29      1.44      0.00
    6   10   29     -3.52      0.00
  -23   11   29     -0.86      0.00
    3   11   29     -1.30      0.00
  -20   12   29      0.03      0.00
    0   12   29      5.57      0.00
  -15   13   29     -3.46      0.00
  -13   13   29      0.68      0.00
   -7   13   29     -7.22      0.00
   -5   13   29     -0.71      0.00
   11    1   30     -4.62      0.00
  -31    3   30      0.56      0.00
   11    3   30      4.61      0.00
  -30    4   30      2.34      0.00
   10    4   30     -1.07      0.00
  -26    8   30      0.58      0.00
    6    8   30     -0.43      0.00
  -25    9   30     -4.80      0.00
    5    9   30     -1.39      0.00
    2   10   30      2.47      0.00
  -19   11   30     -0.09      0.00
  -16   12   30      0.24      0.00
  -14   12   30      1.06      0.00
   -6   12   30     -2.17      0.00
   -4   12   30     -0.99      0.00
  -29    1   31      0.05      0.00
    9    1   31      4.57      0.00
  -30    2   31      0.13      0.00
  -29    3   31      0.00      0.00
    9    3   31      0.18      0.00
    8    4   31      2.76      0.00
    7    5   31      2.64      0.00
    6    6   31      4.39      0.00
    5    7   31     -0.64      0.00
  -24    8   31      5.18      0.00
    4    8   31      2.65      0.00
    1    9   31      2.65      0.00
  -20   10   31     -2.60      0.00
  -15   11   31      0.93      0.00
  -13   11   31      6.38      0.00
   -7   11   31     -3.11      0.00
   -5   11   31     -0.92      0.00
  -28    0   32      1.65      0.00
    7    1   32      2.20      0.00
  -28    2   32     -2.22      0.00
    6    4   32      5.44      0.00
    5    5   32      1.90      0.00
    4    6   32     -2.86      0.00
  -23    7   32      2.30      0.00
  -22    8   32     -1.26      0.00
    0    8   32      3.75      0.00
  -19    9   32      2.06      0.00
   -3    9   32     -5.66      0.00
  -14   10   32      0.56      0.00
  -12   10   32      7.79      0.00
  -10   10   32      7.40      0.00
   -8   10   32      2.60      0.00
   -6   10   32     -0.58      0.00
  -26    2   33     -1.77      0.00
    4    2   33     -1.09      0.00
  -25    3   33     -1.14      0.00
    3    3   33     -3.22      0.00
  -24    4   33     -5.15      0.00
  -23    5   33      2.92      0.00
    1    5   33     -3.90      0.00
  -22    6   33     -3.60      0.00
    0    6   33      3.99      0.00
  -21    7   33     -0.54      0.00
   -1    7   33      4.38      0.00
  -18    8   33     -3.55      0.00
   -4    8   33      2.08      0.00
  -11    9   33      6.51      0.00
   -9    9   33      3.96      0.00
  -24    0   34      3.72      0.00
  -23    1   34      2.37      0.00
    1    1   34     -2.89      0.00
    0    2   34     -1.13      0.00
  -23    3   34     -1.85      0.00
  -22    4   34     -2.01      0.00
   -3    5   34     -1.74      0.00
  -18    6   34     -1.27      0.00
   -6    6   34     -2.36      0.00
   -4    6   34     -2.84      0.00
  -15    7   34      2.18      0.00
  -13    7   34      3.17      0.00
  -11    7   34      4.58      0.00
   -9    7   34      0.85      0.00
   -7    7   34      2.35      0.00
  -19    1   35      0.82      0.00
   -3    1   35     -0.13      0.00
  -20    2   35     -0.71      0.00
  -18    2   35      0.40      0.00
   -4    2   35      0.72      0.00
  -19    3   35      3.35      0.00
  -17    3   35      3.13      0.00
   -5    3   35     -0.62      0.00
  -16    4   35      0.12      0.00
  -14    4   35     -1.15      0.00
   -8    4   35      0.27      0.00
   -6    4   35     -0.36      0.00
  -13    5   35      4.51      0.00
  -11    5   35      0.94      0.00
   -9    5   35     -1.63      0.00
  -12    0   36      1.65      0.00
    0    0    0      0.00      0.00
# SQUEEZE RESULTS (Version = 260918)
# Note: Data are Listed for all Voids in the P1 Unit Cell
# i.e. Centre of Gravity, Solvent Accessible Volume,
# Recovered number of Electrons in the Void and
# Details about the Squeezed Material
loop_
  _platon_squeeze_void_nr
  _platon_squeeze_void_average_x
  _platon_squeeze_void_average_y
  _platon_squeeze_void_average_z
  _platon_squeeze_void_volume
  _platon_squeeze_void_count_electrons
  _platon_squeeze_void_content
   1  0.000 -0.006 -0.008      9936      2159 ' '
# Missing Reflections Below sin(th)/lambda = 0.25
loop_
  _platon_missing_refln_index_h
  _platon_missing_refln_index_k
  _platon_missing_refln_index_l
  _platon_missing_refln_theta
    5    3    0     9.902
   -1    1    1     2.952
    8    6    1    18.599
   -2    0    2     3.500
    2    8    3    20.379
   -1    9    3    22.420
   -4    0    4     7.013
_platon_squeeze_void_probe_radius                  1.20
_platon_squeeze_details
)
TITL raw_a            C 2/c        R = 0.10
CELL   33.9147   18.5857   29.5768     90.00    106.76     90.00
SPGR C2/c
# Solvent Accessible Volume =      9929
# Electrons Found in S.A.V. =      2134
# Note: Atoms in Void are Labelled as Cxxx and Qxxx for all Others
Q101 0.416 0.108 0.031 !       1.78 eA-3
C102 0.041 0.064 0.496 !       1.71 eA-3
Q103 0.736 0.502 0.444 !       1.58 eA-3
Q104 0.102 0.362 0.068 !       1.50 eA-3
Q105 0.325 0.451 0.043 !       1.45 eA-3
Q106 0.275 0.453 0.036 !       1.44 eA-3
Q107 0.359 0.113 0.912 !       1.43 eA-3
C108 0.211 0.299 0.240 !       1.39 eA-3
C109 0.416 0.019 0.331 !       1.30 eA-3
Q110 0.558 0.205 0.539 !       1.29 eA-3
Q111 0.554 0.080 0.430 !       1.28 eA-3
Q112 0.280 0.037 0.943 !       1.25 eA-3
C113 0.181 0.327 0.231 !       1.25 eA-3
Q114 0.637 0.239 0.489 !       1.24 eA-3
C115 0.077 0.146 0.489 !       1.23 eA-3
Q116 0.399 0.153 0.958 !       1.23 eA-3
Q117 0.201 0.191 0.940 !       1.20 eA-3
C118 0.168 0.393 0.198 !       1.18 eA-3
Q119 0.501 0.050 0.134 !       1.12 eA-3
C120 0.840 0.434 0.329 !       1.10 eA-3
C121 0.780 0.065 0.063 !       1.10 eA-3
Q122 0.447 0.013 0.042 !       1.10 eA-3
Q123 0.522 0.121 0.297 !       1.06 eA-3
Q124 0.004 0.501 0.223 !       1.04 eA-3
C125 0.795 0.343 0.877 !       1.03 eA-3
Q126 0.490 0.094 0.110 !       1.02 eA-3
C127 0.897 0.075 0.136 !       1.01 eA-3
C128 0.593 0.061 0.093 !       1.00 eA-3
Q129 0.469 0.029 0.053 !       0.98 eA-3
C130 0.938 0.014 0.164 !       0.96 eA-3
Q131 0.695 0.248 0.420 !       0.94 eA-3
C132 0.609 0.391 0.011 !       0.93 eA-3
C133 0.500 0.500 0.500 !       0.93 eA-3
Q134 0.530 0.065 0.744 !       0.93 eA-3
C135 0.079 0.049 0.340 !       0.92 eA-3
C136 0.399 0.048 0.356 !       0.90 eA-3
C137 0.679 0.089 0.160 !       0.87 eA-3
C138 0.162 0.363 0.568 !       0.87 eA-3
C139 0.617 0.090 0.081 !       0.86 eA-3
Q140 0.888 0.282 0.555 !       0.85 eA-3
C141 0.399 0.143 0.883 !       0.85 eA-3
C142 0.510 0.407 0.923 !       0.85 eA-3
Q143 0.363 0.223 0.089 !       0.83 eA-3
C144 0.116 0.107 0.387 !       0.82 eA-3
C145 0.931 0.017 0.607 !       0.81 eA-3
Q146 0.972 0.354 0.664 !       0.81 eA-3
C147 0.265 0.173 0.330 !       0.80 eA-3
Q148 0.559 0.139 0.315 !       0.80 eA-3
Q149 0.725 0.296 0.429 !       0.80 eA-3
Q150 0.959 0.486 0.632 !       0.79 eA-3
C151 0.892 0.034 0.571 !       0.79 eA-3
C152 0.257 0.190 0.313 !       0.78 eA-3
C153 0.078 0.190 0.498 !       0.78 eA-3
C154 0.016 0.282 0.006 !       0.75 eA-3
Q155 0.400 0.185 0.097 !       0.74 eA-3
C156 0.841 0.424 0.858 !       0.73 eA-3
C157 0.883 0.018 0.093 !       0.73 eA-3
C158 0.532 0.126 0.973 !       0.71 eA-3
Q159 0.093 0.484 0.451 !       0.71 eA-3
C160 0.119 0.420 0.461 !       0.71 eA-3
Q161 0.469 0.172 0.266 !       0.70 eA-3
C162 0.085 0.187 0.445 !       0.69 eA-3
C163 0.235 0.218 0.320 !       0.69 eA-3
C164 0.634 0.058 0.636 !       0.69 eA-3
C165 0.889 0.125 0.184 !       0.67 eA-3
C166 0.931 0.169 0.282 !       0.67 eA-3
C167 0.375 0.158 0.653 !       0.66 eA-3
C168 0.054 0.342 0.494 !       0.66 eA-3
Q169 0.235 0.221 0.006 !       0.65 eA-3
C170 0.447 0.194 0.465 !       0.65 eA-3
C171 0.063 0.360 0.539 !       0.65 eA-3
C172 0.470 0.218 0.473 !       0.65 eA-3
C173 0.984 0.080 0.122 !       0.64 eA-3
C174 0.516 0.420 0.878 !       0.64 eA-3
C175 0.345 0.070 0.339 !       0.64 eA-3
C176 0.453 0.066 0.404 !       0.64 eA-3
C177 1.002 0.299 0.469 !       0.64 eA-3
Q178 0.162 0.101 0.624 !       0.63 eA-3
C179 0.057 0.013 0.471 !       0.62 eA-3
C180 0.752 0.296 0.856 !       0.61 eA-3
C181 0.220 0.218 0.281 !       0.60 eA-3
C182 0.166 0.267 0.410 !       0.60 eA-3
C183 0.054 0.189 0.204 !       0.60 eA-3
Q184 1.000 0.453 0.745 !       0.59 eA-3
C185 0.835 0.300 0.069 !       0.59 eA-3
C186 0.106 0.364 0.347 !       0.59 eA-3
Q187 0.633 0.111 0.437 !       0.59 eA-3
C188 0.571 0.497 0.431 !       0.58 eA-3
C189 0.251 0.232 0.380 !       0.57 eA-3
C190 0.861 0.138 0.196 !       0.57 eA-3
C191 0.402 0.095 0.626 !       0.57 eA-3
Q192 0.076 0.500 0.362 !       0.57 eA-3
C193 0.729 0.250-0.001 !       0.57 eA-3
C194 0.026 0.186 0.206 !       0.57 eA-3
C195 0.064 0.094 0.271 !       0.57 eA-3
C196 0.217 0.231 0.525 !       0.56 eA-3
C197 0.961 0.123 0.290 !       0.56 eA-3
C198 0.821 0.297 0.049 !       0.55 eA-3
Q199 0.890 0.358 0.552 !       0.54 eA-3
)
;
_shelx_fab_checksum              39608
loop_
_space_group_symop_operation_xyz
'x, y, z'
'-x, y, -z+1/2'
'x+1/2, y+1/2, z'
'-x+1/2, y+1/2, -z+1/2'
'-x, -y, -z'
'x, -y, z-1/2'
'-x+1/2, -y+1/2, -z'
'x+1/2, -y+1/2, z-1/2'
loop_
_atom_site_label
_atom_site_type_symbol
_atom_site_fract_x
_atom_site_fract_y
_atom_site_fract_z
_atom_site_U_iso_or_equiv
_atom_site_adp_type
_atom_site_occupancy
_atom_site_site_symmetry_order
_atom_site_calc_flag
_atom_site_refinement_flags_posn
_atom_site_refinement_flags_adp
_atom_site_refinement_flags_occupancy
_atom_site_disorder_assembly
_atom_site_disorder_group
Eu1 Eu 0.12290(2) 0.68768(2) 0.42697(2) 0.07584(16) Uani 1 1 d . . . . .
Eu2 Eu 0.04096(2) 0.61697(3) 0.31959(2) 0.09068(18) Uani 1 1 d . . . . .
Eu3 Eu 0.250000 0.750000 0.500000 0.0921(2) Uani 1 2 d S . P . .
P1 P 0.30270(6) 0.51323(15) 0.27718(8) 0.1020(7) Uani 1 1 d . . . . .
P2 P 0.38216(5) 0.49417(11) 0.33322(6) 0.0812(5) Uani 1 1 d . . . . .
P3 P 0.31944(7) 0.40517(14) 0.34238(11) 0.1152(8) Uani 1 1 d . . . . .
O1 O 0.28016(15) 0.5846(4) 0.2869(2) 0.1086(18) Uani 1 1 d . . . . .
O2 O 0.40840(13) 0.5529(3) 0.36792(17) 0.0831(12) Uani 1 1 d . . . . .
O3 O 0.2990(2) 0.3962(4) 0.3839(3) 0.142(3) Uani 1 1 d . . . . .
O4 O 0.28372(17) 0.5092(4) 0.2218(2) 0.129(3) Uani 1 1 d . . . . .
O5 O 0.41683(13) 0.4629(3) 0.31213(16) 0.0867(13) Uani 1 1 d . . . . .
O6 O 0.3200(2) 0.3222(4) 0.3316(4) 0.159(3) Uani 1 1 d . . . . .
O7 O 0.09579(15) 0.5586(4) 0.2958(2) 0.115(2) Uani 1 1 d . . . . .
O8 O 0.11959(13) 0.6452(3) 0.34777(17) 0.0841(13) Uani 1 1 d . . . . .
O11 O 0.2913(3) 0.7497(5) 0.4450(3) 0.1495(19) Uani 1 1 d . . . . .
O12 O 0.3338(3) 0.7391(5) 0.5062(3) 0.1495(19) Uani 1 1 d . U . . .
O13 O 0.2977(4) 0.2675(7) 0.0767(4) 0.197(4) Uani 1 1 d . U . . .
O14 O 0.3593(3) 0.2897(4) 0.1068(2) 0.129(3) Uani 1 1 d . . . . .
O15 O 0.4500(2) 0.1920(4) 0.2372(4) 0.130(3) Uani 1 1 d . . . . .
O16 O 0.47661(19) 0.1606(4) 0.3122(3) 0.139(3) Uani 1 1 d . . . . .
O17 O 0.55758(16) 0.2280(4) 0.3619(3) 0.1132(19) Uani 1 1 d . . . . .
O18 O 0.5672(2) 0.2742(5) 0.4324(3) 0.149(3) Uani 1 1 d . . . . .
O20 O 0.0707(2) 0.5969(5) 0.4044(3) 0.149(3) Uani 1 1 d . . . . .
H21 H 0.063282 0.561608 0.423707 0.179 Uiso 1 1 calc R U . . .
O22 O 0.0127(4) 0.4961(6) 0.3126(7) 0.146(5) Uani 0.5 1 d . U P . .
O23 O 0.000000 0.5486(5) 0.250000 0.114(3) Uani 1 2 d S T P . .
H22 H -0.000001 0.497495 0.250001 0.136 Uiso 1 2 calc R U P . .
N1 N 0.28910(19) 0.4462(4) 0.3002(3) 0.106(2) Uani 1 1 d . . . . .
N2 N 0.35012(16) 0.5317(4) 0.2904(2) 0.0875(17) Uani 1 1 d . . . . .
N3 N 0.36540(19) 0.4364(4) 0.3611(2) 0.0925(17) Uani 1 1 d . . . . .
C1 C 0.24026(18) 0.5848(5) 0.2920(2) 0.094(2) Uani 1 1 d D U . . .
C2 C 0.2103(2) 0.5371(6) 0.2711(3) 0.147(4) Uani 1 1 d D U . . .
H2 H 0.215490 0.499330 0.251914 0.176 Uiso 1 1 calc R U . . .
C3 C 0.1722(2) 0.5450(6) 0.2783(3) 0.131(4) Uani 1 1 d D U . . .
H3 H 0.150410 0.513761 0.262392 0.157 Uiso 1 1 calc R U . . .
C4 C 0.16484(18) 0.5968(4) 0.3077(2) 0.0807(17) Uani 1 1 d D U . . .
C5 C 0.19492(19) 0.6447(4) 0.3280(3) 0.0871(19) Uani 1 1 d D U . . .
H5 H 0.190024 0.681383 0.348085 0.105 Uiso 1 1 calc R U . . .
C6 C 0.2330(2) 0.6398(5) 0.3192(3) 0.090(2) Uani 1 1 d D U . . .
H6 H 0.253780 0.674459 0.332075 0.108 Uiso 1 1 calc R U . . .
C7 C 0.12431(19) 0.5988(4) 0.3182(3) 0.0829(19) Uani 1 1 d . . . . .
C8 C 0.2763(2) 0.4483(4) 0.3988(3) 0.0937(19) Uani 1 1 d D U . . .
C11 C 0.2293(2) 0.5429(4) 0.4313(2) 0.0853(17) Uani 1 1 d D U . . .
C15 C 0.38965(18) 0.5999(4) 0.3922(2) 0.0741(15) Uani 1 1 d D U . . .
C16 C 0.3606(2) 0.6483(4) 0.3679(2) 0.095(2) Uani 1 1 d D U . . .
H16 H 0.353733 0.651657 0.334477 0.114 Uiso 1 1 calc R U . . .
C17 C 0.3415(2) 0.6917(4) 0.3929(2) 0.091(2) Uani 1 1 d D U . . .
H17 H 0.320896 0.724458 0.376268 0.109 Uiso 1 1 calc R U . . .
C18 C 0.35163(19) 0.6888(4) 0.4415(2) 0.0725(15) Uani 1 1 d D U . . .
C19 C 0.3821(3) 0.6422(5) 0.4643(2) 0.101(2) Uani 1 1 d D U . . .
H19 H 0.390367 0.640748 0.497866 0.122 Uiso 1 1 calc R U . . .
C20 C 0.4008(2) 0.5978(5) 0.4402(2) 0.094(2) Uani 1 1 d D U . . .
H20 H 0.421675 0.565413 0.456836 0.113 Uiso 1 1 calc R U . . .
C21 C 0.3270(4) 0.7278(8) 0.4665(5) 0.1495(19) Uani 1 1 d . . . . .
C22 C 0.44997(17) 0.4181(4) 0.3341(2) 0.0778(16) Uani 1 1 d D U . . .
C23 C 0.46454(19) 0.4097(4) 0.3823(2) 0.088(2) Uani 1 1 d D U . . .
H23 H 0.452899 0.435861 0.402866 0.106 Uiso 1 1 calc R U . . .
C24 C 0.4964(2) 0.3624(5) 0.3997(3) 0.101(2) Uani 1 1 d D U . . .
H24 H 0.506254 0.354982 0.432801 0.121 Uiso 1 1 calc R U . . .
C25 C 0.5144(2) 0.3257(4) 0.3706(2) 0.0851(18) Uani 1 1 d D U . . .
C26 C 0.49900(18) 0.3352(4) 0.3216(2) 0.0801(16) Uani 1 1 d D U . . .
H26 H 0.510789 0.309549 0.300885 0.096 Uiso 1 1 calc R U . . .
C27 C 0.46665(18) 0.3819(4) 0.3036(2) 0.0778(16) Uani 1 1 d D U . . .
H27 H 0.456050 0.388856 0.270489 0.093 Uiso 1 1 calc R U . . .
C28 C 0.5484(2) 0.2709(5) 0.3913(4) 0.108(3) Uani 1 1 d . . . . .
C29 C 0.3518(2) 0.2899(5) 0.3163(4) 0.114(3) Uani 1 1 d D U . . .
C30 C 0.3832(3) 0.2594(5) 0.3510(4) 0.129(3) Uani 1 1 d D U . . .
H30 H 0.382836 0.261237 0.382993 0.155 Uiso 1 1 calc R U . . .
C31 C 0.4149(3) 0.2263(5) 0.3394(4) 0.112(2) Uani 1 1 d D U . . .
H31 H 0.436752 0.204807 0.363211 0.135 Uiso 1 1 calc R U . . .
C32 C 0.41468(18) 0.2244(4) 0.2930(3) 0.0919(19) Uani 1 1 d D U . . .
C33 C 0.3828(2) 0.2536(5) 0.2580(3) 0.106(2) Uani 1 1 d D U . . .
H33 H 0.382316 0.249523 0.225870 0.127 Uiso 1 1 calc R U . . .
C34 C 0.3513(2) 0.2889(5) 0.2701(4) 0.118(3) Uani 1 1 d D U . . .
H34 H 0.329913 0.312018 0.246652 0.141 Uiso 1 1 calc R U . . .
C35 C 0.4492(3) 0.1881(5) 0.2799(6) 0.114(3) Uani 1 1 d . . . . .
C36 C 0.29464(19) 0.4545(5) 0.1940(3) 0.102(3) Uani 1 1 d D U . . .
C37 C 0.3340(2) 0.4508(5) 0.1915(3) 0.122(3) Uani 1 1 d D U . . .
H37 H 0.354744 0.482051 0.209532 0.146 Uiso 1 1 calc R U . . .
C38 C 0.3428(2) 0.4000(5) 0.1617(3) 0.111(3) Uani 1 1 d D U . . .
H38 H 0.370213 0.395881 0.160007 0.133 Uiso 1 1 calc R U . . .
C39 C 0.3132(2) 0.3556(5) 0.1346(2) 0.0883(19) Uani 1 1 d D U . . .
C40 C 0.2742(3) 0.3609(7) 0.1394(3) 0.134(4) Uani 1 1 d D U . . .
H40 H 0.253481 0.328961 0.121973 0.161 Uiso 1 1 calc R U . . .
C41 C 0.2641(2) 0.4114(6) 0.1688(3) 0.131(4) Uani 1 1 d D U . . .
H41 H 0.236856 0.415418 0.171097 0.157 Uiso 1 1 calc R U . . .
C42 C 0.3248(4) 0.3042(5) 0.1028(3) 0.111(3) Uani 1 1 d . . . . .
O19A O 0.2641(3) 0.6173(6) 0.5270(3) 0.091(3) Uani 0.5 1 d . . P A 1
O9A O 0.1568(3) 0.5673(7) 0.4368(5) 0.092(4) Uani 0.5 1 d D . P A 1
O10A O 0.2001(3) 0.6603(5) 0.4433(4) 0.080(2) Uani 0.5 1 d D . P A 1
C9A C 0.2857(4) 0.5205(6) 0.4040(4) 0.083(3) Uani 0.5 1 d D U P B 1
H9A H 0.310180 0.537766 0.398306 0.099 Uiso 0.5 1 calc R U P B 1
C10A C 0.2599(3) 0.5674(7) 0.4171(4) 0.075(3) Uani 0.5 1 d D U P B 1
H10A H 0.264335 0.617760 0.416059 0.090 Uiso 0.5 1 calc R U P B 1
C12A C 0.2167(4) 0.4722(7) 0.4239(7) 0.091(4) Uani 0.5 1 d D U P B 1
H12A H 0.190570 0.457292 0.426166 0.110 Uiso 0.5 1 calc R U P B 1
C13A C 0.2435(5) 0.4242(8) 0.4130(8) 0.109(5) Uani 0.5 1 d D U P B 1
H13A H 0.239227 0.373974 0.415408 0.131 Uiso 0.5 1 calc R U P B 1
C14A C 0.1932(6) 0.5914(7) 0.4373(6) 0.079(5) Uani 0.5 1 d D . P A 1
O19B O 0.1106(3) 0.6557(7) 0.4991(3) 0.109(4) Uani 0.5 1 d . . P A 2
O9B O 0.1748(4) 0.5988(8) 0.4430(4) 0.077(3) Uani 0.5 1 d D . P A 2
O10B O 0.2348(3) 0.6471(6) 0.4832(3) 0.087(3) Uani 0.5 1 d D . P A 2
C9B C 0.2966(4) 0.4976(7) 0.4276(5) 0.093(4) Uani 0.5 1 d D U P B 2
H9B H 0.325834 0.500257 0.436460 0.111 Uiso 0.5 1 calc R U P B 2
C10B C 0.2734(4) 0.5454(8) 0.4444(5) 0.088(3) Uani 0.5 1 d D U P B 2
H10B H 0.287233 0.581751 0.465679 0.106 Uiso 0.5 1 calc R U P B 2
C12B C 0.2118(4) 0.4916(8) 0.4006(5) 0.090(5) Uani 0.5 1 d D U P B 2
H12B H 0.182624 0.487801 0.390884 0.108 Uiso 0.5 1 calc R U P B 2
C13B C 0.2341(3) 0.4439(9) 0.3824(6) 0.094(4) Uani 0.5 1 d D U P B 2
H13B H 0.220969 0.409312 0.359348 0.113 Uiso 0.5 1 calc R U P B 2
C14B C 0.2143(5) 0.6002(9) 0.4564(6) 0.101(7) Uani 0.5 1 d D . P A 2
loop_
_atom_site_aniso_label
_atom_site_aniso_U_11
_atom_site_aniso_U_22
_atom_site_aniso_U_33
_atom_site_aniso_U_23
_atom_site_aniso_U_13
_atom_site_aniso_U_12
Eu1 0.0593(2) 0.0902(3) 0.0854(3) 0.01460(19) 0.03261(18) 0.01964(18)
Eu2 0.0483(2) 0.0989(4) 0.1257(4) 0.0036(3) 0.0264(2) 0.00607(19)
Eu3 0.0542(3) 0.1586(7) 0.0598(3) -0.0126(3) 0.0105(2) 0.0282(3)
P1 0.0590(9) 0.141(2) 0.1063(13) -0.0295(13) 0.0245(9) 0.0247(11)
P2 0.0591(8) 0.1003(13) 0.0882(10) -0.0075(9) 0.0278(7) 0.0173(8)
P3 0.0866(13) 0.0980(15) 0.185(2) -0.0176(15) 0.0767(15) 0.0107(12)
O1 0.066(3) 0.146(5) 0.114(4) -0.022(3) 0.027(3) 0.033(3)
O2 0.058(2) 0.096(3) 0.097(3) -0.003(2) 0.024(2) 0.019(2)
O3 0.128(5) 0.099(4) 0.241(8) 0.033(5) 0.123(6) 0.043(4)
O4 0.074(3) 0.201(7) 0.100(4) -0.038(4) 0.008(3) 0.055(4)
O5 0.065(2) 0.110(4) 0.088(3) -0.005(3) 0.026(2) 0.024(2)
O6 0.100(4) 0.106(5) 0.307(11) -0.044(6) 0.116(6) 0.005(4)
O7 0.054(3) 0.132(5) 0.151(5) -0.034(4) 0.015(3) 0.008(3)
O8 0.057(2) 0.108(4) 0.092(3) -0.013(3) 0.029(2) 0.011(2)
O11 0.161(4) 0.162(4) 0.139(3) -0.029(3) 0.064(3) 0.051(3)
O12 0.161(4) 0.162(4) 0.139(3) -0.029(3) 0.064(3) 0.051(3)
O13 0.222(8) 0.222(8) 0.153(6) -0.045(6) 0.066(6) -0.067(7)
O14 0.145(6) 0.145(6) 0.076(3) -0.024(3) 0.001(4) 0.060(5)
O15 0.088(4) 0.112(5) 0.204(8) -0.041(5) 0.062(5) -0.006(3)
O16 0.060(3) 0.130(6) 0.219(8) -0.029(5) 0.029(4) 0.013(3)
O17 0.064(3) 0.113(4) 0.157(5) -0.019(4) 0.023(3) 0.025(3)
O18 0.124(5) 0.201(8) 0.116(5) 0.015(5) 0.024(4) 0.097(6)
O20 0.137(6) 0.177(7) 0.149(6) 0.012(5) 0.066(5) -0.042(5)
O22 0.103(8) 0.076(7) 0.264(14) 0.020(8) 0.060(9) -0.040(6)
O23 0.051(3) 0.125(7) 0.159(7) 0.000 0.021(4) 0.000
N1 0.071(3) 0.129(6) 0.128(5) -0.033(4) 0.042(4) 0.019(4)
N2 0.060(3) 0.121(5) 0.085(3) 0.000(3) 0.026(2) 0.027(3)
N3 0.077(3) 0.095(4) 0.114(4) -0.002(3) 0.041(3) 0.024(3)
C1 0.050(3) 0.136(6) 0.093(4) -0.019(4) 0.015(3) 0.025(3)
C2 0.069(4) 0.210(10) 0.158(8) -0.106(8) 0.027(5) 0.009(5)
C3 0.053(3) 0.188(9) 0.144(7) -0.086(7) 0.015(4) 0.009(5)
C4 0.052(3) 0.102(5) 0.083(4) -0.010(3) 0.011(3) 0.023(3)
C5 0.067(3) 0.090(5) 0.114(5) -0.013(4) 0.040(3) 0.008(3)
C6 0.059(3) 0.113(5) 0.101(5) -0.015(4) 0.030(3) 0.013(3)
C7 0.050(3) 0.100(5) 0.096(4) -0.002(4) 0.017(3) 0.020(3)
C8 0.072(4) 0.087(4) 0.131(6) 0.012(4) 0.045(4) 0.015(3)
C11 0.095(4) 0.083(4) 0.087(4) 0.009(3) 0.040(3) 0.016(3)
C15 0.058(3) 0.088(4) 0.075(3) 0.003(3) 0.019(3) 0.012(3)
C16 0.092(5) 0.121(6) 0.072(4) 0.007(4) 0.023(3) 0.037(4)
C17 0.076(4) 0.117(6) 0.076(3) -0.005(4) 0.016(3) 0.028(4)
C18 0.066(3) 0.086(4) 0.070(3) -0.002(3) 0.028(3) -0.008(3)
C19 0.111(6) 0.120(6) 0.067(4) -0.007(4) 0.015(3) 0.017(5)
C20 0.082(4) 0.106(5) 0.081(4) 0.002(4) 0.005(3) 0.017(4)
C21 0.161(4) 0.162(4) 0.139(3) -0.029(3) 0.064(3) 0.051(3)
C22 0.047(3) 0.095(5) 0.088(3) -0.011(3) 0.015(3) 0.012(3)
C23 0.070(4) 0.107(5) 0.086(4) -0.019(4) 0.019(3) 0.026(4)
C24 0.079(4) 0.124(6) 0.097(4) -0.008(4) 0.021(4) 0.034(4)
C25 0.061(3) 0.094(5) 0.100(4) -0.004(4) 0.024(3) 0.014(3)
C26 0.056(3) 0.091(4) 0.102(4) -0.012(3) 0.036(3) 0.005(3)
C27 0.051(3) 0.094(5) 0.093(4) -0.012(3) 0.028(3) 0.000(3)
C28 0.067(4) 0.106(6) 0.154(8) -0.015(6) 0.038(5) 0.031(4)
C29 0.068(4) 0.086(5) 0.205(8) -0.017(6) 0.064(5) 0.000(4)
C30 0.104(6) 0.127(8) 0.178(8) -0.001(6) 0.075(6) -0.003(5)
C31 0.089(5) 0.097(6) 0.162(6) 0.008(5) 0.052(5) 0.008(4)
C32 0.050(3) 0.079(4) 0.155(6) -0.013(4) 0.045(4) -0.005(3)
C33 0.063(4) 0.102(6) 0.149(6) -0.036(5) 0.025(4) -0.004(3)
C34 0.066(4) 0.094(6) 0.188(7) -0.017(6) 0.029(5) 0.009(4)
C35 0.063(5) 0.095(6) 0.199(11) -0.031(7) 0.060(6) -0.016(4)
C36 0.064(3) 0.150(7) 0.084(4) -0.033(4) 0.006(3) 0.023(4)
C37 0.063(4) 0.171(9) 0.125(6) -0.067(6) 0.015(4) 0.008(5)
C38 0.062(4) 0.151(7) 0.108(5) -0.050(5) 0.006(4) 0.013(4)
C39 0.076(4) 0.116(6) 0.067(3) -0.007(3) 0.011(3) -0.008(4)
C40 0.093(5) 0.198(10) 0.104(6) -0.050(6) 0.017(5) -0.021(6)
C41 0.067(4) 0.197(10) 0.118(6) -0.048(6) 0.008(4) -0.008(5)
C42 0.154(10) 0.094(6) 0.074(5) -0.026(4) 0.013(5) -0.025(6)
O19A 0.086(6) 0.099(7) 0.081(5) -0.010(5) 0.014(5) 0.017(5)
O9A 0.052(6) 0.082(8) 0.143(10) 0.011(7) 0.031(6) 0.019(5)
O10A 0.061(5) 0.075(6) 0.100(6) -0.014(5) 0.017(4) -0.001(5)
C9A 0.081(8) 0.095(7) 0.078(8) 0.007(7) 0.032(7) 0.000(6)
C10A 0.085(7) 0.093(8) 0.048(5) 0.011(6) 0.019(5) 0.013(6)
C12A 0.053(7) 0.099(7) 0.117(12) -0.002(9) 0.018(8) 0.011(6)
C13A 0.096(10) 0.078(8) 0.171(15) 0.010(10) 0.069(10) 0.014(7)
C14A 0.083(14) 0.083(10) 0.091(12) 0.012(8) 0.057(11) 0.040(10)
O19B 0.102(7) 0.168(11) 0.081(6) 0.060(7) 0.064(5) 0.041(7)
O9B 0.066(8) 0.096(10) 0.074(6) 0.013(6) 0.027(6) 0.036(7)
O10B 0.072(5) 0.100(7) 0.069(5) -0.014(5) -0.012(4) 0.025(5)
C9B 0.064(7) 0.118(11) 0.101(10) 0.005(7) 0.032(7) 0.002(6)
C10B 0.090(6) 0.086(9) 0.091(9) 0.009(7) 0.030(7) 0.006(6)
C12B 0.050(6) 0.119(10) 0.088(9) -0.001(7) -0.001(6) 0.033(6)
C13B 0.066(6) 0.103(11) 0.116(10) -0.006(8) 0.030(7) 0.017(6)
C14B 0.075(11) 0.133(18) 0.080(11) 0.033(11) -0.001(8) 0.029(12)
loop_
_atom_type_symbol
_atom_type_description
_atom_type_scat_dispersion_real
_atom_type_scat_dispersion_imag
_atom_type_scat_source
C C 0.0181 0.0091 'International Tables Vol C Tables 4.2.6.8 and 6.1.1.4'
H H 0.0000 0.0000 'International Tables Vol C Tables 4.2.6.8 and 6.1.1.4'
N N 0.0311 0.0180 'International Tables Vol C Tables 4.2.6.8 and 6.1.1.4'
O O 0.0492 0.0322 'International Tables Vol C Tables 4.2.6.8 and 6.1.1.4'
P P 0.2955 0.4335 'International Tables Vol C Tables 4.2.6.8 and 6.1.1.4'
Eu Eu -8.9294 11.1857 'International Tables Vol C Tables 4.2.6.8 and 6.1.1.4'
loop_
_geom_angle_atom_site_label_1
_geom_angle_atom_site_label_2
_geom_angle_atom_site_label_3
_geom_angle
_geom_angle_site_symmetry_1
_geom_angle_site_symmetry_3
O14 Eu1 O9B 113.0(4) 4 .
O14 Eu1 O19B 137.3(4) 4 .
O9B Eu1 O19B 87.6(4) . .
O14 Eu1 O20 136.3(3) 4 .
O9B Eu1 O20 90.7(5) . .
O19B Eu1 O20 76.5(4) . .
O14 Eu1 O8 78.2(2) 4 .
O9B Eu1 O8 78.0(3) . .
O19B Eu1 O8 144.4(4) . .
O20 Eu1 O8 71.3(2) . .
O14 Eu1 O9A 128.3(4) 4 .
O20 Eu1 O9A 71.3(4) . .
O8 Eu1 O9A 73.4(4) . .
O14 Eu1 O12 74.2(3) 4 7_566
O20 Eu1 O12 145.3(3) . 7_566
O8 Eu1 O12 142.0(2) . 7_566
O9A Eu1 O12 104.5(4) . 7_566
O14 Eu1 O18 78.3(3) 4 3_455
O20 Eu1 O18 87.7(3) . 3_455
O8 Eu1 O18 116.0(2) . 3_455
O9A Eu1 O18 153.3(4) . 3_455
O12 Eu1 O18 83.3(3) 7_566 3_455
O14 Eu1 O10A 82.2(3) 4 .
O20 Eu1 O10A 122.9(3) . .
O8 Eu1 O10A 83.1(2) . .
O9A Eu1 O10A 52.5(3) . .
O12 Eu1 O10A 67.9(3) 7_566 .
O18 Eu1 O10A 148.8(3) 3_455 .
O14 Eu1 O17 73.4(3) 4 3_455
O20 Eu1 O17 65.9(3) . 3_455
O8 Eu1 O17 65.70(17) . 3_455
O9A Eu1 O17 127.8(4) . 3_455
O12 Eu1 O17 127.7(2) 7_566 3_455
O18 Eu1 O17 50.7(2) 3_455 3_455
O10A Eu1 O17 143.4(3) . 3_455
O14 Eu1 C28 73.3(3) 4 3_455
O20 Eu1 C28 77.1(3) . 3_455
O8 Eu1 C28 91.7(2) . 3_455
O9A Eu1 C28 148.0(4) . 3_455
O12 Eu1 C28 104.5(3) 7_566 3_455
O18 Eu1 C28 24.4(2) 3_455 3_455
O10A Eu1 C28 155.5(3) . 3_455
O17 Eu1 C28 26.3(2) 3_455 3_455
O14 Eu1 C42 18.9(3) 4 4
O20 Eu1 C42 148.6(3) . 4
O8 Eu1 C42 79.9(2) . 4
O9A Eu1 C42 112.3(4) . 4
O12 Eu1 C42 65.7(3) 7_566 4
O18 Eu1 C42 94.2(3) 3_455 4
O10A Eu1 C42 63.6(3) . 4
O17 Eu1 C42 91.4(2) 3_455 4
C28 Eu1 C42 92.0(3) 3_455 4
O15 Eu2 O16 92.4(3) 4 3_455
O15 Eu2 O17 78.2(3) 4 3_455
O16 Eu2 O17 79.5(2) 3_455 3_455
O15 Eu2 O7 77.4(3) 4 .
O16 Eu2 O7 157.6(3) 3_455 .
O17 Eu2 O7 116.90(19) 3_455 .
O15 Eu2 O22 129.7(5) 4 .
O16 Eu2 O22 88.7(4) 3_455 .
O17 Eu2 O22 150.4(5) 3_455 .
O7 Eu2 O22 83.0(4) . .
O15 Eu2 O20 138.4(3) 4 .
O16 Eu2 O20 104.6(3) 3_455 .
O17 Eu2 O20 68.3(3) 3_455 .
O7 Eu2 O20 96.1(3) . .
O22 Eu2 O20 89.0(5) . .
O15 Eu2 O23 82.2(3) 4 .
O16 Eu2 O23 79.1(2) 3_455 .
O17 Eu2 O23 150.2(2) 3_455 .
O7 Eu2 O23 79.78(16) . .
O22 Eu2 O23 48.8(5) . .
O20 Eu2 O23 137.8(3) . .
O15 Eu2 O8 76.6(2) 4 .
O16 Eu2 O8 145.3(2) 3_455 .
O17 Eu2 O8 66.09(17) 3_455 .
O7 Eu2 O8 51.97(17) . .
O22 Eu2 O8 123.8(4) . .
O20 Eu2 O8 67.8(2) . .
O23 Eu2 O8 130.22(11) . .
O15 Eu2 C7 73.6(2) 4 .
O16 Eu2 C7 164.7(3) 3_455 .
O17 Eu2 C7 91.4(2) 3_455 .
O7 Eu2 C7 25.7(2) . .
O22 Eu2 C7 104.9(4) . .
O20 Eu2 C7 83.1(2) . .
O23 Eu2 C7 104.32(17) . .
O8 Eu2 C7 26.38(18) . .
O15 Eu2 Eu1 100.6(2) 4 .
O16 Eu2 Eu1 114.0(2) 3_455 .
O17 Eu2 Eu1 42.29(14) 3_455 .
O7 Eu2 Eu1 87.71(14) . .
O22 Eu2 Eu1 124.5(4) . .
O20 Eu2 Eu1 37.86(18) . .
O23 Eu2 Eu1 166.34(15) . .
O8 Eu2 Eu1 39.60(10) . .
C7 Eu2 Eu1 64.22(15) . .
O15 Eu2 Eu2 58.3(2) 4 2
O16 Eu2 Eu2 64.4(2) 3_455 2
O17 Eu2 Eu2 119.72(16) 3_455 2
O7 Eu2 Eu2 93.47(15) . 2
O22 Eu2 Eu2 77.6(4) . 2
O20 Eu2 Eu2 162.48(17) . 2
O23 Eu2 Eu2 30.87(19) . 2
O8 Eu2 Eu2 129.20(11) . 2
C7 Eu2 Eu2 111.04(15) . 2
Eu1 Eu2 Eu2 157.731(12) . 2
O10B Eu3 O10B 180.0 7_566 .
O13 Eu3 O13 180.0 6_566 4
O13 Eu3 O11 74.3(3) 6_566 7_566
O13 Eu3 O11 105.7(3) 4 7_566
O10B Eu3 O11 90.7(4) 7_566 .
O10B Eu3 O11 89.3(4) . .
O13 Eu3 O11 105.7(3) 6_566 .
O13 Eu3 O11 74.3(3) 4 .
O11 Eu3 O11 180.0(3) 7_566 .
O13 Eu3 O19A 64.3(4) 6_566 .
O13 Eu3 O19A 115.7(4) 4 .
O11 Eu3 O19A 83.5(3) 7_566 .
O11 Eu3 O19A 96.5(3) . .
O13 Eu3 O19A 115.7(4) 6_566 7_566
O13 Eu3 O19A 64.3(4) 4 7_566
O11 Eu3 O19A 96.5(3) 7_566 7_566
O11 Eu3 O19A 83.5(3) . 7_566
O19A Eu3 O19A 180.0 . 7_566
O13 Eu3 O10A 131.0(4) 6_566 .
O13 Eu3 O10A 49.0(4) 4 .
O11 Eu3 O10A 92.2(3) 7_566 .
O11 Eu3 O10A 87.8(3) . .
O19A Eu3 O10A 67.5(3) . .
O19A Eu3 O10A 112.5(3) 7_566 .
O13 Eu3 O10A 49.0(4) 6_566 7_566
O13 Eu3 O10A 131.0(4) 4 7_566
O11 Eu3 O10A 87.8(3) 7_566 7_566
O11 Eu3 O10A 92.2(3) . 7_566
O19A Eu3 O10A 112.5(3) . 7_566
O19A Eu3 O10A 67.5(3) 7_566 7_566
O10A Eu3 O10A 180.0 . 7_566
O10B Eu3 O12 82.5(3) 7_566 .
O10B Eu3 O12 97.5(3) . .
O13 Eu3 O12 62.2(3) 6_566 .
O13 Eu3 O12 117.8(3) 4 .
O11 Eu3 O12 136.5(3) 7_566 .
O11 Eu3 O12 43.5(3) . .
O19A Eu3 O12 79.5(3) . .
O19A Eu3 O12 100.5(3) 7_566 .
O10A Eu3 O12 117.0(3) . .
O10A Eu3 O12 63.0(3) 7_566 .
O13 Eu3 O12 117.8(3) 6_566 7_566
O13 Eu3 O12 62.2(3) 4 7_566
O11 Eu3 O12 43.5(3) 7_566 7_566
O11 Eu3 O12 136.5(3) . 7_566
O19A Eu3 O12 100.5(3) . 7_566
O19A Eu3 O12 79.5(3) 7_566 7_566
O10A Eu3 O12 63.0(3) . 7_566
O10A Eu3 O12 117.0(3) 7_566 7_566
O12 Eu3 O12 180.0 . 7_566
N1 P1 N2 118.4(4) . .
N1 P1 O4 109.4(4) . .
N2 P1 O4 110.4(3) . .
N1 P1 O1 111.7(3) . .
N2 P1 O1 106.3(4) . .
O4 P1 O1 98.8(3) . .
N3 P2 N2 117.3(4) . .
N3 P2 O2 110.8(3) . .
N2 P2 O2 110.2(3) . .
N3 P2 O5 112.3(3) . .
N2 P2 O5 105.3(3) . .
O2 P2 O5 99.5(3) . .
N1 P3 O6 111.0(5) . .
N1 P3 O3 109.5(4) . .
O6 P3 O3 95.0(4) . .
N1 P3 N3 116.6(4) . .
O6 P3 N3 110.9(4) . .
O3 P3 N3 111.7(5) . .
C1 O1 P1 123.2(6) . .
C15 O2 P2 120.7(4) . .
C8 O3 P3 125.6(6) . .
C36 O4 P1 122.5(5) . .
C22 O5 P2 128.4(4) . .
C29 O6 P3 122.3(6) . .
C7 O7 Eu2 96.9(4) . .
C7 O8 Eu1 153.9(5) . .
C7 O8 Eu2 87.9(4) . .
Eu1 O8 Eu2 97.55(14) . .
C21 O11 Eu3 108.6(8) . .
C21 O12 Eu1 143.8(11) . 7_566
C21 O12 Eu3 92.6(9) . .
Eu1 O12 Eu3 111.5(2) 7_566 .
C42 O13 Eu3 148.4(10) . 4_545
C42 O13 Eu1 77.7(9) . 4_545
Eu3 O13 Eu1 104.9(4) 4_545 4_545
C42 O14 Eu1 121.6(7) . 4_545
C35 O15 Eu2 138.1(7) . 4_545
C35 O16 Eu2 134.9(8) . 3_545
C28 O17 Eu2 145.4(6) . 3_545
C28 O17 Eu1 90.0(6) . 3_545
Eu2 O17 Eu1 99.3(2) 3_545 3_545
C28 O18 Eu1 95.4(5) . 3_545
Eu1 O20 Eu2 103.4(3) . .
Eu2 O23 Eu2 118.3(4) . 2
P1 N1 P3 122.0(5) . .
P2 N2 P1 121.4(4) . .
P2 N3 P3 122.3(4) . .
C2 C1 C6 121.3(6) . .
C2 C1 O1 124.5(6) . .
C6 C1 O1 114.1(6) . .
C1 C2 C3 118.2(7) . .
C4 C3 C2 121.6(7) . .
C5 C4 C3 119.4(6) . .
C5 C4 C7 120.8(6) . .
C3 C4 C7 119.8(6) . .
C4 C5 C6 119.7(6) . .
C1 C6 C5 119.6(7) . .
O7 C7 O8 122.6(6) . .
O7 C7 C4 119.5(7) . .
O8 C7 C4 117.7(6) . .
O7 C7 Eu2 57.4(4) . .
O8 C7 Eu2 65.7(3) . .
C4 C7 Eu2 168.1(5) . .
C9B C8 C13B 125.0(10) . .
C13A C8 C9A 117.8(9) . .
C9B C8 O3 117.4(8) . .
C13B C8 O3 117.7(9) . .
C13A C8 O3 116.4(8) . .
C9A C8 O3 125.6(8) . .
C10A C11 C12A 121.2(9) . .
C12B C11 C10B 115.5(9) . .
C12B C11 C14B 135.4(9) . .
C10B C11 C14B 109.1(9) . .
C10A C11 C14A 123.6(9) . .
C12A C11 C14A 110.5(9) . .
C20 C15 C16 120.4(6) . .
C20 C15 O2 119.1(5) . .
C16 C15 O2 120.4(5) . .
C15 C16 C17 118.8(6) . .
C16 C17 C18 121.5(6) . .
C19 C18 C17 117.7(6) . .
C19 C18 C21 121.8(8) . .
C17 C18 C21 120.1(8) . .
C20 C19 C18 121.7(6) . .
C15 C20 C19 119.8(6) . .
O12 C21 O11 109.6(10) . .
O12 C21 C18 129.3(12) . .
O11 C21 C18 120.9(10) . .
O12 C21 Eu3 65.4(7) . .
O11 C21 Eu3 48.6(6) . .
C18 C21 Eu3 153.3(9) . .
C27 C22 C23 122.1(6) . .
C27 C22 O5 114.6(5) . .
C23 C22 O5 123.3(5) . .
C24 C23 C22 118.0(6) . .
C25 C24 C23 121.9(7) . .
C24 C25 C26 118.9(6) . .
C24 C25 C28 120.2(7) . .
C26 C25 C28 120.7(7) . .
C27 C26 C25 119.7(6) . .
C22 C27 C26 119.3(6) . .
O18 C28 O17 123.6(8) . .
O18 C28 C25 119.4(8) . .
O17 C28 C25 116.6(9) . .
O18 C28 Eu1 60.2(4) . 3_545
O17 C28 Eu1 63.6(4) . 3_545
C25 C28 Eu1 169.2(7) . 3_545
C34 C29 C30 121.9(8) . .
C34 C29 O6 122.5(9) . .
C30 C29 O6 115.6(9) . .
C31 C30 C29 119.7(9) . .
C30 C31 C32 119.0(8) . .
C31 C32 C33 121.3(7) . .
C31 C32 C35 119.5(9) . .
C33 C32 C35 119.2(9) . .
C32 C33 C34 119.4(8) . .
C29 C34 C33 118.6(8) . .
O16 C35 O15 124.5(9) . .
O16 C35 C32 117.2(12) . .
O15 C35 C32 118.1(11) . .
C41 C36 C37 123.1(7) . .
C41 C36 O4 117.3(6) . .
C37 C36 O4 119.5(7) . .
C36 C37 C38 117.8(7) . .
C39 C38 C37 122.0(7) . .
C38 C39 C40 117.6(7) . .
C38 C39 C42 118.7(8) . .
C40 C39 C42 123.7(8) . .
C39 C40 C41 122.1(8) . .
C36 C41 C40 117.4(8) . .
O14 C42 O13 118.7(12) . .
O14 C42 C39 121.9(8) . .
O13 C42 C39 118.3(13) . .
O14 C42 Eu1 39.5(5) . 4_545
O13 C42 Eu1 79.5(8) . 4_545
C39 C42 Eu1 157.0(7) . 4_545
C14A O9A Eu1 95.5(9) . .
C14A O10A Eu1 92.0(9) . .
C14A O10A Eu3 140.6(11) . .
Eu1 O10A Eu3 115.5(3) . .
C10A C9A C8 120.4(10) . .
C11 C10A C9A 120.0(11) . .
C13A C12A C11 117.5(11) . .
C8 C13A C12A 120.5(11) . .
O10A C14A O9A 118.0(12) . .
O10A C14A C11 117.6(12) . .
O9A C14A C11 124.4(10) . .
C14B O9B Eu1 134.4(13) . .
C14B O10B Eu3 151.8(10) . .
C8 C9B C10B 116.1(11) . .
C9B C10B C11 123.0(11) . .
C11 C12B C13B 122.8(11) . .
C8 C13B C12B 117.4(11) . .
O10B C14B O9B 123.5(14) . .
O10B C14B C11 128.1(13) . .
O9B C14B C11 108.2(12) . .
O10B C14B Eu3 17.5(6) . .
O9B C14B Eu3 112.8(11) . .
C11 C14B Eu3 134.1(10) . .
loop_
_geom_bond_atom_site_label_1
_geom_bond_atom_site_label_2
_geom_bond_distance
_geom_bond_site_symmetry_2
Eu1 O14 2.303(6) 4
Eu1 O9B 2.360(12) .
Eu1 O19B 2.365(7) .
Eu1 O20 2.397(8) .
Eu1 O8 2.444(5) .
Eu1 O9A 2.493(13) .
Eu1 O12 2.498(9) 7_566
Eu1 O18 2.520(6) 3_455
Eu1 O10A 2.572(9) .
Eu1 O17 2.591(6) 3_455
Eu1 C28 2.891(8) 3_455
Eu1 C42 3.085(13) 4
Eu2 O15 2.270(8) 4
Eu2 O16 2.279(6) 3_455
Eu2 O17 2.395(6) 3_455
Eu2 O7 2.426(5) .
Eu2 O22 2.429(10) .
Eu2 O20 2.446(8) .
Eu2 O23 2.476(5) .
Eu2 O8 2.608(4) .
Eu2 C7 2.859(6) .
Eu2 Eu2 4.2506(10) 2
Eu3 O10B 2.006(11) 7_566
Eu3 O10B 2.006(11) .
Eu3 O13 2.399(11) 6_566
Eu3 O13 2.399(11) 4
Eu3 O11 2.433(8) 7_566
Eu3 O11 2.433(8) .
Eu3 O19A 2.594(11) .
Eu3 O19A 2.594(11) 7_566
Eu3 O10A 2.611(9) .
Eu3 O10A 2.611(9) 7_566
Eu3 O12 2.801(9) .
Eu3 O12 2.801(9) 7_566
P1 N1 1.552(9) .
P1 N2 1.579(6) .
P1 O4 1.579(6) .
P1 O1 1.598(6) .
P2 N3 1.557(7) .
P2 N2 1.574(6) .
P2 O2 1.584(5) .
P2 O5 1.591(4) .
P3 N1 1.567(8) .
P3 O6 1.576(7) .
P3 O3 1.583(7) .
P3 N3 1.605(7) .
O1 C1 1.405(8) .
O2 C15 1.395(7) .
O3 C8 1.387(9) .
O4 C36 1.420(9) .
O5 C22 1.399(7) .
O6 C29 1.418(9) .
O7 C7 1.250(9) .
O8 C7 1.271(9) .
O11 C21 1.260(15) .
O12 C21 1.150(13) .
O13 C42 1.223(13) .
O14 C42 1.174(13) .
O15 C35 1.274(15) .
O16 C35 1.235(15) .
O17 C28 1.282(11) .
O18 C28 1.201(12) .
C1 C2 1.356(9) .
C1 C6 1.366(9) .
C2 C3 1.379(9) .
C3 C4 1.368(8) .
C4 C5 1.357(8) .
C4 C7 1.494(9) .
C5 C6 1.391(8) .
C8 C9B 1.306(12) .
C8 C13B 1.372(11) .
C8 C13A 1.373(12) .
C8 C9A 1.377(12) .
C11 C10A 1.309(11) .
C11 C12B 1.333(12) .
C11 C12A 1.379(12) .
C11 C10B 1.436(11) .
C11 C14B 1.470(15) .
C11 C14A 1.571(13) .
C15 C20 1.361(8) .
C15 C16 1.374(8) .
C16 C17 1.374(8) .
C17 C18 1.381(8) .
C18 C19 1.367(8) .
C18 C21 1.458(12) .
C19 C20 1.364(9) .
C22 C27 1.371(8) .
C22 C23 1.376(8) .
C23 C24 1.372(8) .
C24 C25 1.372(8) .
C25 C26 1.404(8) .
C25 C28 1.526(11) .
C26 C27 1.380(8) .
C29 C34 1.361(10) .
C29 C30 1.371(10) .
C30 C31 1.365(10) .
C31 C32 1.372(10) .
C32 C33 1.374(9) .
C32 C35 1.497(11) .
C33 C34 1.384(9) .
C36 C41 1.351(9) .
C36 C37 1.361(8) .
C37 C38 1.379(9) .
C38 C39 1.367(9) .
C39 C40 1.371(9) .
C39 C42 1.472(13) .
C40 C41 1.388(10) .
O9A C14A 1.310(15) .
O10A C14A 1.304(14) .
C9A C10A 1.368(12) .
C12A C13A 1.375(13) .
O9B C14B 1.283(15) .
O10B C14B 1.246(15) .
C9B C10B 1.370(13) .
C12B C13B 1.372(13) .
