#------------------------------------------------------------------------------
#$Date: 2019-05-25 03:10:27 +0300 (Sat, 25 May 2019) $
#$Revision: 215502 $
#$URL: file:///home/coder/svn-repositories/cod/cif/7/12/35/7123540.cif $
#------------------------------------------------------------------------------
#
# This file is available in the Crystallography Open Database (COD),
# http://www.crystallography.net/
#
# All data on this site have been placed in the public domain by the
# contributors.
#
data_7123540
loop_
_publ_author_name
'Jeoung, Sungeun'
'Lee, Songho'
'Lee, Jae Hwa'
'Lee, Soochan'
'Choe, Wonyoung'
'Moon, Dohyun'
'Moon, Hoi Ri'
_publ_section_title
;
 Tuning of the flexibility in metal-organic frameworks based on pendant
 arm macrocycles
;
_journal_name_full               'Chemical Communications'
_journal_paper_doi               10.1039/C9CC02819F
_journal_year                    2019
_chemical_formula_moiety         'C80 H130 N24 Ni4 O24, 2(C3 H7 N O)'
_chemical_formula_sum            'C86 H146 N26 Ni4 O26'
_chemical_formula_weight         2195.12
_chemical_name_systematic        as-flexMOF(OH)
_space_group_crystal_system      triclinic
_space_group_IT_number           2
_space_group_name_Hall           '-P 1'
_space_group_name_H-M_alt        'P -1'
_symmetry_space_group_name_Hall  '-P 1'
_symmetry_space_group_name_H-M   'P -1'
_atom_sites_solution_hydrogens   mixed
_audit_creation_method           SHELXL-2018/3
_audit_update_record
;
2019-05-17 deposited with the CCDC.    2019-05-24 downloaded from the CCDC.
;
_cell_angle_alpha                82.34(3)
_cell_angle_beta                 65.07(3)
_cell_angle_gamma                75.54(3)
_cell_formula_units_Z            1
_cell_length_a                   15.210(3)
_cell_length_b                   15.650(3)
_cell_length_c                   17.099(3)
_cell_measurement_reflns_used    119301
_cell_measurement_temperature    220(2)
_cell_measurement_theta_max      33.749
_cell_measurement_theta_min      0.401
_cell_volume                     3572.2(15)
_computing_cell_refinement       'HKL3000sm(Otwinowski & Minor, 1997)'
_computing_data_collection       'PAL BL2D-SMDC Program(Shin et.al, 2016)'
_computing_data_reduction        'HKL3000sm(Otwinowski & Minor, 1997)'
_computing_molecular_graphics    ORTEP3
_computing_publication_material  CIFTAB
_computing_structure_refinement  'SHELXL-2018(Sheldrick, 2018)'
_computing_structure_solution    'SHELXT-2018(Sheldrick, 2018)'
_diffrn_ambient_temperature      220(2)
_diffrn_measured_fraction_theta_full 0.963
_diffrn_measured_fraction_theta_max 0.957
_diffrn_measurement_device_type  'Rayonix MX225HS CCD area detector'
_diffrn_measurement_method       'omega scan'
_diffrn_radiation_type           synchrotron
_diffrn_radiation_wavelength     0.700
_diffrn_reflns_av_R_equivalents  0.0335
_diffrn_reflns_av_unetI/netI     0.0777
_diffrn_reflns_Laue_measured_fraction_full 0.963
_diffrn_reflns_Laue_measured_fraction_max 0.957
_diffrn_reflns_limit_h_max       19
_diffrn_reflns_limit_h_min       -19
_diffrn_reflns_limit_k_max       18
_diffrn_reflns_limit_k_min       -18
_diffrn_reflns_limit_l_max       21
_diffrn_reflns_limit_l_min       -21
_diffrn_reflns_number            28016
_diffrn_reflns_point_group_measured_fraction_full 0.963
_diffrn_reflns_point_group_measured_fraction_max 0.957
_diffrn_reflns_theta_full        24.835
_diffrn_reflns_theta_max         26.000
_diffrn_reflns_theta_min         1.294
_diffrn_source                   'PLSII 2D bending magnet'
_exptl_absorpt_coefficient_mu    0.555
_exptl_absorpt_correction_T_max  1.000
_exptl_absorpt_correction_T_min  0.845
_exptl_absorpt_correction_type   empirical
_exptl_absorpt_process_details   'HKL3000sm Scalepack(Otwinowski et.al,2003)'
_exptl_crystal_colour            'pale purple'
_exptl_crystal_density_diffrn    1.020
_exptl_crystal_description       plate
_exptl_crystal_F_000             1164
_exptl_crystal_size_max          0.115
_exptl_crystal_size_mid          0.094
_exptl_crystal_size_min          0.037
_refine_diff_density_max         0.789
_refine_diff_density_min         -0.545
_refine_diff_density_rms         0.069
_refine_ls_extinction_method     none
_refine_ls_goodness_of_fit_ref   0.908
_refine_ls_hydrogen_treatment    constr
_refine_ls_matrix_type           full
_refine_ls_number_parameters     676
_refine_ls_number_reflns         14057
_refine_ls_number_restraints     648
_refine_ls_restrained_S_all      0.919
_refine_ls_R_factor_all          0.1240
_refine_ls_R_factor_gt           0.0711
_refine_ls_shift/su_max          0.000
_refine_ls_shift/su_mean         0.000
_refine_ls_structure_factor_coef Fsqd
_refine_ls_weighting_details
'w=1/[\s^2^(Fo^2^)+(0.1367P)^2^] where P=(Fo^2^+2Fc^2^)/3'
_refine_ls_weighting_scheme      calc
_refine_ls_wR_factor_gt          0.2121
_refine_ls_wR_factor_ref         0.2303
_reflns_Friedel_coverage         0.000
_reflns_number_gt                5993
_reflns_number_total             14057
_reflns_threshold_expression     'I > 2\s(I)'
_cod_data_source_file            c9cc02819f2.cif
_cod_data_source_block           asflex_OH_sq
_cod_original_cell_volume        3572.3(16)
_cod_database_code               7123540
_shelx_shelxl_version_number     2018/3
_shelx_space_group_comment
;
The symmetry employed for this shelxl refinement is uniquely defined
by the following loop, which should always be used as a source of
symmetry information in preference to the above space-group names.
They are only intended as comments.
;
_shelx_estimated_absorpt_t_min   0.939
_shelx_estimated_absorpt_t_max   0.980
_shelx_res_file
;
TITL asflex_OH in P-1
    asflex_OH_sq.res
    created by SHELXL-2018/3 at 22:57:47 on 15-May-2019
CELL  0.70000  15.2100  15.6500  17.0990   82.338   65.072   75.544
ZERR    1.000   0.0030   0.0031   0.0034    0.030    0.030    0.030
LATT  1
SFAC C H N O NI
DISP C          0.0030         0.0016          10.98
DISP H          0.0000         0.0000           0.67
DISP N          0.0059         0.0032          18.71
DISP O          0.0105         0.0059          30.82
DISP Ni         0.3420         1.0875        4371.60
UNIT 86 146 26 26 4
OMIT -3 52
OMIT 3 5 5
OMIT -1 -1 3
OMIT -1 -2 3
OMIT -1 2 4
OMIT 1 3 0
OMIT 2 0 1
OMIT 3 1 0
OMIT 2 1 1
OMIT -3 0 2
OMIT -1 4 4
OMIT 4 -1 3
OMIT 7 -1 1
ACTA
L.S. 20 0  213
BOND $H
SIZE 0.115 0.094 0.037
TEMP -53.15
CONF
WPDB
FMAP -2
PLAN -10
ABIN
EQIV $1 -x, -y+2, -z+1
HTAB N1 O6
HTAB N3 O10
HTAB N4 O8
HTAB N7 O10
HTAB N9 O3
HTAB O3 O6
HTAB N12 O12_$1
SIMU
DELU
LIST 4
WGHT    0.136700
FVAR       0.48651   0.49569
NI1   5    0.500000    1.000000    0.000000    10.50000    0.08184    0.08071 =
         0.03800   -0.00228   -0.00957   -0.00698
N1    3    0.611803    0.962389   -0.118742    11.00000    0.08504    0.08291 =
         0.04488   -0.00502   -0.01257   -0.00776
AFIX  13
H1    2    0.634535    0.897409   -0.116673    11.00000   -1.20000
AFIX   0
N2    3    0.496527    0.951677   -0.182387    11.00000    0.10945    0.09648 =
         0.05043   -0.00584   -0.02134   -0.01591
N3    3    0.394206    0.965071   -0.025527    11.00000    0.09449    0.08357 =
         0.04394   -0.00200   -0.01445   -0.00781
AFIX  13
H3    2    0.402701    0.900159   -0.017330    11.00000   -1.20000
AFIX   0
C1    1    0.692462    1.001857   -0.126648    11.00000    0.08140    0.09988 =
         0.05170   -0.00526   -0.00305   -0.01192
AFIX  23
H1A   2    0.679306    1.064117   -0.144831    11.00000   -1.20000
H1B   2    0.754640    0.971809   -0.171087    11.00000   -1.20000
AFIX   0
C2    1    0.580516    0.986182   -0.190775    11.00000    0.09879    0.10947 =
         0.03965   -0.00512   -0.00942   -0.01465
AFIX  23
H2A   2    0.563469    1.050698   -0.196430    11.00000   -1.20000
H2B   2    0.636961    0.964726   -0.244166    11.00000   -1.20000
AFIX   0
C3    1    0.398916    0.988373   -0.115403    11.00000    0.10216    0.11571 =
         0.05756    0.00566   -0.02018   -0.02261
AFIX  23
H3A   2    0.347933    0.965964   -0.122197    11.00000   -1.20000
H3B   2    0.384193    1.052770   -0.123245    11.00000   -1.20000
AFIX   0
C4    1    0.296163    1.005024    0.040282    11.00000    0.07962    0.10446 =
         0.05958   -0.00576   -0.01203   -0.00547
AFIX  23
H4A   2    0.246021    0.973301    0.045071    11.00000   -1.20000
H4B   2    0.275571    1.066967    0.024517    11.00000   -1.20000
AFIX   0
C5    1    0.520620    0.856132   -0.192782    11.00000    0.12859    0.10051 =
         0.06937   -0.00096   -0.03065   -0.01684
AFIX  23
H5A   2    0.510172    0.826681   -0.136249    11.00000   -1.20000
H5B   2    0.591247    0.838187   -0.230237    11.00000   -1.20000
AFIX   0
C6    1    0.459228    0.822882   -0.231466    11.00000    0.21821    0.23325 =
         0.13865    0.00101   -0.12015   -0.06149
AFIX  23
H6A   2    0.480477    0.758688   -0.237079    11.00000   -1.20000
H6B   2    0.388565    0.836892   -0.193042    11.00000   -1.20000
AFIX   0
O1    4    0.473345    0.862099   -0.308767    11.00000    0.45666    0.23492 =
         0.15575   -0.03991   -0.15583   -0.04086
NI2   5    0.500000    0.500000    0.500000    10.50000    0.07718    0.08252 =
         0.04544   -0.00142   -0.02031   -0.01029
N4    3    0.637120    0.489889    0.501411    11.00000    0.08084    0.10033 =
         0.05169    0.00231   -0.01760   -0.01627
AFIX  13
H4    2    0.678267    0.516576    0.446415    11.00000   -1.20000
AFIX   0
N5    3    0.584244    0.630524    0.574988    11.00000    0.11468    0.11582 =
         0.08449   -0.01459   -0.03930   -0.02948
N6    3    0.448670    0.630342    0.533839    11.00000    0.09229    0.08813 =
         0.06292   -0.00686   -0.02498   -0.01639
AFIX  13
H6    2    0.477470    0.666946    0.481453    11.00000   -1.20000
AFIX   0
C7    1    0.682796    0.394886    0.501572    11.00000    0.08358    0.10443 =
         0.06886   -0.01100   -0.02181   -0.00513
AFIX  23
H7A   2    0.655329    0.368873    0.559900    11.00000   -1.20000
H7B   2    0.754691    0.386523    0.482937    11.00000   -1.20000
AFIX   0
C8    1    0.632531    0.539032    0.573825    11.00000    0.08943    0.12167 =
         0.07152   -0.01326   -0.03271   -0.02104
AFIX  23
H8A   2    0.597068    0.510409    0.628989    11.00000   -1.20000
H8B   2    0.700269    0.534729    0.568339    11.00000   -1.20000
AFIX   0
C9    1    0.477257    0.651190    0.599596    11.00000    0.10733    0.09778 =
         0.09222   -0.01677   -0.03616   -0.01900
AFIX  23
H9A   2    0.451685    0.714231    0.611345    11.00000   -1.20000
H9B   2    0.446001    0.618153    0.653106    11.00000   -1.20000
AFIX   0
C10   1    0.339007    0.649104    0.559362    11.00000    0.09429    0.09415 =
         0.07408   -0.00559   -0.02338   -0.00005
AFIX  23
H10A  2    0.313227    0.712978    0.557485    11.00000   -1.20000
H10B  2    0.306232    0.626775    0.618477    11.00000   -1.20000
AFIX   0
PART 1 21
DFIX 1.47 0.01 N5 C11A
DFIX 1.54 0.01 C11A C12A
DFIX 1.42 0.01 C12A O2A
DANG 2.49 0.02 C11A O2A
C11A  1    0.638333    0.685670    0.503059    21.00000    0.11710    0.16504 =
         0.10135    0.02223   -0.08134   -0.06295
AFIX  23
H11A  2    0.595826    0.704166    0.471184    21.00000   -1.20000
H11B  2    0.696264    0.643518    0.466278    21.00000   -1.20000
AFIX   0
C12A  1    0.680224    0.769662    0.497821    21.00000    0.31770    0.17556 =
         0.18977   -0.04875   -0.06165   -0.10765
AFIX  23
H12A  2    0.752719    0.754009    0.477128    21.00000   -1.20000
H12B  2    0.662377    0.814724    0.458269    21.00000   -1.20000
AFIX   0
O2A   4    0.636758    0.801527    0.582558    21.00000    0.19099    0.23600 =
         0.19553   -0.05205   -0.05874   -0.07471
H2A1  2   10.673808   10.819633   10.596321    21.00000   -1.50000
PART 2 -21
DFIX 1.47 0.01 N5 C11B
DFIX 1.54 0.01 C11B C12B
DFIX 1.42 0.01 C12B O2B
DANG 2.49 0.02 C11B O2B
C11B  1    0.640247    0.686332    0.505497   -21.00000    0.17576    0.13526 =
         0.14269   -0.01121    0.03619   -0.04945
AFIX  23
H11C  2    0.600395    0.746709    0.509930   -21.00000   -1.20000
H11D  2    0.653906    0.664194    0.449642   -21.00000   -1.20000
AFIX   0
C12B  1    0.738118    0.687083    0.510294   -21.00000    0.24026    0.20694 =
         0.17082    0.05052   -0.02831   -0.14138
AFIX  23
H12C  2    0.778597    0.626989    0.498779   -21.00000   -1.20000
H12D  2    0.771951    0.724750    0.461849   -21.00000   -1.20000
AFIX   0
O2B   4    0.742733    0.713447    0.583338   -21.00000    0.32079    0.24702 =
         0.17589   -0.00101   -0.04000   -0.08079
H2B1  2   10.792907   10.711137   10.580709   -21.00000   -1.50000
PART 0
NI3   5    0.500000    0.500000    0.000000    10.50000    0.08598    0.08787 =
         0.04633   -0.01416   -0.01720   -0.00253
N7    3    0.484388    0.562707   -0.109144    11.00000    0.09921    0.08788 =
         0.06045   -0.01167   -0.02642   -0.00410
AFIX  13
H7    2    0.471953    0.627180   -0.103191    11.00000   -1.20000
AFIX   0
N8    3    0.666158    0.549106   -0.190160    11.00000    0.11185    0.09870 =
         0.06358   -0.00986   -0.01372   -0.01349
N9    3    0.645445    0.509132   -0.041683    11.00000    0.09769    0.09379 =
         0.06519   -0.01563   -0.01730   -0.01413
AFIX  13
H9    2    0.645212    0.570369   -0.032602    11.00000   -1.20000
AFIX   0
C13   1    0.393439    0.541839   -0.107705    11.00000    0.10471    0.09747 =
         0.07899   -0.01465   -0.03861   -0.00730
AFIX  23
H13A  2    0.408442    0.481565   -0.126806    11.00000   -1.20000
H13B  2    0.370119    0.582568   -0.147120    11.00000   -1.20000
AFIX   0
C14   1    0.572931    0.537563   -0.189464    11.00000    0.11257    0.12461 =
         0.05733   -0.01602   -0.01877   -0.00973
AFIX  23
H14A  2    0.580450    0.475460   -0.199594    11.00000   -1.20000
H14B  2    0.561692    0.572796   -0.237570    11.00000   -1.20000
AFIX   0
C15   1    0.705867    0.491743   -0.135087    11.00000    0.11087    0.10851 =
         0.06787   -0.01520   -0.02054   -0.01391
AFIX  23
H15A  2    0.773449    0.498695   -0.150085    11.00000   -1.20000
H15B  2    0.709907    0.430471   -0.145345    11.00000   -1.20000
AFIX   0
C16   1    0.685679    0.449580    0.017546    11.00000    0.08887    0.10875 =
         0.08216   -0.01346   -0.03187   -0.00610
AFIX  23
H16A  2    0.704508    0.388272   -0.000063    11.00000   -1.20000
H16B  2    0.744757    0.466419    0.014952    11.00000   -1.20000
AFIX   0
C17   1    0.667948    0.642958   -0.195087    11.00000    0.12298    0.10334 =
         0.06916   -0.00903   -0.00838   -0.02327
AFIX  23
H17A  2    0.616331    0.670636   -0.142088    11.00000   -1.20000
H17B  2    0.651921    0.671479   -0.243474    11.00000   -1.20000
AFIX   0
C18   1    0.766174    0.659097   -0.206712    11.00000    0.12967    0.13223 =
         0.09200   -0.01552    0.00346   -0.03048
AFIX  23
H18A  2    0.819211    0.619009   -0.250022    11.00000   -1.20000
H18B  2    0.769851    0.719580   -0.229471    11.00000   -1.20000
AFIX   0
O3    4    0.784640    0.647104   -0.128374    11.00000    0.11565    0.15107 =
         0.11687   -0.03252   -0.02148   -0.00603
AFIX 147
H3C   2    0.741162    0.681893   -0.091686    11.00000   -1.50000
AFIX   0
NI4   5    0.000000    1.000000    0.500000    10.50000    0.06475    0.12367 =
         0.05519   -0.03091   -0.00874   -0.00843
N10   3    0.072389    1.100694    0.442662    11.00000    0.07854    0.13853 =
         0.06938   -0.02816   -0.00945   -0.02316
AFIX  13
H10   2    0.028592    1.155860    0.471351    11.00000   -1.20000
AFIX   0
N11   3    0.007867    1.129528    0.327533    11.00000    0.08575    0.17393 =
         0.06169   -0.01410   -0.01038   -0.01902
N12   3   -0.087043    1.026485    0.431195    11.00000    0.07462    0.13064 =
         0.06526   -0.03290   -0.01573   -0.00475
AFIX  13
H12   2   -0.142688    1.076189    0.459253    11.00000   -1.20000
AFIX   0
C19   1    0.160368    1.080910    0.463977    11.00000    0.08516    0.16247 =
         0.10102   -0.03851   -0.00835   -0.04138
AFIX  23
H19A  2    0.187001    1.134056    0.454812    11.00000   -1.20000
H19B  2    0.212236    1.035149    0.426475    11.00000   -1.20000
AFIX   0
C20   1    0.094139    1.113694    0.348340    11.00000    0.10245    0.15790 =
         0.07108   -0.02342    0.00163   -0.02993
AFIX  23
H20A  2    0.126571    1.163848    0.325781    11.00000   -1.20000
H20B  2    0.141315    1.061154    0.318462    11.00000   -1.20000
AFIX   0
C21   1   -0.035384    1.054904    0.338646    11.00000    0.08696    0.17479 =
         0.05703   -0.03844   -0.01446    0.00025
AFIX  23
H21A  2    0.016974    1.005236    0.308036    11.00000   -1.20000
H21B  2   -0.083290    1.069259    0.311977    11.00000   -1.20000
AFIX   0
C22   1   -0.129502    0.950887    0.441871    11.00000    0.08541    0.15263 =
         0.10327   -0.04605   -0.02964   -0.02209
AFIX  23
H22A  2   -0.080624    0.903971    0.403945    11.00000   -1.20000
H22B  2   -0.187337    0.967127    0.427118    11.00000   -1.20000
AFIX   0
DFIX 1.47 0.01 N11 C23
DFIX 1.51 0.01 C23 C24
DFIX 1.42 0.01 C24 O4
DANG 2.47 0.01 C23 O4
C23   1   -0.065673    1.212473    0.356377    11.00000    0.14245    0.15302 =
         0.06870    0.00470   -0.00083    0.00572
AFIX  23
H23A  2   -0.096330    1.208570    0.419563    11.00000   -1.20000
H23B  2   -0.117798    1.213564    0.336623    11.00000   -1.20000
AFIX   0
C24   1   -0.036731    1.303486    0.330932    11.00000    0.31171    0.26125 =
         0.09840    0.03488   -0.02582   -0.16578
AFIX  23
H24A  2    0.014887    1.303574    0.272203    11.00000   -1.20000
H24B  2   -0.094505    1.350426    0.334448    11.00000   -1.20000
AFIX   0
ISOR 0.001 O4
O4    4    0.000745    1.315199    0.394906    11.00000    0.35338    0.35430 =
         0.35408   -0.01496   -0.14658   -0.07919
H4C   2  -10.017035   11.371084   10.403353    11.00000   -1.50000

O5    4    0.524121    0.869340    0.057062    11.00000    0.08751    0.08082 =
         0.04668    0.00000   -0.00799   -0.00801
O6    4    0.649189    0.785985   -0.044141    11.00000    0.10027    0.09299 =
         0.04717    0.00143   -0.00354    0.00168
O7    4    0.552066    0.546283    0.369868    11.00000    0.07513    0.09783 =
         0.04670    0.00865   -0.01790   -0.01806
O8    4    0.717705    0.529318    0.309707    11.00000    0.08090    0.15600 =
         0.07641    0.02273   -0.03189   -0.01692
O9    4    0.462313    0.622721    0.059546    11.00000    0.09610    0.08772 =
         0.05598   -0.01963   -0.02686    0.00540
O10   4    0.401295    0.736498   -0.013148    11.00000    0.11400    0.09784 =
         0.04739   -0.00481   -0.02934   -0.01327
O11   4    0.102534    0.911432    0.400591    11.00000    0.06515    0.14371 =
         0.06362   -0.04064   -0.01136    0.00017
O12   4    0.229342    0.853214    0.436141    11.00000    0.08733    0.15202 =
         0.05707   -0.03499   -0.01447    0.00880
C25   1    0.588965    0.798886    0.032873    11.00000    0.07342    0.08368 =
         0.04460   -0.00910   -0.00841   -0.00796
C26   1    0.595337    0.730207    0.099587    11.00000    0.06585    0.08324 =
         0.04106   -0.00401   -0.00809   -0.00845
C27   1    0.511107    0.713267    0.173564    11.00000    0.07151    0.07338 =
         0.04655   -0.00689   -0.01681   -0.00737
C28   1    0.528602    0.654741    0.237630    11.00000    0.07222    0.08177 =
         0.04177   -0.00472   -0.01317   -0.01172
AFIX  43
H28   2    0.473457    0.641899    0.286038    11.00000   -1.20000
AFIX   0
C29   1    0.622447    0.614777    0.233682    11.00000    0.07853    0.08633 =
         0.05081   -0.00589   -0.02122   -0.00917
C30   1    0.705269    0.628397    0.159259    11.00000    0.07054    0.08872 =
         0.06045   -0.00088   -0.01448   -0.00946
AFIX  43
H30   2    0.769944    0.600282    0.153367    11.00000   -1.20000
AFIX   0
C31   1    0.688897    0.684845    0.094263    11.00000    0.07432    0.09053 =
         0.04818    0.00253   -0.00861   -0.01580
AFIX  43
H31   2    0.744360    0.692831    0.043710    11.00000   -1.20000
AFIX   0
C32   1    0.631706    0.558583    0.310127    11.00000    0.07791    0.08412 =
         0.05775    0.00002   -0.02330   -0.00923
C33   1    0.412810    0.699842    0.053051    11.00000    0.07614    0.09140 =
         0.04577   -0.01155   -0.00883   -0.01555
C34   1    0.358909    0.749544    0.136337    11.00000    0.07480    0.08236 =
         0.04708   -0.00423   -0.01666   -0.00709
C35   1    0.407219    0.752708    0.191043    11.00000    0.06810    0.07450 =
         0.03985   -0.00025   -0.01495   -0.00990
C36   1    0.345223    0.792660    0.271380    11.00000    0.07246    0.08050 =
         0.04581   -0.00009   -0.01913   -0.01245
AFIX  43
H36   2    0.374893    0.795741    0.309000    11.00000   -1.20000
AFIX   0
C37   1    0.247478    0.826397    0.297803    11.00000    0.06355    0.08772 =
         0.04877   -0.01041   -0.00992   -0.01437
C38   1    0.202068    0.824391    0.243018    11.00000    0.06503    0.09233 =
         0.05805   -0.01188   -0.01530   -0.00819
AFIX  43
H38   2    0.133722    0.848256    0.260460    11.00000   -1.20000
AFIX   0
C39   1    0.257115    0.787155    0.162027    11.00000    0.07042    0.09422 =
         0.05359   -0.01245   -0.01670   -0.01034
AFIX  43
H39   2    0.226080    0.787250    0.124698    11.00000   -1.20000
AFIX   0
C40   1    0.186791    0.868040    0.384941    11.00000    0.07141    0.11569 =
         0.05026   -0.01902   -0.01582   -0.00354
O1S   4    0.776372    0.966037    0.274314    11.00000    0.22547    0.25911 =
         0.26649   -0.08006   -0.13732   -0.02324
N1S   3    0.694392    0.858635    0.277944    11.00000    0.17657    0.16362 =
         0.23487   -0.05798   -0.10500   -0.00362
C1S   1    0.696511    0.937441    0.294209    11.00000    0.22557    0.16017 =
         0.22089   -0.04948   -0.13094   -0.00965
AFIX  43
H1S   2    0.635341    0.976129    0.322485    11.00000   -1.20000
AFIX   0
C2S   1    0.601444    0.836506    0.292107    11.00000    0.21410    0.23105 =
         0.16839    0.00437   -0.08332   -0.08114
AFIX 137
H2S1  2    0.550132    0.890033    0.301279    11.00000   -1.50000
H2S2  2    0.582420    0.797253    0.342496    11.00000   -1.50000
H2S3  2    0.609723    0.807455    0.242003    11.00000   -1.50000
AFIX   0
C3S   1    0.783789    0.793510    0.238669    11.00000    0.22926    0.26392 =
         0.67301   -0.25775   -0.12354    0.02857
H3S1  2   10.812763   10.779781   10.191792    11.00000   -1.50000
H3S2  2   10.773746   10.735723   10.285625    11.00000   -1.50000
H3S3  2   10.835302   10.810049   10.264991    11.00000   -1.50000
HKLF 4




REM  asflex_OH in P-1
REM wR2 = 0.2303, GooF = S = 0.908, Restrained GooF = 0.919 for all data
REM R1 = 0.0711 for 5993 Fo > 4sig(Fo) and 0.1240 for all 14057 data
REM 676 parameters refined using 648 restraints

END

WGHT      0.1370      0.0000

REM Highest difference peak  0.789,  deepest hole -0.545,  1-sigma level  0.069
Q1    1   0.8542  0.3931  0.2376  11.00000  0.05    0.79
Q2    1   0.4750  0.7444 -0.2527  11.00000  0.05    0.57
Q3    1  -0.0762  1.3689  0.3424  11.00000  0.05    0.56
Q4    1   0.4677  0.4372  0.0510  11.00000  0.05    0.55
Q5    1  -0.0025  1.3561  0.3834  11.00000  0.05   -0.54
Q6    1   0.0028  1.3112  0.2389  11.00000  0.05    0.52
Q7    1   0.7361  0.7965  0.4689  11.00000  0.05    0.52
Q8    1   0.0438  1.3393  0.3857  11.00000  0.05   -0.51
Q9    1   0.4598  0.5569  0.4921  11.00000  0.05   -0.50
Q10   1   0.5397  0.4464  0.0051  11.00000  0.05   -0.46
;
_shelx_res_checksum              71668
_shelx_fab_file
;
    0    0    1     29.16      0.00
    0    0    2     51.95      0.00
    0    0    3     -8.89      0.00
    0    0    4    -14.38      0.00
    0    0    5      1.61      0.00
    0    0    6     -0.60      0.00
    0    0    7    -25.19      0.00
    0    0    8    -11.52      0.00
    0    0    9      3.73      0.00
    0    0   10      2.19      0.00
    0    0   11     -1.87      0.00
    0    0   12     -4.01      0.00
    0    0   13     -4.00      0.00
    0    0   14      1.87      0.00
    0    0   15      2.07      0.00
    0    0   16     -0.81      0.00
    0    0   17     -1.63      0.00
    0    0   18      1.55      0.00
    0    0   19      0.84      0.00
    0    0   20     -1.31      0.00
    0    0   21     -1.47      0.00
    0    0   22     -1.82      0.00
    0   -1   21     -0.19      0.00
    0   -1   20      1.46      0.00
    0   -1   19     -0.56      0.00
    0   -1   18     -0.57      0.00
    0   -1   17     -0.56      0.00
    0   -1   16      2.47      0.00
    0   -1   15     -1.02      0.00
    0   -1   14     -2.15      0.00
    0   -1   13     -2.51      0.00
    0   -1   12      0.49      0.00
    0   -1   11     -3.05      0.00
    0   -1   10      2.17      0.00
    0   -1    9     -4.22      0.00
    0   -1    8     -1.81      0.00
    0   -1    7      4.21      0.00
    0   -1    6     23.88      0.00
    0   -1    5    -19.50      0.00
    0   -1    4     13.42      0.00
    0   -1    3    -22.02      0.00
    0   -1    2     76.52      0.00
    0   -1    1     24.77      0.00
    0    1    0    -14.84      0.00
    0    1    1     25.84      0.00
    0    1    2     -8.17      0.00
    0    1    3    -14.67      0.00
    0    1    4     10.78      0.00
    0    1    5    -14.83      0.00
    0    1    6    -13.57      0.00
    0    1    7    -11.64      0.00
    0    1    8     -2.78      0.00
    0    1    9      6.63      0.00
    0    1   10    -12.13      0.00
    0    1   11     -4.68      0.00
    0    1   12      1.31      0.00
    0    1   13      3.82      0.00
    0    1   14      1.58      0.00
    0    1   15      0.72      0.00
    0    1   16     -1.09      0.00
    0    1   17      2.35      0.00
    0    1   18      1.40      0.00
    0    1   19      0.79      0.00
    0    1   20     -0.18      0.00
    0    1   21      0.59      0.00
    0    1   22      0.95      0.00
    0   -2   21     -0.83      0.00
    0   -2   20     -1.28      0.00
    0   -2   19     -1.13      0.00
    0   -2   18      0.73      0.00
    0   -2   17     -1.13      0.00
    0   -2   16      0.51      0.00
    0   -2   15     -1.07      0.00
    0   -2   14     -1.19      0.00
    0   -2   13     -0.21      0.00
    0   -2   12      0.40      0.00
    0   -2   11     -4.66      0.00
    0   -2   10      2.19      0.00
    0   -2    9      6.92      0.00
    0   -2    8      5.62      0.00
    0   -2    7     11.26      0.00
    0   -2    6     -7.88      0.00
    0   -2    5     -9.96      0.00
    0   -2    4     24.04      0.00
    0   -2    3     19.08      0.00
    0   -2    2    -22.58      0.00
    0   -2    1     14.12      0.00
    0    2    0      4.19      0.00
    0    2    1    -62.23      0.00
    0    2    2     41.57      0.00
    0    2    3    -16.70      0.00
    0    2    4    -53.04      0.00
    0    2    5     17.36      0.00
    0    2    6      4.22      0.00
    0    2    7     22.01      0.00
    0    2    8     -1.19      0.00
    0    2    9     -6.99      0.00
    0    2   10     -3.56      0.00
    0    2   11      7.73      0.00
    0    2   12      1.59      0.00
    0    2   13      2.41      0.00
    0    2   14     -1.35      0.00
    0    2   15      1.94      0.00
    0    2   16      0.26      0.00
    0    2   17      0.02      0.00
    0    2   18     -1.28      0.00
    0    2   19     -1.95      0.00
    0    2   20      0.41      0.00
    0    2   21      1.76      0.00
    0    2   22     -0.22      0.00
    0   -3   21     -1.43      0.00
    0   -3   20     -0.26      0.00
    0   -3   19      0.36      0.00
    0   -3   18      0.05      0.00
    0   -3   17      0.33      0.00
    0   -3   16     -0.78      0.00
    0   -3   15     -1.41      0.00
    0   -3   14      1.24      0.00
    0   -3   13      1.87      0.00
    0   -3   12      2.56      0.00
    0   -3   11      3.05      0.00
    0   -3   10      2.91      0.00
    0   -3    9      1.87      0.00
    0   -3    8     -2.27      0.00
    0   -3    7      4.79      0.00
    0   -3    6    -12.26      0.00
    0   -3    5     -0.72      0.00
    0   -3    4     -3.32      0.00
    0   -3    3     15.43      0.00
    0   -3    2     -7.95      0.00
    0   -3    1    -24.56      0.00
    0    3    0    -11.12      0.00
    0    3    1      1.72      0.00
    0    3    2    -12.27      0.00
    0    3    3    -27.66      0.00
    0    3    4     -4.78      0.00
    0    3    5     14.61      0.00
    0    3    6      2.95      0.00
    0    3    7      3.64      0.00
    0    3    8      2.22      0.00
    0    3    9      3.66      0.00
    0    3   10      4.74      0.00
    0    3   11      7.17      0.00
    0    3   12     -2.13      0.00
    0    3   13     -0.29      0.00
    0    3   14      1.66      0.00
    0    3   15      0.67      0.00
    0    3   16      0.37      0.00
    0    3   17     -2.07      0.00
    0    3   18      1.17      0.00
    0    3   19      2.24      0.00
    0    3   20      1.55      0.00
    0    3   21      0.10      0.00
    0    3   22     -0.64      0.00
    0   -4   21      0.57      0.00
    0   -4   20      0.55      0.00
    0   -4   19      0.11      0.00
    0   -4   18     -0.29      0.00
    0   -4   17      0.10      0.00
    0   -4   16      0.53      0.00
    0   -4   15     -0.97      0.00
    0   -4   14     -0.05      0.00
    0   -4   13      2.53      0.00
    0   -4   12     -1.15      0.00
    0   -4   11      0.57      0.00
    0   -4   10     -1.74      0.00
    0   -4    9      0.72      0.00
    0   -4    8     -5.89      0.00
    0   -4    7      3.18      0.00
    0   -4    6    -22.63      0.00
    0   -4    5     11.77      0.00
    0   -4    4     -1.57      0.00
    0   -4    3    -20.41      0.00
    0   -4    2      9.14      0.00
    0   -4    1     -0.43      0.00
    0    4    0     -8.84      0.00
    0    4    1     17.02      0.00
    0    4    2     28.09      0.00
    0    4    3      6.13      0.00
    0    4    4      8.51      0.00
    0    4    5      5.25      0.00
    0    4    6    -13.45      0.00
    0    4    7      1.53      0.00
    0    4    8      2.45      0.00
    0    4    9     -0.25      0.00
    0    4   10      3.91      0.00
    0    4   11     -1.68      0.00
    0    4   12     -0.98      0.00
    0    4   13      1.18      0.00
    0    4   14      0.51      0.00
    0    4   15     -1.81      0.00
    0    4   16      0.09      0.00
    0    4   17      0.79      0.00
    0    4   18     -0.80      0.00
    0    4   19     -0.96      0.00
    0    4   20      0.57      0.00
    0    4   21      0.55      0.00
    0    4   22     -0.18      0.00
    0   -5   21     -1.02      0.00
    0   -5   20      0.44      0.00
    0   -5   19      0.16      0.00
    0   -5   18      0.24      0.00
    0   -5   17      0.12      0.00
    0   -5   16      0.36      0.00
    0   -5   15      0.26      0.00
    0   -5   14      0.47      0.00
    0   -5   13     -1.60      0.00
    0   -5   12     -0.85      0.00
    0   -5   11      4.49      0.00
    0   -5   10     -3.71      0.00
    0   -5    9     -2.43      0.00
    0   -5    8     -6.80      0.00
    0   -5    7      2.12      0.00
    0   -5    6      0.65      0.00
    0   -5    5      9.55      0.00
    0   -5    4     -9.21      0.00
    0   -5    3      9.40      0.00
    0   -5    2      8.75      0.00
    0   -5    1     28.82      0.00
    0    5    0      0.01      0.00
    0    5    1     12.28      0.00
    0    5    2    -11.45      0.00
    0    5    3     -0.44      0.00
    0    5    4      4.29      0.00
    0    5    5    -18.75      0.00
    0    5    6     -8.10      0.00
    0    5    7     -0.54      0.00
    0    5    8     -3.14      0.00
    0    5    9     -3.65      0.00
    0    5   10     -1.50      0.00
    0    5   11     -2.36      0.00
    0    5   12      1.19      0.00
    0    5   13      0.44      0.00
    0    5   14     -2.00      0.00
    0    5   15     -0.10      0.00
    0    5   16      1.04      0.00
    0    5   17      0.07      0.00
    0    5   18      0.53      0.00
    0    5   19     -0.61      0.00
    0    5   20     -2.02      0.00
    0    5   21      0.02      0.00
    0    5   22      0.74      0.00
    0   -6   21      0.04      0.00
    0   -6   20     -1.23      0.00
    0   -6   19     -0.82      0.00
    0   -6   18     -0.26      0.00
    0   -6   17      1.05      0.00
    0   -6   16     -0.57      0.00
    0   -6   15     -1.03      0.00
    0   -6   14     -0.39      0.00
    0   -6   13      0.65      0.00
    0   -6   12     -0.04      0.00
    0   -6   11     -0.05      0.00
    0   -6   10     -6.48      0.00
    0   -6    9     -1.07      0.00
    0   -6    8      2.83      0.00
    0   -6    7      6.55      0.00
    0   -6    6      0.51      0.00
    0   -6    5      6.10      0.00
    0   -6    4     -8.02      0.00
    0   -6    3      8.29      0.00
    0   -6    2     26.24      0.00
    0   -6    1    -17.24      0.00
    0    6    0      2.90      0.00
    0    6    1    -11.42      0.00
    0    6    2     -1.54      0.00
    0    6    3      1.58      0.00
    0    6    4      0.03      0.00
    0    6    5    -19.29      0.00
    0    6    6     -5.32      0.00
    0    6    7      0.23      0.00
    0    6    8      2.87      0.00
    0    6    9      0.98      0.00
    0    6   10      1.63      0.00
    0    6   11     -0.62      0.00
    0    6   12      0.66      0.00
    0    6   13      0.81      0.00
    0    6   14      0.25      0.00
    0    6   15      0.67      0.00
    0    6   16      0.84      0.00
    0    6   17      1.44      0.00
    0    6   18      0.10      0.00
    0    6   19     -0.43      0.00
    0    6   20      0.80      0.00
    0    6   21      0.94      0.00
    0   -7   20     -0.59      0.00
    0   -7   19     -0.17      0.00
    0   -7   18      0.32      0.00
    0   -7   17     -1.75      0.00
    0   -7   16     -0.22      0.00
    0   -7   15      0.85      0.00
    0   -7   14      1.57      0.00
    0   -7   13      0.86      0.00
    0   -7   12      0.21      0.00
    0   -7   11     -1.36      0.00
    0   -7   10      0.94      0.00
    0   -7    9      5.19      0.00
    0   -7    8      3.30      0.00
    0   -7    7     -0.09      0.00
    0   -7    6      2.26      0.00
    0   -7    5      2.39      0.00
    0   -7    4     11.33      0.00
    0   -7    3      3.05      0.00
    0   -7    2      1.12      0.00
    0   -7    1    -14.01      0.00
    0    7    0     12.39      0.00
    0    7    1     -9.06      0.00
    0    7    2     -1.76      0.00
    0    7    3    -18.50      0.00
    0    7    4     -1.72      0.00
    0    7    5     -5.45      0.00
    0    7    6      9.66      0.00
    0    7    7      0.67      0.00
    0    7    8     -1.06      0.00
    0    7    9      2.18      0.00
    0    7   10      2.28      0.00
    0    7   11     -1.27      0.00
    0    7   12      1.79      0.00
    0    7   13     -1.00      0.00
    0    7   14      0.13      0.00
    0    7   15      0.28      0.00
    0    7   16      0.27      0.00
    0    7   17     -1.51      0.00
    0    7   18      0.54      0.00
    0    7   19      0.92      0.00
    0    7   20     -1.01      0.00
    0    7   21      0.15      0.00
    0    7   22     -0.14      0.00
    0   -8   20     -0.10      0.00
    0   -8   19      2.55      0.00
    0   -8   18     -0.75      0.00
    0   -8   17     -0.01      0.00
    0   -8   16      1.31      0.00
    0   -8   15     -0.07      0.00
    0   -8   14      0.90      0.00
    0   -8   13     -1.61      0.00
    0   -8   12      0.36      0.00
    0   -8   11     -0.34      0.00
    0   -8   10      0.83      0.00
    0   -8    9     -1.18      0.00
    0   -8    8     -1.57      0.00
    0   -8    7     -4.04      0.00
    0   -8    6      7.40      0.00
    0   -8    5     -3.14      0.00
    0   -8    4     -1.98      0.00
    0   -8    3     -7.78      0.00
    0   -8    2     -3.59      0.00
    0   -8    1     -4.90      0.00
    0    8    0      9.84      0.00
    0    8    1     -9.29      0.00
    0    8    2     -8.35      0.00
    0    8    3      5.16      0.00
    0    8    4      1.81      0.00
    0    8    5      5.53      0.00
    0    8    6      3.48      0.00
    0    8    7     -4.25      0.00
    0    8    8      3.13      0.00
    0    8    9      6.25      0.00
    0    8   10      2.80      0.00
    0    8   11      0.32      0.00
    0    8   12      0.35      0.00
    0    8   13      1.08      0.00
    0    8   14      0.08      0.00
    0    8   15     -0.35      0.00
    0    8   16     -1.26      0.00
    0    8   17      0.34      0.00
    0    8   18     -0.79      0.00
    0    8   19     -0.10      0.00
    0    8   20     -0.89      0.00
    0    8   21      0.97      0.00
    0   -9   19      0.77      0.00
    0   -9   18      0.65      0.00
    0   -9   17      0.17      0.00
    0   -9   16      0.94      0.00
    0   -9   15     -0.85      0.00
    0   -9   14      0.02      0.00
    0   -9   13      0.44      0.00
    0   -9   12      1.85      0.00
    0   -9   11     -1.83      0.00
    0   -9   10      0.01      0.00
    0   -9    9     -0.53      0.00
    0   -9    8     -1.14      0.00
    0   -9    7      2.07      0.00
    0   -9    6     -2.66      0.00
    0   -9    5     -3.41      0.00
    0   -9    4     -0.62      0.00
    0   -9    3      4.77      0.00
    0   -9    2     -3.15      0.00
    0   -9    1      5.26      0.00
    0    9    0     -4.39      0.00
    0    9    1     -3.65      0.00
    0    9    2      4.96      0.00
    0    9    3      3.42      0.00
    0    9    4      0.42      0.00
    0    9    5      1.47      0.00
    0    9    6     -3.33      0.00
    0    9    7      1.73      0.00
    0    9    8      2.06      0.00
    0    9    9      2.03      0.00
    0    9   10     -3.53      0.00
    0    9   11      2.82      0.00
    0    9   12     -0.14      0.00
    0    9   13      0.77      0.00
    0    9   14      0.59      0.00
    0    9   15     -1.35      0.00
    0    9   16     -1.11      0.00
    0    9   17     -0.52      0.00
    0    9   18      0.33      0.00
    0    9   19     -0.51      0.00
    0    9   20     -1.35      0.00
    0    9   21      0.46      0.00
    0  -10   18     -1.28      0.00
    0  -10   17      0.02      0.00
    0  -10   16     -1.52      0.00
    0  -10   15     -1.01      0.00
    0  -10   14      0.00      0.00
    0  -10   13     -0.52      0.00
    0  -10   12     -1.18      0.00
    0  -10   11     -0.26      0.00
    0  -10   10     -0.01      0.00
    0  -10    9     -1.47      0.00
    0  -10    8     -1.90      0.00
    0  -10    7      0.65      0.00
    0  -10    6     -1.12      0.00
    0  -10    5      2.26      0.00
    0  -10    4      2.28      0.00
    0  -10    3      2.24      0.00
    0  -10    2     -0.85      0.00
    0  -10    1      0.64      0.00
    0   10    0      0.46      0.00
    0   10    1      1.21      0.00
    0   10    2      3.33      0.00
    0   10    3     -3.83      0.00
    0   10    4     -5.08      0.00
    0   10    5      0.73      0.00
    0   10    6      0.44      0.00
    0   10    7      0.17      0.00
    0   10    8     -1.72      0.00
    0   10    9     -0.03      0.00
    0   10   10      2.07      0.00
    0   10   11      0.46      0.00
    0   10   12     -0.35      0.00
    0   10   13      0.14      0.00
    0   10   14     -0.71      0.00
    0   10   15      0.56      0.00
    0   10   16      0.19      0.00
    0   10   17      0.84      0.00
    0   10   18      0.19      0.00
    0   10   19      0.57      0.00
    0   10   20      0.15      0.00
    0   10   21     -0.61      0.00
    0  -11   17     -0.52      0.00
    0  -11   16      1.30      0.00
    0  -11   15      0.89      0.00
    0  -11   14      1.09      0.00
    0  -11   13      0.47      0.00
    0  -11   12      0.89      0.00
    0  -11   11      0.01      0.00
    0  -11   10     -1.13      0.00
    0  -11    9     -0.79      0.00
    0  -11    8      0.07      0.00
    0  -11    7      2.58      0.00
    0  -11    6     -0.88      0.00
    0  -11    5      2.13      0.00
    0  -11    4      1.55      0.00
    0  -11    3     -1.08      0.00
    0  -11    2      0.22      0.00
    0  -11    1     -1.09      0.00
    0   11    0     -1.30      0.00
    0   11    1      0.08      0.00
    0   11    2     -0.67      0.00
    0   11    3     -3.00      0.00
    0   11    4      0.76      0.00
    0   11    5     -1.60      0.00
    0   11    6     -1.32      0.00
    0   11    7      0.15      0.00
    0   11    8      0.72      0.00
    0   11    9     -0.43      0.00
    0   11   10      1.88      0.00
    0   11   11      0.14      0.00
    0   11   12      0.02      0.00
    0   11   13      0.56      0.00
    0   11   14      0.50      0.00
    0   11   15      1.10      0.00
    0   11   16     -2.60      0.00
    0   11   17     -0.62      0.00
    0   11   18      0.02      0.00
    0   11   20      0.01      0.00
    0  -12   17     -0.52      0.00
    0  -12   16      1.10      0.00
    0  -12   15     -0.46      0.00
    0  -12   14      0.85      0.00
    0  -12   13      0.38      0.00
    0  -12   12     -0.37      0.00
    0  -12   11     -0.31      0.00
    0  -12   10      0.89      0.00
    0  -12    9     -0.08      0.00
    0  -12    8      0.72      0.00
    0  -12    7     -0.51      0.00
    0  -12    6     -0.24      0.00
    0  -12    5      1.01      0.00
    0  -12    4      0.07      0.00
    0  -12    3     -1.07      0.00
    0  -12    2      0.72      0.00
    0  -12    1      0.49      0.00
    0   12    0     -1.12      0.00
    0   12    1     -0.31      0.00
    0   12    2     -0.65      0.00
    0   12    3     -3.24      0.00
    0   12    4      0.82      0.00
    0   12    5     -1.46      0.00
    0   12    6     -0.55      0.00
    0   12    7      0.65      0.00
    0   12    8      0.73      0.00
    0   12    9     -0.45      0.00
    0   12   10     -0.08      0.00
    0   12   11     -0.34      0.00
    0   12   12      1.00      0.00
    0   12   13      1.35      0.00
    0   12   14     -1.20      0.00
    0   12   15      0.23      0.00
    0   12   16      0.14      0.00
    0   12   17      1.30      0.00
    0   12   18     -0.52      0.00
    0  -13   17     -0.35      0.00
    0  -13   16      1.47      0.00
    0  -13   15     -0.25      0.00
    0  -13   14      0.93      0.00
    0  -13   13     -0.50      0.00
    0  -13   12      0.12      0.00
    0  -13   11     -0.36      0.00
    0  -13   10      0.68      0.00
    0  -13    9     -0.66      0.00
    0  -13    8      0.17      0.00
    0  -13    7      0.17      0.00
    0  -13    6      0.48      0.00
    0  -13    5      0.30      0.00
    0  -13    4     -0.24      0.00
    0  -13    3      0.16      0.00
    0  -13    2      2.03      0.00
    0  -13    1     -2.25      0.00
    0   13    0      0.37      0.00
    0   13    1      0.16      0.00
    0   13    2     -0.81      0.00
    0   13    3      1.64      0.00
    0   13    4      1.16      0.00
    0   13    5     -1.47      0.00
    0   13    6      0.47      0.00
    0   13    7      0.54      0.00
    0   13    8     -0.41      0.00
    0   13    9      0.04      0.00
    0   13   10      0.82      0.00
    0   13   11      0.51      0.00
    0   13   12     -0.44      0.00
    0   13   13     -0.40      0.00
    0   13   14     -0.45      0.00
    0   13   15      1.45      0.00
    0   13   16      0.70      0.00
    0   13   17      0.05      0.00
    0  -14   16      1.38      0.00
    0  -14   15      1.03      0.00
    0  -14   14      0.87      0.00
    0  -14   13     -0.64      0.00
    0  -14   12     -0.36      0.00
    0  -14   11     -0.95      0.00
    0  -14   10     -0.61      0.00
    0  -14    9     -0.21      0.00
    0  -14    8     -0.63      0.00
    0  -14    7     -1.19      0.00
    0  -14    6     -0.87      0.00
    0  -14    5     -0.68      0.00
    0  -14    4      0.25      0.00
    0  -14    3      0.26      0.00
    0  -14    2      0.28      0.00
    0  -14    1     -0.87      0.00
    0   14    0     -0.38      0.00
    0   14    1      0.12      0.00
    0   14    4     -0.03      0.00
    0   14    5     -0.45      0.00
    0   14    6      0.75      0.00
    0   14    7     -0.25      0.00
    0   14    8     -0.17      0.00
    0   14    9      0.79      0.00
    0   14   10     -1.08      0.00
    0   14   11     -0.87      0.00
    0   14   12      0.11      0.00
    0   14   13     -0.79      0.00
    0   14   14     -0.26      0.00
    0   14   15     -0.01      0.00
    0   14   16     -1.08      0.00
    0   14   17     -0.91      0.00
    0   14   18     -1.04      0.00
    0  -15   14     -0.27      0.00
    0  -15   13      0.03      0.00
    0  -15   12      0.70      0.00
    0  -15   11      0.30      0.00
    0  -15   10      0.50      0.00
    0  -15    9      0.76      0.00
    0  -15    8     -0.91      0.00
    0  -15    7     -1.13      0.00
    0  -15    6      0.12      0.00
    0  -15    5      0.21      0.00
    0  -15    4      0.22      0.00
    0  -15    3     -0.58      0.00
    0  -15    2     -1.21      0.00
    0  -15    1      0.52      0.00
    0   15    0     -0.41      0.00
    0   15    5     -1.49      0.00
    0   15    6      0.01      0.00
    0   15    7     -0.91      0.00
    0   15    8      1.83      0.00
    0   15    9     -0.21      0.00
    0   15   10      0.11      0.00
    0   15   11      2.02      0.00
    0   15   12     -0.65      0.00
    0   15   13     -0.65      0.00
    0   15   14     -0.82      0.00
    0   15   15      0.76      0.00
    0   15   16     -0.56      0.00
    0   15   17      1.22      0.00
    0   15   19      0.48      0.00
    0  -16   13      1.13      0.00
    0  -16   12      0.03      0.00
    0  -16   11      0.52      0.00
    0  -16   10     -2.36      0.00
    0  -16    9     -1.36      0.00
    0  -16    8     -0.73      0.00
    0  -16    7      1.55      0.00
    0  -16    6      0.09      0.00
    0  -16    5      0.30      0.00
    0  -16    4      0.57      0.00
    0  -16    3      0.97      0.00
    0  -16    2      0.12      0.00
    0  -16    1     -0.59      0.00
    0   16    0     -0.26      0.00
    0   16    6     -0.75      0.00
    0   16    7     -1.48      0.00
    0   16    8     -0.68      0.00
    0   16    9      1.27      0.00
    0   16   10     -1.79      0.00
    0   16   11     -5.98      0.00
    0   16   12     -4.09      0.00
    0   16   13     -2.45      0.00
    0   16   14     -0.53      0.00
    0   16   15      0.03      0.00
    0   16   16     -0.19      0.00
    0  -17   15      0.46      0.00
    0  -17   14      0.06      0.00
    0  -17   13      0.18      0.00
    0  -17   12     -2.63      0.00
    0  -17   11      0.51      0.00
    0  -17   10      1.33      0.00
    0  -17    9      1.68      0.00
    0  -17    8      0.10      0.00
    0  -17    7      0.33      0.00
    0  -17    6     -0.80      0.00
    0  -17    5     -0.05      0.00
    0  -17    4     -0.57      0.00
    0  -17    3     -1.74      0.00
    0  -17    2      0.04      0.00
    0  -17    1     -0.58      0.00
    0   17    7      0.55      0.00
    0   17    8      1.89      0.00
    0   17    9     -1.20      0.00
    0   17   11      1.02      0.00
    0   17   12     -3.46      0.00
    0   17   13      0.69      0.00
    0  -18   14     -1.13      0.00
    0  -18   13     -0.22      0.00
    0  -18   10     -1.38      0.00
    0  -18    9      0.29      0.00
    0  -18    8     -0.28      0.00
    0  -18    7     -0.36      0.00
    0  -18    6     -1.01      0.00
    0  -18    5     -0.24      0.00
    0  -18    4     -0.31      0.00
    0  -18    3     -0.50      0.00
    0  -18    2      0.08      0.00
    0  -18    1      1.25      0.00
    0   18   11     -0.26      0.00
    0   18   12      1.28      0.00
    0   18   13      0.87      0.00
    0  -19   11      0.86      0.00
    0  -19   10     -2.45      0.00
    0  -19    8      0.24      0.00
    0  -19    7      0.41      0.00
    0  -19    5      1.59      0.00
    0  -19    4      0.96      0.00
    0  -20    7      0.02      0.00
    0  -20    6     -0.24      0.00
    0  -20    5     -0.44      0.00
    1  -20    4     -0.31      0.00
    1  -19    8      0.77      0.00
    1  -19    9      0.07      0.00
    1  -18    1      0.00      0.00
    1  -18    2      0.65      0.00
    1  -18    3      0.11      0.00
    1  -18    4     -0.37      0.00
    1  -18    5     -0.55      0.00
    1  -18    7      0.62      0.00
    1  -18    8      0.68      0.00
    1  -18    9     -0.59      0.00
    1  -18   10     -2.57      0.00
    1  -18   11     -3.06      0.00
   -1   17   13     -0.11      0.00
   -1   17   12     -0.56      0.00
   -1   17   11      1.97      0.00
   -1   17    9     -0.59      0.00
   -1   17    8      1.09      0.00
   -1   17    7      1.63      0.00
   -1   17    6     -0.50      0.00
   -1   17    0      0.91      0.00
    1  -17    1      0.16      0.00
    1  -17    2      0.54      0.00
    1  -17    3     -1.08      0.00
    1  -17    4     -0.26      0.00
    1  -17    5      0.46      0.00
    1  -17    6      0.48      0.00
    1  -17    7     -1.36      0.00
    1  -17    8      0.01      0.00
    1  -17    9      1.34      0.00
    1  -17   10      3.09      0.00
    1  -17   11     -0.40      0.00
    1  -17   12     -1.08      0.00
    1  -17   13     -0.86      0.00
    1  -17   14      0.88      0.00
    1  -17   15      0.32      0.00
   -1   16   15     -0.91      0.00
   -1   16   14     -0.38      0.00
   -1   16   13     -1.11      0.00
   -1   16   12     -3.13      0.00
   -1   16   11    -10.69      0.00
   -1   16   10     -0.97      0.00
   -1   16    9      0.83      0.00
   -1   16    8     -0.97      0.00
   -1   16    7      1.76      0.00
   -1   16    6     -1.57      0.00
   -1   16    5     -0.46      0.00
   -1   16    4     -0.30      0.00
   -1   16    1      1.23      0.00
   -1   16    0      0.19      0.00
    1  -16    1     -0.24      0.00
    1  -16    2      0.38      0.00
    1  -16    3      0.88      0.00
    1  -16    4      0.88      0.00
    1  -16    5      0.19      0.00
    1  -16    6     -1.08      0.00
    1  -16    7      0.08      0.00
    1  -16    8      0.52      0.00
    1  -16    9     -1.84      0.00
    1  -16   12     -0.09      0.00
    1  -16   13      0.16      0.00
    1  -16   14      0.29      0.00
    1  -16   15     -0.27      0.00
    1  -16   16     -0.56      0.00
   -1   15   15      0.51      0.00
   -1   15   14     -1.11      0.00
   -1   15   13     -2.33      0.00
   -1   15   12     -2.13      0.00
   -1   15   11      1.51      0.00
   -1   15   10     -0.79      0.00
   -1   15    9      0.86      0.00
   -1   15    8      1.73      0.00
   -1   15    7     -0.67      0.00
   -1   15    6     -0.16      0.00
   -1   15    5      0.35      0.00
   -1   15    4     -0.61      0.00
   -1   15    3      0.20      0.00
   -1   15    2      0.35      0.00
   -1   15    1     -0.10      0.00
   -1   15    0     -0.02      0.00
    1  -15    1      0.50      0.00
    1  -15    2     -0.40      0.00
    1  -15    3      0.25      0.00
    1  -15    4     -0.50      0.00
    1  -15    5      0.20      0.00
    1  -15    6     -0.26      0.00
    1  -15    7     -0.80      0.00
    1  -15    8     -1.30      0.00
    1  -15    9     -0.61      0.00
    1  -15   10      0.10      0.00
    1  -15   11      0.32      0.00
    1  -15   12      1.13      0.00
    1  -15   13     -0.77      0.00
    1  -15   14      0.38      0.00
    1  -15   15     -0.16      0.00
    1  -15   16      0.22      0.00
    1  -15   17     -0.67      0.00
   -1   14   17     -0.83      0.00
   -1   14   16     -0.77      0.00
   -1   14   15     -1.67      0.00
   -1   14   14      0.88      0.00
   -1   14   13     -0.15      0.00
   -1   14   12      0.23      0.00
   -1   14   11     -0.72      0.00
   -1   14   10      0.00      0.00
   -1   14    9     -0.77      0.00
   -1   14    8     -0.50      0.00
   -1   14    7      1.37      0.00
   -1   14    6     -0.20      0.00
   -1   14    5      1.68      0.00
   -1   14    4     -1.11      0.00
   -1   14    3      0.30      0.00
   -1   14    2      0.63      0.00
   -1   14    1     -0.47      0.00
   -1   14    0     -1.16      0.00
    1  -14    1      0.28      0.00
    1  -14    2     -1.94      0.00
    1  -14    3      0.02      0.00
    1  -14    4      0.18      0.00
    1  -14    5     -0.72      0.00
    1  -14    6      0.12      0.00
    1  -14    7     -1.08      0.00
    1  -14    8     -0.44      0.00
    1  -14    9      1.15      0.00
    1  -14   10      0.82      0.00
    1  -14   11     -0.39      0.00
    1  -14   12     -0.87      0.00
    1  -14   13      0.83      0.00
    1  -14   14      0.18      0.00
    1  -14   15      2.06      0.00
    1  -14   16      0.36      0.00
    1  -14   17      2.59      0.00
   -1   13   18      0.32      0.00
   -1   13   17     -3.22      0.00
   -1   13   16      0.93      0.00
   -1   13   15     -0.17      0.00
   -1   13   14      0.74      0.00
   -1   13   13     -0.74      0.00
   -1   13   12     -0.80      0.00
   -1   13   11     -0.07      0.00
   -1   13   10     -0.74      0.00
   -1   13    9      0.69      0.00
   -1   13    8     -0.04      0.00
   -1   13    7      0.13      0.00
   -1   13    6     -0.60      0.00
   -1   13    5      0.13      0.00
   -1   13    4     -1.02      0.00
   -1   13    3      0.22      0.00
   -1   13    2      0.22      0.00
   -1   13    1      0.21      0.00
   -1   13    0     -0.42      0.00
    1  -13    1     -0.51      0.00
    1  -13    2      0.29      0.00
    1  -13    3      1.21      0.00
    1  -13    4      1.21      0.00
    1  -13    5      0.20      0.00
    1  -13    6      0.65      0.00
    1  -13    7      1.44      0.00
    1  -13    8      0.48      0.00
    1  -13    9      1.02      0.00
    1  -13   10     -0.34      0.00
    1  -13   11      0.23      0.00
    1  -13   12      0.18      0.00
    1  -13   13     -0.40      0.00
    1  -13   14      0.05      0.00
    1  -13   15      0.75      0.00
    1  -13   16     -0.27      0.00
    1  -13   17     -0.04      0.00
   -1   12   17      0.35      0.00
   -1   12   16      1.41      0.00
   -1   12   15     -0.68      0.00
   -1   12   14      0.42      0.00
   -1   12   13     -0.76      0.00
   -1   12   12      0.56      0.00
   -1   12   11      0.89      0.00
   -1   12   10     -0.20      0.00
   -1   12    9      0.65      0.00
   -1   12    8     -0.06      0.00
   -1   12    7      0.79      0.00
   -1   12    6      1.03      0.00
   -1   12    5     -0.83      0.00
   -1   12    4     -1.62      0.00
   -1   12    3      1.31      0.00
   -1   12    2      0.82      0.00
   -1   12    1     -0.48      0.00
   -1   12    0      1.72      0.00
    1  -12    1     -0.05      0.00
    1  -12    2     -0.07      0.00
    1  -12    3      1.78      0.00
    1  -12    4     -1.64      0.00
    1  -12    5     -0.13      0.00
    1  -12    6      1.47      0.00
    1  -12    7     -0.44      0.00
    1  -12    8     -0.12      0.00
    1  -12    9     -0.01      0.00
    1  -12   10      0.37      0.00
    1  -12   11      0.47      0.00
    1  -12   12     -0.93      0.00
    1  -12   13      0.77      0.00
    1  -12   14     -0.27      0.00
    1  -12   15      0.48      0.00
    1  -12   16     -0.31      0.00
    1  -12   17      0.57      0.00
    1  -12   18      0.02      0.00
   -1   11   21      0.41      0.00
   -1   11   20     -0.30      0.00
   -1   11   19      2.36      0.00
   -1   11   18      1.08      0.00
   -1   11   17     -1.17      0.00
   -1   11   16      0.06      0.00
   -1   11   15     -1.22      0.00
   -1   11   14      0.65      0.00
   -1   11   13      0.33      0.00
   -1   11   12      1.21      0.00
   -1   11   11     -0.21      0.00
   -1   11   10      0.24      0.00
   -1   11    9      0.64      0.00
   -1   11    8      1.94      0.00
   -1   11    7      0.62      0.00
   -1   11    6     -0.43      0.00
   -1   11    5     -2.73      0.00
   -1   11    4      2.06      0.00
   -1   11    3      1.07      0.00
   -1   11    2     -1.37      0.00
   -1   11    1     -0.45      0.00
   -1   11    0     -1.83      0.00
    1  -11    1     -2.42      0.00
    1  -11    2      0.61      0.00
    1  -11    3     -2.69      0.00
    1  -11    4      0.52      0.00
    1  -11    5     -0.67      0.00
    1  -11    6      0.88      0.00
    1  -11    7     -0.72      0.00
    1  -11    8      0.40      0.00
    1  -11    9     -1.13      0.00
    1  -11   10     -1.22      0.00
    1  -11   11      0.13      0.00
    1  -11   12      0.96      0.00
    1  -11   13      0.72      0.00
    1  -11   14      1.55      0.00
    1  -11   15      1.81      0.00
    1  -11   16      0.91      0.00
    1  -11   17     -0.10      0.00
    1  -11   18     -0.40      0.00
   -1   10   21     -2.00      0.00
   -1   10   20      0.67      0.00
   -1   10   19     -0.47      0.00
   -1   10   18      1.78      0.00
   -1   10   17      0.69      0.00
   -1   10   16      0.95      0.00
   -1   10   15      0.81      0.00
   -1   10   14      1.28      0.00
   -1   10   13      0.10      0.00
   -1   10   12     -0.80      0.00
   -1   10   11     -0.29      0.00
   -1   10   10      4.15      0.00
   -1   10    9      1.05      0.00
   -1   10    8     -1.83      0.00
   -1   10    7     -0.90      0.00
   -1   10    6      0.35      0.00
   -1   10    5      0.82      0.00
   -1   10    4     -1.00      0.00
   -1   10    3     -3.77      0.00
   -1   10    2     -6.18      0.00
   -1   10    1      2.64      0.00
   -1   10    0     -0.03      0.00
    1  -10    1     -2.81      0.00
    1  -10    2      1.44      0.00
    1  -10    3     -1.87      0.00
    1  -10    4      0.72      0.00
    1  -10    5      4.50      0.00
    1  -10    6     -0.59      0.00
    1  -10    7     -1.21      0.00
    1  -10    8      0.28      0.00
    1  -10    9      0.14      0.00
    1  -10   10     -0.40      0.00
    1  -10   11      1.40      0.00
    1  -10   12     -1.22      0.00
    1  -10   13      0.82      0.00
    1  -10   14     -1.65      0.00
    1  -10   15      1.08      0.00
    1  -10   16     -1.63      0.00
    1  -10   17     -0.58      0.00
    1  -10   18     -0.42      0.00
    1  -10   19     -0.22      0.00
   -1    9   22     -0.84      0.00
   -1    9   21     -2.02      0.00
   -1    9   20      0.10      0.00
   -1    9   19      0.17      0.00
   -1    9   18     -0.61      0.00
   -1    9   17     -0.16      0.00
   -1    9   16      0.13      0.00
   -1    9   15     -1.40      0.00
   -1    9   14      0.29      0.00
   -1    9   13     -0.03      0.00
   -1    9   12      0.34      0.00
   -1    9   11      2.04      0.00
   -1    9   10     -1.96      0.00
   -1    9    9     -0.94      0.00
   -1    9    8     -1.30      0.00
   -1    9    7      1.82      0.00
   -1    9    6     -1.96      0.00
   -1    9    5      1.78      0.00
   -1    9    4     -3.49      0.00
   -1    9    3     -1.91      0.00
   -1    9    2      4.70      0.00
   -1    9    1      3.63      0.00
   -1    9    0     -6.33      0.00
    1   -9    1      3.01      0.00
    1   -9    2     -1.62      0.00
    1   -9    3      4.58      0.00
    1   -9    4      3.81      0.00
    1   -9    5     -1.22      0.00
    1   -9    6     -3.92      0.00
    1   -9    7      2.22      0.00
    1   -9    8     -0.21      0.00
    1   -9    9      1.14      0.00
    1   -9   10     -0.43      0.00
    1   -9   11     -0.17      0.00
    1   -9   12     -0.23      0.00
    1   -9   13      1.01      0.00
    1   -9   14      0.31      0.00
    1   -9   15     -0.03      0.00
    1   -9   16     -0.95      0.00
    1   -9   17      0.09      0.00
    1   -9   18      2.06      0.00
    1   -9   19     -0.29      0.00
    1   -9   20      0.47      0.00
   -1    8   22      0.92      0.00
   -1    8   21      2.21      0.00
   -1    8   20      0.62      0.00
   -1    8   19     -0.77      0.00
   -1    8   18     -0.16      0.00
   -1    8   17      1.46      0.00
   -1    8   16     -0.97      0.00
   -1    8   15     -0.65      0.00
   -1    8   14     -0.73      0.00
   -1    8   13      1.84      0.00
   -1    8   12      0.07      0.00
   -1    8   11     -0.27      0.00
   -1    8   10      1.25      0.00
   -1    8    9     -0.02      0.00
   -1    8    8      4.95      0.00
   -1    8    7     -0.12      0.00
   -1    8    6     -4.31      0.00
   -1    8    5      2.10      0.00
   -1    8    4      5.62      0.00
   -1    8    3      7.11      0.00
   -1    8    2     -0.12      0.00
   -1    8    1      0.51      0.00
   -1    8    0     -7.08      0.00
    1   -8    1      8.73      0.00
    1   -8    2      1.55      0.00
    1   -8    3     -4.21      0.00
    1   -8    4     -3.50      0.00
    1   -8    5     -2.93      0.00
    1   -8    6     -1.37      0.00
    1   -8    7      1.28      0.00
    1   -8    8     -1.30      0.00
    1   -8    9     -3.95      0.00
    1   -8   10     -1.84      0.00
    1   -8   11      0.80      0.00
    1   -8   12     -0.79      0.00
    1   -8   13      0.96      0.00
    1   -8   14     -0.73      0.00
    1   -8   15      0.32      0.00
    1   -8   16      0.32      0.00
    1   -8   17      0.54      0.00
    1   -8   18     -0.02      0.00
    1   -8   19     -0.44      0.00
    1   -8   20      1.70      0.00
   -1    7   22      0.19      0.00
   -1    7   21     -0.62      0.00
   -1    7   20     -0.35      0.00
   -1    7   19      1.07      0.00
   -1    7   18      0.27      0.00
   -1    7   17     -0.25      0.00
   -1    7   16     -0.43      0.00
   -1    7   15      0.17      0.00
   -1    7   14      0.65      0.00
   -1    7   13     -0.69      0.00
   -1    7   12      0.31      0.00
   -1    7   11     -0.40      0.00
   -1    7   10      0.93      0.00
   -1    7    9      2.73      0.00
   -1    7    8      2.43      0.00
   -1    7    7      0.86      0.00
   -1    7    6      1.68      0.00
   -1    7    5     10.74      0.00
   -1    7    4     -3.19      0.00
   -1    7    3     -5.81      0.00
   -1    7    2     -3.62      0.00
   -1    7    1     -7.55      0.00
   -1    7    0      6.62      0.00
    1   -7    1     11.61      0.00
    1   -7    2    -15.32      0.00
    1   -7    3     -4.71      0.00
    1   -7    4      2.99      0.00
    1   -7    5      0.25      0.00
    1   -7    6      3.41      0.00
    1   -7    7     -0.39      0.00
    1   -7    8     -3.48      0.00
    1   -7    9      3.55      0.00
    1   -7   10      3.53      0.00
    1   -7   11     -0.82      0.00
    1   -7   12      0.61      0.00
    1   -7   13      0.20      0.00
    1   -7   14      0.03      0.00
    1   -7   15      1.16      0.00
    1   -7   16      0.12      0.00
    1   -7   17     -1.57      0.00
    1   -7   18     -0.14      0.00
    1   -7   19     -0.61      0.00
    1   -7   20      0.16      0.00
   -1    6   21      0.25      0.00
   -1    6   20      0.08      0.00
   -1    6   19     -1.03      0.00
   -1    6   18      0.07      0.00
   -1    6   17      1.85      0.00
   -1    6   16     -0.01      0.00
   -1    6   15      1.23      0.00
   -1    6   14      0.95      0.00
   -1    6   13      0.08      0.00
   -1    6   12      0.70      0.00
   -1    6   11      2.30      0.00
   -1    6   10     -0.75      0.00
   -1    6    9      7.95      0.00
   -1    6    8      4.26      0.00
   -1    6    7      2.27      0.00
   -1    6    6     -1.95      0.00
   -1    6    5     -2.24      0.00
   -1    6    4    -13.09      0.00
   -1    6    3      1.45      0.00
   -1    6    2     -5.06      0.00
   -1    6    1     -8.50      0.00
   -1    6    0     -7.90      0.00
    1   -6    1    -16.89      0.00
    1   -6    2     -7.34      0.00
    1   -6    3      5.05      0.00
    1   -6    4      5.30      0.00
    1   -6    5     -3.67      0.00
    1   -6    6      4.98      0.00
    1   -6    7      0.64      0.00
    1   -6    8      5.36      0.00
    1   -6    9      0.29      0.00
    1   -6   10      1.13      0.00
    1   -6   11     -3.67      0.00
    1   -6   12      1.04      0.00
    1   -6   13      1.14      0.00
    1   -6   14     -0.24      0.00
    1   -6   15      0.15      0.00
    1   -6   16     -0.43      0.00
    1   -6   17      0.17      0.00
    1   -6   18     -0.21      0.00
    1   -6   19     -0.36      0.00
    1   -6   20     -1.37      0.00
    1   -6   21     -0.31      0.00
   -1    5   22      0.02      0.00
   -1    5   21     -0.33      0.00
   -1    5   20     -1.70      0.00
   -1    5   19      0.52      0.00
   -1    5   18     -0.79      0.00
   -1    5   17      0.85      0.00
   -1    5   16      0.78      0.00
   -1    5   15      1.11      0.00
   -1    5   14     -0.74      0.00
   -1    5   13      0.36      0.00
   -1    5   12      1.85      0.00
   -1    5   11      0.65      0.00
   -1    5   10     -0.10      0.00
   -1    5    9      2.17      0.00
   -1    5    8     -4.41      0.00
   -1    5    7     -1.22      0.00
   -1    5    6     -1.56      0.00
   -1    5    5    -18.31      0.00
   -1    5    4    -13.46      0.00
   -1    5    3      4.91      0.00
   -1    5    2    -19.04      0.00
   -1    5    1    -11.74      0.00
   -1    5    0     -0.19      0.00
    1   -5    1     -1.32      0.00
    1   -5    2      8.53      0.00
    1   -5    3     13.24      0.00
    1   -5    4      4.88      0.00
    1   -5    5     -7.36      0.00
    1   -5    6     20.12      0.00
    1   -5    7     -3.11      0.00
    1   -5    8     10.29      0.00
    1   -5    9     -3.38      0.00
    1   -5   10     -0.66      0.00
    1   -5   11      0.87      0.00
    1   -5   12      3.05      0.00
    1   -5   13     -2.23      0.00
    1   -5   14     -0.25      0.00
    1   -5   15     -0.51      0.00
    1   -5   16     -0.44      0.00
    1   -5   17     -0.58      0.00
    1   -5   18      1.46      0.00
    1   -5   19     -0.12      0.00
    1   -5   20      0.72      0.00
    1   -5   21     -0.55      0.00
   -1    4   22      0.95      0.00
   -1    4   21      0.98      0.00
   -1    4   20      1.15      0.00
   -1    4   19     -0.15      0.00
   -1    4   18     -1.04      0.00
   -1    4   17      1.33      0.00
   -1    4   16     -0.78      0.00
   -1    4   15     -0.79      0.00
   -1    4   14      0.53      0.00
   -1    4   13     -0.44      0.00
   -1    4   12      3.86      0.00
   -1    4   11     -1.68      0.00
   -1    4   10     -1.25      0.00
   -1    4    9     -3.70      0.00
   -1    4    8     -1.69      0.00
   -1    4    7     -2.39      0.00
   -1    4    6     -3.90      0.00
   -1    4    5    -13.08      0.00
   -1    4    4      2.42      0.00
   -1    4    3     11.82      0.00
   -1    4    2     23.28      0.00
   -1    4    1     -3.46      0.00
   -1    4    0      4.35      0.00
    1   -4    1    -20.11      0.00
    1   -4    2     28.44      0.00
    1   -4    3     -7.91      0.00
    1   -4    4     11.17      0.00
    1   -4    5     -0.24      0.00
    1   -4    6     12.91      0.00
    1   -4    7     -9.86      0.00
    1   -4    8      2.19      0.00
    1   -4    9     -2.21      0.00
    1   -4   10     -1.51      0.00
    1   -4   11     -2.47      0.00
    1   -4   12      0.19      0.00
    1   -4   13     -1.72      0.00
    1   -4   14     -2.03      0.00
    1   -4   15      0.75      0.00
    1   -4   16     -1.54      0.00
    1   -4   17      0.56      0.00
    1   -4   18      0.33      0.00
    1   -4   19      0.60      0.00
    1   -4   20      0.07      0.00
    1   -4   21      0.05      0.00
   -1    3   22      0.77      0.00
   -1    3   21     -0.05      0.00
   -1    3   20      0.17      0.00
   -1    3   19      2.94      0.00
   -1    3   18      0.47      0.00
   -1    3   17     -2.35      0.00
   -1    3   16      0.22      0.00
   -1    3   15     -0.92      0.00
   -1    3   14      1.70      0.00
   -1    3   13     -0.21      0.00
   -1    3   12     -1.21      0.00
   -1    3   11     -4.29      0.00
   -1    3   10      3.20      0.00
   -1    3    9      1.69      0.00
   -1    3    8      0.15      0.00
   -1    3    7     -2.61      0.00
   -1    3    6      2.97      0.00
   -1    3    5     -6.27      0.00
   -1    3    4     27.75      0.00
   -1    3    3     -7.90      0.00
   -1    3    2    -26.41      0.00
   -1    3    1     21.63      0.00
   -1    3    0      6.37      0.00
    1   -3    1     -8.55      0.00
    1   -3    2     34.41      0.00
    1   -3    3      4.93      0.00
    1   -3    4     -2.94      0.00
    1   -3    5     -2.12      0.00
    1   -3    6    -12.45      0.00
    1   -3    7     -8.81      0.00
    1   -3    8     -0.76      0.00
    1   -3    9     -5.01      0.00
    1   -3   10     -1.31      0.00
    1   -3   11      4.23      0.00
    1   -3   12     -0.72      0.00
    1   -3   13      1.21      0.00
    1   -3   14      0.44      0.00
    1   -3   15      0.00      0.00
    1   -3   16     -0.70      0.00
    1   -3   17      1.78      0.00
    1   -3   18     -0.71      0.00
    1   -3   19      0.15      0.00
    1   -3   20      0.31      0.00
    1   -3   21     -0.25      0.00
    1   -3   22     -0.16      0.00
   -1    2   22      0.30      0.00
   -1    2   21      1.54      0.00
   -1    2   20      1.36      0.00
   -1    2   19     -0.94      0.00
   -1    2   18     -1.74      0.00
   -1    2   17     -1.20      0.00
   -1    2   16      0.37      0.00
   -1    2   15      0.66      0.00
   -1    2   14      0.71      0.00
   -1    2   13     -1.65      0.00
   -1    2   12     -1.32      0.00
   -1    2   11      1.71      0.00
   -1    2   10      6.08      0.00
   -1    2    9     -5.91      0.00
   -1    2    8     -2.78      0.00
   -1    2    7     14.76      0.00
   -1    2    6     22.31      0.00
   -1    2    5     25.57      0.00
   -1    2    4    -13.72      0.00
   -1    2    3    -23.53      0.00
   -1    2    2    -10.24      0.00
   -1    2    1     24.12      0.00
   -1    2    0     -5.77      0.00
    1   -2    1     37.59      0.00
    1   -2    2    -39.22      0.00
    1   -2    3     13.95      0.00
    1   -2    4     -2.37      0.00
    1   -2    5     16.41      0.00
    1   -2    6    -26.25      0.00
    1   -2    7     -5.70      0.00
    1   -2    8      4.22      0.00
    1   -2    9      6.28      0.00
    1   -2   10      0.24      0.00
    1   -2   11      0.62      0.00
    1   -2   12     -4.82      0.00
    1   -2   13      0.93      0.00
    1   -2   14      1.08      0.00
    1   -2   15      1.78      0.00
    1   -2   16     -1.41      0.00
    1   -2   17      0.74      0.00
    1   -2   18     -0.36      0.00
    1   -2   19      0.44      0.00
    1   -2   20     -2.75      0.00
    1   -2   21     -1.31      0.00
    1   -2   22     -0.69      0.00
   -1    1   21     -0.06      0.00
   -1    1   20      0.09      0.00
   -1    1   19     -0.15      0.00
   -1    1   18     -0.29      0.00
   -1    1   17      1.85      0.00
   -1    1   16      0.08      0.00
   -1    1   15     -1.56      0.00
   -1    1   14      0.68      0.00
   -1    1   13      1.98      0.00
   -1    1   12      2.74      0.00
   -1    1   11      1.73      0.00
   -1    1   10     -3.83      0.00
   -1    1    9     -2.74      0.00
   -1    1    8      6.66      0.00
   -1    1    7     12.99      0.00
   -1    1    6     -7.77      0.00
   -1    1    5     -6.41      0.00
   -1    1    4    -22.32      0.00
   -1    1    3    -16.42      0.00
   -1    1    2    -15.86      0.00
   -1    1    1     84.67      0.00
   -1    1    0   -131.88      0.00
    1   -1    1     47.59      0.00
    1   -1    2      5.57      0.00
    1   -1    3     18.06      0.00
    1   -1    4     15.55      0.00
    1   -1    5    -20.47      0.00
    1   -1    6     -7.04      0.00
    1   -1    7     16.46      0.00
    1   -1    8      8.90      0.00
    1   -1    9      0.58      0.00
    1   -1   10      2.77      0.00
    1   -1   11     -1.99      0.00
    1   -1   12      0.34      0.00
    1   -1   13      2.87      0.00
    1   -1   14     -0.90      0.00
    1   -1   15     -1.31      0.00
    1   -1   16      0.35      0.00
    1   -1   17      0.91      0.00
    1   -1   18     -2.44      0.00
    1   -1   19     -0.65      0.00
    1   -1   20      0.20      0.00
    1   -1   21     -0.99      0.00
    1   -1   22      0.50      0.00
   -1    0   21     -0.87      0.00
   -1    0   20     -1.45      0.00
   -1    0   19      1.57      0.00
   -1    0   18      0.61      0.00
   -1    0   17      0.06      0.00
   -1    0   16     -0.92      0.00
   -1    0   15      0.76      0.00
   -1    0   14      3.41      0.00
   -1    0   13      0.92      0.00
   -1    0   12     -2.55      0.00
   -1    0   11      1.09      0.00
   -1    0   10      0.64      0.00
   -1    0    9      5.81      0.00
   -1    0    8     -1.90      0.00
   -1    0    7    -19.96      0.00
   -1    0    6    -34.17      0.00
   -1    0    5     -1.62      0.00
   -1    0    4    -32.69      0.00
   -1    0    3     30.74      0.00
   -1    0    2    -18.19      0.00
   -1    0    1     52.19      0.00
    1    0    0    200.50      0.00
    1    0    1    115.29      0.00
    1    0    2     40.32      0.00
    1    0    3    -12.35      0.00
    1    0    4    -29.06      0.00
    1    0    5     12.34      0.00
    1    0    6     14.45      0.00
    1    0    7      8.82      0.00
    1    0    8     -0.07      0.00
    1    0    9     -8.37      0.00
    1    0   10      9.33      0.00
    1    0   11      1.26      0.00
    1    0   12     -3.02      0.00
    1    0   13     -4.92      0.00
    1    0   14     -0.93      0.00
    1    0   15     -0.49      0.00
    1    0   16      0.25      0.00
    1    0   17     -1.46      0.00
    1    0   18     -0.25      0.00
    1    0   19     -0.39      0.00
    1    0   20     -0.92      0.00
    1    0   21     -0.60      0.00
    1    0   22     -2.49      0.00
   -1   -1   21      0.85      0.00
   -1   -1   20      0.95      0.00
   -1   -1   19      1.44      0.00
   -1   -1   18     -0.14      0.00
   -1   -1   17      0.24      0.00
   -1   -1   16      0.89      0.00
   -1   -1   15      1.32      0.00
   -1   -1   14     -0.98      0.00
   -1   -1   13     -1.90      0.00
   -1   -1   12     -3.37      0.00
   -1   -1   11      2.31      0.00
   -1   -1   10     -2.24      0.00
   -1   -1    9     -2.22      0.00
   -1   -1    8     -5.11      0.00
   -1   -1    7    -11.61      0.00
   -1   -1    6      0.36      0.00
   -1   -1    5     13.01      0.00
   -1   -1    4    -23.37      0.00
   -1   -1    3    -13.61      0.00
   -1   -1    2     13.76      0.00
   -1   -1    1     29.70      0.00
    1    1    0    -11.27      0.00
    1    1    1    118.24      0.00
    1    1    2    -64.70      0.00
    1    1    3      9.31      0.00
    1    1    4     40.25      0.00
    1    1    5     -6.00      0.00
    1    1    6     24.05      0.00
    1    1    7    -26.69      0.00
    1    1    8    -12.35      0.00
    1    1    9      1.81      0.00
    1    1   10      0.24      0.00
    1    1   11    -11.80      0.00
    1    1   12     -0.99      0.00
    1    1   13     -0.61      0.00
    1    1   14      2.10      0.00
    1    1   15      0.57      0.00
    1    1   16     -0.53      0.00
    1    1   17      0.81      0.00
    1    1   18      1.47      0.00
    1    1   19      2.06      0.00
    1    1   20      0.65      0.00
    1    1   21     -0.34      0.00
    1    1   22      2.70      0.00
   -1   -2   21      0.70      0.00
   -1   -2   20     -0.33      0.00
   -1   -2   19     -0.21      0.00
   -1   -2   18     -0.24      0.00
   -1   -2   17      1.13      0.00
   -1   -2   16     -0.42      0.00
   -1   -2   15     -0.73      0.00
   -1   -2   14     -2.78      0.00
   -1   -2   13     -1.29      0.00
   -1   -2   12     -1.00      0.00
   -1   -2   11     -2.88      0.00
   -1   -2   10     -3.32      0.00
   -1   -2    9      3.43      0.00
   -1   -2    8      2.56      0.00
   -1   -2    7      1.81      0.00
   -1   -2    6      3.09      0.00
   -1   -2    5     -4.38      0.00
   -1   -2    4      9.16      0.00
   -1   -2    3     24.78      0.00
   -1   -2    2    -11.18      0.00
   -1   -2    1     30.83      0.00
    1    2    0      5.43      0.00
    1    2    1    -34.08      0.00
    1    2    2     15.11      0.00
    1    2    3      3.52      0.00
    1    2    4    -11.42      0.00
    1    2    5    -18.16      0.00
    1    2    6      1.71      0.00
    1    2    7     -2.99      0.00
    1    2    8      2.78      0.00
    1    2    9    -10.77      0.00
    1    2   10     -3.53      0.00
    1    2   11     -5.18      0.00
    1    2   12      5.10      0.00
    1    2   13      1.90      0.00
    1    2   14     -0.97      0.00
    1    2   15      1.27      0.00
    1    2   16      1.30      0.00
    1    2   17      0.20      0.00
    1    2   18     -0.15      0.00
    1    2   19     -0.77      0.00
    1    2   20     -0.05      0.00
    1    2   21      1.31      0.00
    1    2   22      0.44      0.00
    1    2   23     -2.70      0.00
   -1   -3   21     -1.28      0.00
   -1   -3   20     -1.36      0.00
   -1   -3   19     -0.01      0.00
   -1   -3   18      0.07      0.00
   -1   -3   17     -0.84      0.00
   -1   -3   16     -1.80      0.00
   -1   -3   15     -0.31      0.00
   -1   -3   14     -0.96      0.00
   -1   -3   13     -0.40      0.00
   -1   -3   12      3.31      0.00
   -1   -3   11      0.88      0.00
   -1   -3   10      3.43      0.00
   -1   -3    9      1.18      0.00
   -1   -3    8      2.49      0.00
   -1   -3    7     -1.99      0.00
   -1   -3    6     21.80      0.00
   -1   -3    5     -8.17      0.00
   -1   -3    4      5.61      0.00
   -1   -3    3     31.51      0.00
   -1   -3    2     -8.86      0.00
   -1   -3    1    -21.69      0.00
    1    3    0     -1.18      0.00
    1    3    1    -34.84      0.00
    1    3    2      6.63      0.00
    1    3    3    -20.38      0.00
    1    3    4    -26.50      0.00
    1    3    5    -24.04      0.00
    1    3    6     16.76      0.00
    1    3    7    -11.25      0.00
    1    3    8      7.06      0.00
    1    3    9     -0.35      0.00
    1    3   10      1.14      0.00
    1    3   11      8.32      0.00
    1    3   12      4.01      0.00
    1    3   13     -1.40      0.00
    1    3   14      2.62      0.00
    1    3   15      1.78      0.00
    1    3   16     -0.11      0.00
    1    3   17      0.57      0.00
    1    3   18      1.31      0.00
    1    3   19      2.34      0.00
    1    3   20      2.10      0.00
    1    3   21     -0.45      0.00
    1    3   22     -0.07      0.00
    1    3   23      1.15      0.00
   -1   -4   21      0.72      0.00
   -1   -4   20     -0.23      0.00
   -1   -4   19     -0.65      0.00
   -1   -4   18      0.30      0.00
   -1   -4   17     -0.26      0.00
   -1   -4   16      1.17      0.00
   -1   -4   15     -1.58      0.00
   -1   -4   14      0.56      0.00
   -1   -4   13      2.96      0.00
   -1   -4   12      3.21      0.00
   -1   -4   11     -0.82      0.00
   -1   -4   10      2.18      0.00
   -1   -4    9     -1.96      0.00
   -1   -4    8      7.58      0.00
   -1   -4    7     -2.32      0.00
   -1   -4    6     -5.35      0.00
   -1   -4    5    -17.22      0.00
   -1   -4    4     12.12      0.00
   -1   -4    3    -15.52      0.00
   -1   -4    2      5.36      0.00
   -1   -4    1    -17.21      0.00
    1    4    0     -3.33      0.00
    1    4    1      0.58      0.00
    1    4    2     15.60      0.00
    1    4    3     11.62      0.00
    1    4    4    -16.52      0.00
    1    4    5      1.51      0.00
    1    4    6     -4.10      0.00
    1    4    7     -2.14      0.00
    1    4    8      5.24      0.00
    1    4    9      6.37      0.00
    1    4   10      3.62      0.00
    1    4   11      4.21      0.00
    1    4   12      1.02      0.00
    1    4   13      0.62      0.00
    1    4   14      0.26      0.00
    1    4   15      0.17      0.00
    1    4   16     -0.10      0.00
    1    4   17      1.50      0.00
    1    4   18     -0.93      0.00
    1    4   19     -1.30      0.00
    1    4   20     -0.78      0.00
    1    4   21      0.14      0.00
    1    4   22     -0.55      0.00
    1    4   23     -0.49      0.00
   -1   -5   20      0.57      0.00
   -1   -5   19      1.56      0.00
   -1   -5   18     -0.31      0.00
   -1   -5   17      0.31      0.00
   -1   -5   16      0.45      0.00
   -1   -5   15      1.01      0.00
   -1   -5   14      0.82      0.00
   -1   -5   13     -0.13      0.00
   -1   -5   12      1.01      0.00
   -1   -5   11     -0.71      0.00
   -1   -5   10      5.34      0.00
   -1   -5    9     -3.40      0.00
   -1   -5    8     -4.41      0.00
   -1   -5    7     -8.12      0.00
   -1   -5    6     -1.38      0.00
   -1   -5    5     -8.52      0.00
   -1   -5    4      5.35      0.00
   -1   -5    3     -0.76      0.00
   -1   -5    2    -26.21      0.00
   -1   -5    1     45.73      0.00
    1    5    0    -20.05      0.00
    1    5    1     32.93      0.00
    1    5    2     -1.31      0.00
    1    5    3     -0.03      0.00
    1    5    4     -6.29      0.00
    1    5    5     15.49      0.00
    1    5    6     -9.46      0.00
    1    5    7      4.25      0.00
    1    5    8     -0.45      0.00
    1    5    9     -0.08      0.00
    1    5   10     -3.89      0.00
    1    5   11      2.47      0.00
    1    5   12     -2.10      0.00
    1    5   13      0.54      0.00
    1    5   14     -1.38      0.00
    1    5   15     -0.24      0.00
    1    5   16     -0.87      0.00
    1    5   17      0.62      0.00
    1    5   18     -0.01      0.00
    1    5   19     -1.33      0.00
    1    5   20     -0.57      0.00
    1    5   21     -0.07      0.00
    1    5   22      2.01      0.00
    1    5   23      0.24      0.00
   -1   -6   20      0.22      0.00
   -1   -6   19     -0.11      0.00
   -1   -6   18     -0.65      0.00
   -1   -6   17      1.78      0.00
   -1   -6   16     -0.24      0.00
   -1   -6   15      0.23      0.00
   -1   -6   14     -0.54      0.00
   -1   -6   13     -0.64      0.00
   -1   -6   12     -0.12      0.00
   -1   -6   11      0.44      0.00
   -1   -6   10     -1.76      0.00
   -1   -6    9     -6.50      0.00
   -1   -6    8     -2.87      0.00
   -1   -6    7      3.22      0.00
   -1   -6    6     -0.66      0.00
   -1   -6    5      6.90      0.00
   -1   -6    4    -16.22      0.00
   -1   -6    3     -1.22      0.00
   -1   -6    2      6.20      0.00
   -1   -6    1     26.33      0.00
    1    6    0     -4.83      0.00
    1    6    1      1.65      0.00
    1    6    2     -5.60      0.00
    1    6    3     19.27      0.00
    1    6    4      4.78      0.00
    1    6    5      6.62      0.00
    1    6    6    -16.79      0.00
    1    6    7     -0.57      0.00
    1    6    8      4.02      0.00
    1    6    9     -1.50      0.00
    1    6   10     -0.85      0.00
    1    6   11     -1.05      0.00
    1    6   12     -2.72      0.00
    1    6   13      2.09      0.00
    1    6   14     -0.68      0.00
    1    6   15     -0.93      0.00
    1    6   16      0.86      0.00
    1    6   17      0.29      0.00
    1    6   18      0.83      0.00
    1    6   19      0.24      0.00
    1    6   20      1.73      0.00
    1    6   21      0.17      0.00
    1    6   22      1.12      0.00
    1    6   23      0.76      0.00
   -1   -7   20      1.09      0.00
   -1   -7   19     -0.40      0.00
   -1   -7   18      1.20      0.00
   -1   -7   17      0.25      0.00
   -1   -7   16     -1.04      0.00
   -1   -7   15      0.60      0.00
   -1   -7   14      0.92      0.00
   -1   -7   13      2.18      0.00
   -1   -7   12     -1.04      0.00
   -1   -7   11     -0.73      0.00
   -1   -7   10     -3.22      0.00
   -1   -7    9     -0.98      0.00
   -1   -7    8      4.68      0.00
   -1   -7    7      4.68      0.00
   -1   -7    6     -5.28      0.00
   -1   -7    5      7.50      0.00
   -1   -7    4      3.90      0.00
   -1   -7    3     13.23      0.00
   -1   -7    2     11.40      0.00
   -1   -7    1      4.24      0.00
    1    7    0    -13.66      0.00
    1    7    1      9.21      0.00
    1    7    2     -3.12      0.00
    1    7    3    -10.55      0.00
    1    7    4      4.74      0.00
    1    7    5    -12.10      0.00
    1    7    6     -2.31      0.00
    1    7    7      5.14      0.00
    1    7    8     -1.49      0.00
    1    7    9     -3.49      0.00
    1    7   10      0.58      0.00
    1    7   11     -2.33      0.00
    1    7   12      1.12      0.00
    1    7   13     -0.38      0.00
    1    7   14     -0.42      0.00
    1    7   15     -0.29      0.00
    1    7   16      0.35      0.00
    1    7   17     -1.15      0.00
    1    7   18      1.06      0.00
    1    7   19     -0.69      0.00
    1    7   20     -0.26      0.00
    1    7   21     -0.33      0.00
   -1   -8   20      0.40      0.00
   -1   -8   19      1.12      0.00
   -1   -8   18     -0.06      0.00
   -1   -8   17      0.26      0.00
   -1   -8   16     -0.85      0.00
   -1   -8   15      1.11      0.00
   -1   -8   14      1.49      0.00
   -1   -8   13     -1.19      0.00
   -1   -8   12     -0.89      0.00
   -1   -8   11      0.24      0.00
   -1   -8   10      0.12      0.00
   -1   -8    9      1.20      0.00
   -1   -8    8     -0.25      0.00
   -1   -8    7     -2.35      0.00
   -1   -8    6      4.04      0.00
   -1   -8    5      3.65      0.00
   -1   -8    4      1.85      0.00
   -1   -8    3     -2.49      0.00
   -1   -8    2     -3.25      0.00
   -1   -8    1     -7.39      0.00
    1    8    0      2.51      0.00
    1    8    1      5.44      0.00
    1    8    2    -11.08      0.00
    1    8    3     -3.10      0.00
    1    8    4     -6.67      0.00
    1    8    5      2.10      0.00
    1    8    6      2.87      0.00
    1    8    7     -2.45      0.00
    1    8    8     -1.35      0.00
    1    8    9      1.94      0.00
    1    8   10      7.06      0.00
    1    8   11      0.48      0.00
    1    8   12      1.08      0.00
    1    8   13      0.26      0.00
    1    8   14     -0.22      0.00
    1    8   15     -0.14      0.00
    1    8   16     -0.20      0.00
    1    8   17     -0.01      0.00
    1    8   18     -1.29      0.00
    1    8   19     -0.64      0.00
    1    8   20     -0.13      0.00
    1    8   21     -0.93      0.00
   -1   -9   19     -0.10      0.00
   -1   -9   18      1.32      0.00
   -1   -9   17     -1.17      0.00
   -1   -9   16      1.31      0.00
   -1   -9   15      0.85      0.00
   -1   -9   14     -0.54      0.00
   -1   -9   13      0.80      0.00
   -1   -9   12      1.32      0.00
   -1   -9   11      0.18      0.00
   -1   -9   10     -1.22      0.00
   -1   -9    9     -0.05      0.00
   -1   -9    8      1.28      0.00
   -1   -9    7     -1.91      0.00
   -1   -9    6      2.02      0.00
   -1   -9    5     -0.76      0.00
   -1   -9    4     -2.92      0.00
   -1   -9    3      1.13      0.00
   -1   -9    2     -0.96      0.00
   -1   -9    1     -0.93      0.00
    1    9    0      0.41      0.00
    1    9    1     -2.29      0.00
    1    9    2     -7.09      0.00
    1    9    3      0.27      0.00
    1    9    4      3.97      0.00
    1    9    5     -3.48      0.00
    1    9    6     -0.08      0.00
    1    9    7     -1.48      0.00
    1    9    8      0.01      0.00
    1    9    9      4.85      0.00
    1    9   10      1.21      0.00
    1    9   11      0.37      0.00
    1    9   12     -0.21      0.00
    1    9   13      0.83      0.00
    1    9   14      1.73      0.00
    1    9   15      0.44      0.00
    1    9   16     -0.94      0.00
    1    9   17     -0.77      0.00
    1    9   18      0.87      0.00
    1    9   19     -1.07      0.00
    1    9   20     -0.53      0.00
   -1  -10   19     -4.26      0.00
   -1  -10   18     -0.54      0.00
   -1  -10   17     -0.23      0.00
   -1  -10   16     -1.49      0.00
   -1  -10   15     -0.91      0.00
   -1  -10   14      0.17      0.00
   -1  -10   13     -0.89      0.00
   -1  -10   12     -0.47      0.00
   -1  -10   11     -0.81      0.00
   -1  -10   10     -0.22      0.00
   -1  -10    9     -1.78      0.00
   -1  -10    8     -1.10      0.00
   -1  -10    7     -3.28      0.00
   -1  -10    6      2.68      0.00
   -1  -10    5     -1.98      0.00
   -1  -10    4      1.62      0.00
   -1  -10    3      1.12      0.00
   -1  -10    2      0.60      0.00
   -1  -10    1     -1.47      0.00
    1   10    0      3.99      0.00
    1   10    1     -1.81      0.00
    1   10    3      1.64      0.00
    1   10    4     -4.98      0.00
    1   10    5     -1.00      0.00
    1   10    6      2.26      0.00
    1   10    7     -0.55      0.00
    1   10    8      2.26      0.00
    1   10    9      0.74      0.00
    1   10   10     -1.21      0.00
    1   10   11     -0.23      0.00
    1   10   12      1.19      0.00
    1   10   13     -0.46      0.00
    1   10   14      0.22      0.00
    1   10   15     -0.63      0.00
    1   10   16      0.35      0.00
    1   10   17     -0.32      0.00
    1   10   18      0.67      0.00
    1   10   19      0.78      0.00
    1   10   20      0.19      0.00
   -1  -11   18     -2.36      0.00
   -1  -11   17      0.38      0.00
   -1  -11   16      0.49      0.00
   -1  -11   15      0.03      0.00
   -1  -11   14     -0.41      0.00
   -1  -11   13      0.03      0.00
   -1  -11   12      0.34      0.00
   -1  -11   11     -0.52      0.00
   -1  -11   10     -1.24      0.00
   -1  -11    9     -0.94      0.00
   -1  -11    8     -0.95      0.00
   -1  -11    7      1.38      0.00
   -1  -11    6      1.78      0.00
   -1  -11    5     -1.07      0.00
   -1  -11    4      1.47      0.00
   -1  -11    3      2.44      0.00
   -1  -11    2     -0.97      0.00
   -1  -11    1      1.13      0.00
    1   11    0      1.35      0.00
    1   11    1     -0.31      0.00
    1   11    3      1.07      0.00
    1   11    4     -2.83      0.00
    1   11    5     -0.65      0.00
    1   11    6      1.89      0.00
    1   11    7     -0.78      0.00
    1   11    8      0.47      0.00
    1   11    9     -1.34      0.00
    1   11   10      0.30      0.00
    1   11   11      1.27      0.00
    1   11   12     -0.50      0.00
    1   11   13     -0.92      0.00
    1   11   14      1.61      0.00
    1   11   15     -0.49      0.00
    1   11   16     -1.48      0.00
    1   11   17     -1.04      0.00
    1   11   18     -0.63      0.00
    1   11   19     -0.20      0.00
    1   11   20     -0.12      0.00
   -1  -12   18      0.26      0.00
   -1  -12   17     -1.24      0.00
   -1  -12   15      1.40      0.00
   -1  -12   14     -0.22      0.00
   -1  -12   13      0.10      0.00
   -1  -12   12     -0.54      0.00
   -1  -12   11      0.04      0.00
   -1  -12   10     -0.11      0.00
   -1  -12    9      0.09      0.00
   -1  -12    8      0.84      0.00
   -1  -12    7      0.31      0.00
   -1  -12    6     -0.14      0.00
   -1  -12    5     -0.75      0.00
   -1  -12    4      1.73      0.00
   -1  -12    3      0.86      0.00
   -1  -12    2     -0.90      0.00
   -1  -12    1      2.55      0.00
    1   12    0     -2.86      0.00
    1   12    1      0.34      0.00
    1   12    4     -2.24      0.00
    1   12    5      0.86      0.00
    1   12    6     -1.10      0.00
    1   12    7     -0.28      0.00
    1   12    8      0.55      0.00
    1   12    9     -0.74      0.00
    1   12   10     -1.20      0.00
    1   12   11      0.36      0.00
    1   12   12      0.48      0.00
    1   12   13      0.52      0.00
    1   12   14      0.16      0.00
    1   12   15     -0.42      0.00
    1   12   16      0.50      0.00
    1   12   17     -1.10      0.00
    1   12   18     -0.83      0.00
   -1  -13   17      1.98      0.00
   -1  -13   14      0.14      0.00
   -1  -13   13      1.53      0.00
   -1  -13   12     -0.66      0.00
   -1  -13   11     -0.13      0.00
   -1  -13   10      0.76      0.00
   -1  -13    9      0.69      0.00
   -1  -13    8     -0.59      0.00
   -1  -13    7     -0.29      0.00
   -1  -13    6     -0.62      0.00
   -1  -13    5      1.15      0.00
   -1  -13    4     -0.67      0.00
   -1  -13    3     -0.59      0.00
   -1  -13    2     -0.31      0.00
   -1  -13    1     -0.05      0.00
    1   13    0     -0.34      0.00
    1   13    1     -1.03      0.00
    1   13    5      1.26      0.00
    1   13    6     -0.72      0.00
    1   13    7     -0.24      0.00
    1   13    8     -0.19      0.00
    1   13    9     -0.53      0.00
    1   13   10      1.01      0.00
    1   13   11      0.92      0.00
    1   13   12     -0.30      0.00
    1   13   13      0.27      0.00
    1   13   14      0.04      0.00
    1   13   15     -0.16      0.00
    1   13   16      1.44      0.00
    1   13   17      1.88      0.00
    1   13   18      2.00      0.00
    1   13   19      0.79      0.00
   -1  -14   14      0.23      0.00
   -1  -14   13     -0.15      0.00
   -1  -14   12     -0.33      0.00
   -1  -14   11     -0.12      0.00
   -1  -14   10     -1.31      0.00
   -1  -14    9     -0.73      0.00
   -1  -14    8     -0.85      0.00
   -1  -14    7     -0.01      0.00
   -1  -14    6     -1.02      0.00
   -1  -14    5     -0.47      0.00
   -1  -14    4     -0.71      0.00
   -1  -14    3      0.67      0.00
   -1  -14    2      0.72      0.00
   -1  -14    1     -0.29      0.00
    1   14    0     -1.26      0.00
    1   14    6     -1.52      0.00
    1   14    7     -0.15      0.00
    1   14    8     -0.32      0.00
    1   14    9      0.24      0.00
    1   14   10     -0.79      0.00
    1   14   11     -0.28      0.00
    1   14   12     -0.47      0.00
    1   14   13     -0.95      0.00
    1   14   14     -0.07      0.00
    1   14   15     -0.07      0.00
    1   14   16      0.02      0.00
    1   14   19      0.99      0.00
    1   14   20     -0.66      0.00
   -1  -15   17      0.70      0.00
   -1  -15   16     -0.85      0.00
   -1  -15   14     -0.21      0.00
   -1  -15   13     -0.11      0.00
   -1  -15   12     -0.12      0.00
   -1  -15   11      1.00      0.00
   -1  -15   10      0.84      0.00
   -1  -15    9      0.17      0.00
   -1  -15    8      1.04      0.00
   -1  -15    7     -1.18      0.00
   -1  -15    6      0.28      0.00
   -1  -15    5     -0.01      0.00
   -1  -15    4     -0.71      0.00
   -1  -15    3      0.33      0.00
   -1  -15    2     -1.24      0.00
   -1  -15    1     -0.53      0.00
    1   15    0     -0.34      0.00
    1   15    7     -0.08      0.00
    1   15    8      0.25      0.00
    1   15    9     -0.49      0.00
    1   15   10      1.19      0.00
    1   15   11     -0.64      0.00
    1   15   12      2.35      0.00
    1   15   13      1.66      0.00
    1   15   14      0.58      0.00
    1   15   15      0.38      0.00
    1   15   16      1.06      0.00
    1   15   17     -0.46      0.00
    1   15   18     -0.90      0.00
    1   15   19      1.36      0.00
   -1  -16   11     -1.32      0.00
   -1  -16   10     -1.37      0.00
   -1  -16    9     -1.15      0.00
   -1  -16    8      0.09      0.00
   -1  -16    7     -0.03      0.00
   -1  -16    6      1.31      0.00
   -1  -16    5      1.20      0.00
   -1  -16    4      1.00      0.00
   -1  -16    3      1.24      0.00
   -1  -16    2     -0.91      0.00
   -1  -16    1     -0.13      0.00
    1   16    8     -0.87      0.00
    1   16    9      1.59      0.00
    1   16   10     -1.34      0.00
    1   16   11     -1.35      0.00
    1   16   12     -1.45      0.00
    1   16   13     -1.83      0.00
    1   16   14      1.22      0.00
    1   16   15     -0.67      0.00
    1   16   16     -0.19      0.00
    1   16   17      0.76      0.00
    1   16   18      0.53      0.00
   -1  -17   12     -1.62      0.00
   -1  -17   11     -1.45      0.00
   -1  -17    9     -0.77      0.00
   -1  -17    8      0.37      0.00
   -1  -17    7      0.16      0.00
   -1  -17    6      1.19      0.00
   -1  -17    5     -0.83      0.00
   -1  -17    4     -0.84      0.00
   -1  -17    3     -0.68      0.00
   -1  -17    2      0.09      0.00
   -1  -17    1     -0.94      0.00
    1   17    9     -1.20      0.00
    1   17   10      0.86      0.00
    1   17   11     -0.19      0.00
    1   17   12     -1.99      0.00
    1   17   13     -1.14      0.00
    1   17   14     -0.76      0.00
    1   17   15     -1.16      0.00
    1   17   16     -0.16      0.00
   -1  -18   13     -0.90      0.00
   -1  -18   12     -0.08      0.00
   -1  -18   11     -1.66      0.00
   -1  -18   10      1.26      0.00
   -1  -18    8      0.59      0.00
   -1  -18    7     -0.67      0.00
   -1  -18    6     -0.60      0.00
   -1  -18    5     -1.43      0.00
   -1  -18    4      0.71      0.00
   -1  -18    3     -1.68      0.00
   -1  -18    2     -0.70      0.00
    1   18   14     -0.02      0.00
   -1  -19   11      0.27      0.00
   -1  -19   10     -1.78      0.00
   -1  -19    9      0.47      0.00
   -1  -19    8      0.11      0.00
   -1  -19    7      0.51      0.00
   -1  -19    6      0.36      0.00
   -1  -20   10     -1.06      0.00
    2  -19    4      1.27      0.00
    2  -19   10      2.24      0.00
   -2   18    0     -1.02      0.00
    2  -18    1     -0.39      0.00
    2  -18    2     -0.21      0.00
    2  -18    3      0.59      0.00
    2  -18    4     -0.25      0.00
    2  -18    6     -0.32      0.00
    2  -18    7      2.27      0.00
    2  -18    8      1.12      0.00
    2  -18    9      0.22      0.00
    2  -18   10     -3.58      0.00
    2  -18   11     -3.25      0.00
    2  -18   12     -0.93      0.00
   -2   17   11      3.86      0.00
   -2   17    8      1.10      0.00
   -2   17    7      0.95      0.00
   -2   17    6      1.58      0.00
   -2   17    5     -0.33      0.00
   -2   17    4     -1.00      0.00
   -2   17    3     -1.37      0.00
   -2   17    1     -0.45      0.00
   -2   17    0     -0.14      0.00
    2  -17    1      0.85      0.00
    2  -17    2      1.07      0.00
    2  -17    3     -0.01      0.00
    2  -17    4     -0.24      0.00
    2  -17    5     -0.01      0.00
    2  -17    6      1.59      0.00
    2  -17    7      0.05      0.00
    2  -17    8     -0.73      0.00
    2  -17    9      0.60      0.00
    2  -17   10      2.93      0.00
    2  -17   11     -0.67      0.00
    2  -17   12     -0.93      0.00
    2  -17   13     -0.94      0.00
    2  -17   14      0.73      0.00
   -2   16   13      0.47      0.00
   -2   16   12     -1.60      0.00
   -2   16   11     -6.78      0.00
   -2   16   10     -1.27      0.00
   -2   16    9     -1.19      0.00
   -2   16    8      1.76      0.00
   -2   16    7      2.37      0.00
   -2   16    6      0.36      0.00
   -2   16    5     -1.43      0.00
   -2   16    4      0.57      0.00
   -2   16    3     -0.64      0.00
   -2   16    2     -0.74      0.00
   -2   16    1      0.24      0.00
   -2   16    0      0.07      0.00
    2  -16    1     -0.12      0.00
    2  -16    2      0.23      0.00
    2  -16    3      0.32      0.00
    2  -16    4      1.30      0.00
    2  -16    5      0.30      0.00
    2  -16    6     -0.61      0.00
    2  -16    7     -0.80      0.00
    2  -16    8      0.14      0.00
    2  -16    9      0.13      0.00
    2  -16   10     -1.34      0.00
    2  -16   11      0.28      0.00
    2  -16   12     -1.06      0.00
    2  -16   14     -1.04      0.00
    2  -16   15     -0.15      0.00
    2  -16   16     -0.58      0.00
   -2   15   15      1.25      0.00
   -2   15   14     -1.28      0.00
   -2   15   13     -0.90      0.00
   -2   15   12     -1.24      0.00
   -2   15   11     -0.11      0.00
   -2   15   10     -2.39      0.00
   -2   15    9      2.69      0.00
   -2   15    8      1.50      0.00
   -2   15    7     -1.56      0.00
   -2   15    6      0.94      0.00
   -2   15    5     -0.13      0.00
   -2   15    4      0.32      0.00
   -2   15    3      0.60      0.00
   -2   15    2      0.40      0.00
   -2   15    1     -0.18      0.00
   -2   15    0      1.12      0.00
    2  -15    1     -0.47      0.00
    2  -15    2      1.55      0.00
    2  -15    3     -0.11      0.00
    2  -15    4     -0.32      0.00
    2  -15    5      1.12      0.00
    2  -15    6     -0.62      0.00
    2  -15    7     -0.45      0.00
    2  -15    8     -0.33      0.00
    2  -15    9     -0.44      0.00
    2  -15   10     -1.01      0.00
    2  -15   11      0.09      0.00
    2  -15   12      0.53      0.00
    2  -15   14     -0.56      0.00
    2  -15   15     -0.04      0.00
    2  -15   16      0.98      0.00
    2  -15   17     -0.85      0.00
   -2   14   16     -1.45      0.00
   -2   14   15      0.03      0.00
   -2   14   14      0.38      0.00
   -2   14   13      0.50      0.00
   -2   14   12     -0.15      0.00
   -2   14   11      0.56      0.00
   -2   14   10      0.95      0.00
   -2   14    9     -1.41      0.00
   -2   14    8     -0.56      0.00
   -2   14    7      1.26      0.00
   -2   14    6     -0.22      0.00
   -2   14    5      0.98      0.00
   -2   14    4      1.02      0.00
   -2   14    3     -0.09      0.00
   -2   14    2      0.76      0.00
   -2   14    1      0.83      0.00
   -2   14    0     -0.62      0.00
    2  -14    1     -0.36      0.00
    2  -14    2     -0.90      0.00
    2  -14    3      0.31      0.00
    2  -14    4     -0.16      0.00
    2  -14    5     -0.49      0.00
    2  -14    6      0.79      0.00
    2  -14    7     -0.16      0.00
    2  -14    8      0.33      0.00
    2  -14    9      0.11      0.00
    2  -14   10      1.84      0.00
    2  -14   11      0.67      0.00
    2  -14   12     -0.66      0.00
    2  -14   13      0.37      0.00
    2  -14   14      0.69      0.00
    2  -14   15      1.92      0.00
    2  -14   16      0.95      0.00
    2  -14   17      1.63      0.00
   -2   13   17     -0.37      0.00
   -2   13   16     -1.57      0.00
   -2   13   15     -0.48      0.00
   -2   13   14     -0.03      0.00
   -2   13   13      1.05      0.00
   -2   13   12     -1.35      0.00
   -2   13   11      0.03      0.00
   -2   13   10     -0.53      0.00
   -2   13    9     -0.81      0.00
   -2   13    8      0.98      0.00
   -2   13    7     -0.44      0.00
   -2   13    6     -1.25      0.00
   -2   13    5     -0.14      0.00
   -2   13    4     -0.06      0.00
   -2   13    3     -0.78      0.00
   -2   13    2     -0.73      0.00
   -2   13    1      0.39      0.00
   -2   13    0     -1.64      0.00
    2  -13    1      0.74      0.00
    2  -13    2      0.37      0.00
    2  -13    3     -0.41      0.00
    2  -13    4      2.02      0.00
    2  -13    5      0.86      0.00
    2  -13    6     -0.74      0.00
    2  -13    7      1.41      0.00
    2  -13    8      0.21      0.00
    2  -13    9      1.52      0.00
    2  -13   10      0.98      0.00
    2  -13   11      0.40      0.00
    2  -13   12      0.57      0.00
    2  -13   13      0.12      0.00
    2  -13   14      0.59      0.00
    2  -13   15     -0.23      0.00
    2  -13   16      0.24      0.00
    2  -13   17     -0.66      0.00
   -2   12   18      0.54      0.00
   -2   12   17      1.07      0.00
   -2   12   16     -1.38      0.00
   -2   12   15      1.28      0.00
   -2   12   14     -1.29      0.00
   -2   12   13     -0.22      0.00
   -2   12   12     -0.09      0.00
   -2   12   11      0.27      0.00
   -2   12   10      0.50      0.00
   -2   12    9      0.80      0.00
   -2   12    8     -0.46      0.00
   -2   12    7     -0.22      0.00
   -2   12    6      0.75      0.00
   -2   12    5      0.77      0.00
   -2   12    4     -1.72      0.00
   -2   12    3     -0.31      0.00
   -2   12    2      0.91      0.00
   -2   12    1     -0.17      0.00
   -2   12    0      1.92      0.00
    2  -12    1      0.38      0.00
    2  -12    2     -0.08      0.00
    2  -12    3      2.14      0.00
    2  -12    4     -0.79      0.00
    2  -12    5      0.08      0.00
    2  -12    6      0.03      0.00
    2  -12    7      0.04      0.00
    2  -12    8     -0.06      0.00
    2  -12    9      0.09      0.00
    2  -12   10      0.85      0.00
    2  -12   11      0.27      0.00
    2  -12   12     -0.81      0.00
    2  -12   13      0.29      0.00
    2  -12   14     -0.13      0.00
    2  -12   15      0.00      0.00
    2  -12   16     -0.23      0.00
    2  -12   17      0.19      0.00
    2  -12   18      0.37      0.00
   -2   11   20     -1.26      0.00
   -2   11   19      3.08      0.00
   -2   11   18     -0.59      0.00
   -2   11   17      0.28      0.00
   -2   11   16     -1.99      0.00
   -2   11   15      0.12      0.00
   -2   11   14     -1.07      0.00
   -2   11   13      0.19      0.00
   -2   11   12      0.59      0.00
   -2   11   11     -0.25      0.00
   -2   11   10     -0.71      0.00
   -2   11    9     -1.25      0.00
   -2   11    8      1.61      0.00
   -2   11    7      0.76      0.00
   -2   11    6      1.86      0.00
   -2   11    5     -1.30      0.00
   -2   11    4      0.86      0.00
   -2   11    3      1.72      0.00
   -2   11    2      3.38      0.00
   -2   11    1     -0.51      0.00
   -2   11    0     -1.56      0.00
    2  -11    1     -0.23      0.00
    2  -11    2     -1.41      0.00
    2  -11    3      1.01      0.00
    2  -11    4     -0.21      0.00
    2  -11    5     -3.55      0.00
    2  -11    6     -0.06      0.00
    2  -11    7     -0.57      0.00
    2  -11    8     -0.41      0.00
    2  -11    9     -1.27      0.00
    2  -11   10     -0.73      0.00
    2  -11   11     -0.60      0.00
    2  -11   12      1.41      0.00
    2  -11   13     -0.22      0.00
    2  -11   14      3.45      0.00
    2  -11   15      0.75      0.00
    2  -11   16      1.57      0.00
    2  -11   17     -0.15      0.00
    2  -11   18     -0.23      0.00
    2  -11   19      1.28      0.00
   -2   10   21     -0.43      0.00
   -2   10   20     -1.08      0.00
   -2   10   19     -1.28      0.00
   -2   10   18      1.84      0.00
   -2   10   17      2.02      0.00
   -2   10   16     -0.21      0.00
   -2   10   15      1.42      0.00
   -2   10   14      1.53      0.00
   -2   10   13      0.85      0.00
   -2   10   12     -0.41      0.00
   -2   10   11     -0.70      0.00
   -2   10   10      1.77      0.00
   -2   10    9      2.14      0.00
   -2   10    8      0.41      0.00
   -2   10    7     -0.71      0.00
   -2   10    6      0.78      0.00
   -2   10    5      1.10      0.00
   -2   10    4      1.12      0.00
   -2   10    3      1.87      0.00
   -2   10    2     -5.75      0.00
   -2   10    1     -3.00      0.00
   -2   10    0      1.46      0.00
    2  -10    1     -2.69      0.00
    2  -10    2      0.16      0.00
    2  -10    3     -0.60      0.00
    2  -10    4     -4.08      0.00
    2  -10    5      2.35      0.00
    2  -10    6     -0.37      0.00
    2  -10    7     -0.84      0.00
    2  -10    8     -0.29      0.00
    2  -10    9      0.27      0.00
    2  -10   10      0.37      0.00
    2  -10   11      0.53      0.00
    2  -10   12      0.97      0.00
    2  -10   13      0.73      0.00
    2  -10   14     -0.92      0.00
    2  -10   15     -0.24      0.00
    2  -10   16     -0.02      0.00
    2  -10   17     -0.18      0.00
    2  -10   18     -1.66      0.00
    2  -10   19      0.44      0.00
   -2    9   21     -3.54      0.00
   -2    9   20     -0.82      0.00
   -2    9   19      1.84      0.00
   -2    9   18     -0.65      0.00
   -2    9   17     -0.70      0.00
   -2    9   16      1.14      0.00
   -2    9   15      0.15      0.00
   -2    9   14      1.21      0.00
   -2    9   13     -0.53      0.00
   -2    9   12      0.80      0.00
   -2    9   11      1.07      0.00
   -2    9   10     -0.95      0.00
   -2    9    9      1.94      0.00
   -2    9    8     -3.79      0.00
   -2    9    7     -1.14      0.00
   -2    9    6      2.58      0.00
   -2    9    5     -0.50      0.00
   -2    9    4     -1.32      0.00
   -2    9    3     -4.15      0.00
   -2    9    2     -2.38      0.00
   -2    9    1     -0.67      0.00
   -2    9    0      3.79      0.00
    2   -9    1     -4.90      0.00
    2   -9    2     -1.64      0.00
    2   -9    3      1.43      0.00
    2   -9    4      1.57      0.00
    2   -9    5      1.32      0.00
    2   -9    6      1.71      0.00
    2   -9    7     -2.62      0.00
    2   -9    8      1.81      0.00
    2   -9    9      1.45      0.00
    2   -9   10      1.06      0.00
    2   -9   11      0.00      0.00
    2   -9   12      1.01      0.00
    2   -9   13     -1.28      0.00
    2   -9   14      1.72      0.00
    2   -9   15     -0.76      0.00
    2   -9   16      0.05      0.00
    2   -9   17     -0.75      0.00
    2   -9   18      0.39      0.00
    2   -9   19      2.19      0.00
    2   -9   20     -0.78      0.00
   -2    8   21      2.26      0.00
   -2    8   20      1.16      0.00
   -2    8   19     -0.08      0.00
   -2    8   18      1.09      0.00
   -2    8   17      0.86      0.00
   -2    8   16      1.10      0.00
   -2    8   15     -0.76      0.00
   -2    8   14     -1.01      0.00
   -2    8   13      1.90      0.00
   -2    8   12      0.95      0.00
   -2    8   11     -0.25      0.00
   -2    8   10      1.46      0.00
   -2    8    9     -2.23      0.00
   -2    8    8      2.66      0.00
   -2    8    7     -1.57      0.00
   -2    8    6     -2.05      0.00
   -2    8    5     -7.46      0.00
   -2    8    4      5.34      0.00
   -2    8    3     -2.09      0.00
   -2    8    2      3.61      0.00
   -2    8    1      4.65      0.00
   -2    8    0     -4.87      0.00
    2   -8    1     -2.58      0.00
    2   -8    2      9.93      0.00
    2   -8    3     -0.47      0.00
    2   -8    4      1.80      0.00
    2   -8    5     -0.05      0.00
    2   -8    6     -3.38      0.00
    2   -8    7      0.32      0.00
    2   -8    8      3.25      0.00
    2   -8    9     -3.39      0.00
    2   -8   10     -1.30      0.00
    2   -8   11     -0.51      0.00
    2   -8   12     -0.78      0.00
    2   -8   13      0.58      0.00
    2   -8   14      0.76      0.00
    2   -8   15      0.50      0.00
    2   -8   16     -0.36      0.00
    2   -8   17      0.80      0.00
    2   -8   18     -0.77      0.00
    2   -8   19     -0.45      0.00
    2   -8   20      0.80      0.00
   -2    7   21     -0.69      0.00
   -2    7   20      1.31      0.00
   -2    7   19     -0.43      0.00
   -2    7   18      0.72      0.00
   -2    7   17     -0.97      0.00
   -2    7   16      0.46      0.00
   -2    7   15     -0.37      0.00
   -2    7   14      0.88      0.00
   -2    7   13     -0.10      0.00
   -2    7   12     -0.48      0.00
   -2    7   11     -0.52      0.00
   -2    7   10      2.05      0.00
   -2    7    9     -1.31      0.00
   -2    7    8      1.25      0.00
   -2    7    7      0.35      0.00
   -2    7    6     -1.59      0.00
   -2    7    5     -0.08      0.00
   -2    7    4      5.94      0.00
   -2    7    3     -2.61      0.00
   -2    7    2      0.86      0.00
   -2    7    1     -2.29      0.00
   -2    7    0      4.99      0.00
    2   -7    1      9.50      0.00
    2   -7    2      5.49      0.00
    2   -7    3     -8.79      0.00
    2   -7    4     -4.40      0.00
    2   -7    5      3.09      0.00
    2   -7    6     -1.70      0.00
    2   -7    7      2.36      0.00
    2   -7    8     -4.03      0.00
    2   -7    9     -0.72      0.00
    2   -7   10     -0.98      0.00
    2   -7   11      1.66      0.00
    2   -7   12     -1.09      0.00
    2   -7   13     -0.06      0.00
    2   -7   14     -0.06      0.00
    2   -7   15      0.04      0.00
    2   -7   16     -0.17      0.00
    2   -7   17      0.00      0.00
    2   -7   18     -0.80      0.00
    2   -7   19      0.77      0.00
    2   -7   20      0.19      0.00
    2   -7   21      1.31      0.00
   -2    6   20     -0.09      0.00
   -2    6   19     -2.57      0.00
   -2    6   18      1.26      0.00
   -2    6   17      0.49      0.00
   -2    6   16      1.31      0.00
   -2    6   15      0.08      0.00
   -2    6   14     -0.21      0.00
   -2    6   13      0.10      0.00
   -2    6   12      0.62      0.00
   -2    6   11      1.51      0.00
   -2    6   10     -1.89      0.00
   -2    6    9      4.27      0.00
   -2    6    8      6.03      0.00
   -2    6    7      2.41      0.00
   -2    6    6     -1.75      0.00
   -2    6    5      1.83      0.00
   -2    6    4      1.63      0.00
   -2    6    3     -0.55      0.00
   -2    6    2      5.39      0.00
   -2    6    1      0.52      0.00
   -2    6    0    -13.73      0.00
    2   -6    1      0.79      0.00
    2   -6    2    -18.06      0.00
    2   -6    3     -4.50      0.00
    2   -6    4     -3.42      0.00
    2   -6    5      6.44      0.00
    2   -6    6     -9.58      0.00
    2   -6    7      6.25      0.00
    2   -6    8     -6.65      0.00
    2   -6    9      2.03      0.00
    2   -6   10      0.89      0.00
    2   -6   11      0.32      0.00
    2   -6   12     -1.53      0.00
    2   -6   13      2.62      0.00
    2   -6   14     -0.05      0.00
    2   -6   15     -0.02      0.00
    2   -6   16      0.47      0.00
    2   -6   17      0.71      0.00
    2   -6   18     -0.72      0.00
    2   -6   19      0.57      0.00
    2   -6   20     -0.82      0.00
    2   -6   21     -0.51      0.00
   -2    5   21      0.09      0.00
   -2    5   20     -0.64      0.00
   -2    5   19     -0.30      0.00
   -2    5   18      0.36      0.00
   -2    5   17      0.19      0.00
   -2    5   16      0.61      0.00
   -2    5   15     -0.18      0.00
   -2    5   14      1.01      0.00
   -2    5   13      1.91      0.00
   -2    5   12     -1.89      0.00
   -2    5   11      2.07      0.00
   -2    5   10      1.09      0.00
   -2    5    9      3.49      0.00
   -2    5    8      3.58      0.00
   -2    5    7     -0.72      0.00
   -2    5    6     -1.33      0.00
   -2    5    5      1.81      0.00
   -2    5    4     -5.62      0.00
   -2    5    3      2.03      0.00
   -2    5    2     -9.81      0.00
   -2    5    1    -11.10      0.00
   -2    5    0    -22.80      0.00
    2   -5    1      9.61      0.00
    2   -5    2    -23.01      0.00
    2   -5    3      6.96      0.00
    2   -5    4     -5.41      0.00
    2   -5    5      0.32      0.00
    2   -5    6     -4.43      0.00
    2   -5    7     11.75      0.00
    2   -5    8      1.70      0.00
    2   -5    9      4.68      0.00
    2   -5   10      2.05      0.00
    2   -5   11      2.88      0.00
    2   -5   12      1.40      0.00
    2   -5   13      0.90      0.00
    2   -5   14     -0.26      0.00
    2   -5   15     -2.11      0.00
    2   -5   16      0.50      0.00
    2   -5   17     -1.39      0.00
    2   -5   18      0.58      0.00
    2   -5   19      0.63      0.00
    2   -5   20      1.28      0.00
    2   -5   21      0.29      0.00
   -2    4   20      1.83      0.00
   -2    4   19     -0.55      0.00
   -2    4   18      0.83      0.00
   -2    4   17     -0.74      0.00
   -2    4   16     -0.40      0.00
   -2    4   15      0.71      0.00
   -2    4   14     -0.29      0.00
   -2    4   13      0.18      0.00
   -2    4   12      2.53      0.00
   -2    4   11      4.23      0.00
   -2    4   10     -1.51      0.00
   -2    4    9     -2.28      0.00
   -2    4    8     -1.66      0.00
   -2    4    7     -4.06      0.00
   -2    4    6      3.65      0.00
   -2    4    5      2.88      0.00
   -2    4    4    -18.02      0.00
   -2    4    3      4.82      0.00
   -2    4    2     11.54      0.00
   -2    4    1    -16.68      0.00
   -2    4    0     -9.63      0.00
    2   -4    1    -18.12      0.00
    2   -4    2    -13.80      0.00
    2   -4    3     18.44      0.00
    2   -4    4      8.27      0.00
    2   -4    5      3.76      0.00
    2   -4    6     14.28      0.00
    2   -4    7      3.04      0.00
    2   -4    8     -0.33      0.00
    2   -4    9      6.54      0.00
    2   -4   10      0.82      0.00
    2   -4   11     -3.11      0.00
    2   -4   12      2.04      0.00
    2   -4   13     -2.59      0.00
    2   -4   14     -1.51      0.00
    2   -4   15     -0.81      0.00
    2   -4   16     -0.75      0.00
    2   -4   17     -1.09      0.00
    2   -4   18      1.71      0.00
    2   -4   19      0.93      0.00
    2   -4   20     -0.10      0.00
    2   -4   21     -0.99      0.00
    2   -4   22     -1.37      0.00
   -2    3   20      0.28      0.00
   -2    3   19      1.61      0.00
   -2    3   18      0.76      0.00
   -2    3   17     -1.49      0.00
   -2    3   16     -0.82      0.00
   -2    3   15     -0.05      0.00
   -2    3   14     -0.15      0.00
   -2    3   13      2.14      0.00
   -2    3   12     -0.51      0.00
   -2    3   11     -0.95      0.00
   -2    3   10     -4.08      0.00
   -2    3    9     -0.69      0.00
   -2    3    8     -1.37      0.00
   -2    3    7     -1.81      0.00
   -2    3    6     -3.61      0.00
   -2    3    5    -18.85      0.00
   -2    3    4     -4.93      0.00
   -2    3    3      4.40      0.00
   -2    3    2     -1.63      0.00
   -2    3    1    -10.50      0.00
   -2    3    0     19.24      0.00
    2   -3    1     -0.20      0.00
    2   -3    2     39.94      0.00
    2   -3    3     29.84      0.00
    2   -3    4     12.87      0.00
    2   -3    5    -13.47      0.00
    2   -3    6     -0.97      0.00
    2   -3    7     -0.38      0.00
    2   -3    8     -1.73      0.00
    2   -3    9     -2.59      0.00
    2   -3   10     -2.51      0.00
    2   -3   11     -3.28      0.00
    2   -3   12      2.27      0.00
    2   -3   13     -1.30      0.00
    2   -3   14     -1.72      0.00
    2   -3   15     -2.40      0.00
    2   -3   16      2.05      0.00
    2   -3   17     -1.15      0.00
    2   -3   18      1.02      0.00
    2   -3   19     -2.38      0.00
    2   -3   20      0.69      0.00
    2   -3   21      0.86      0.00
    2   -3   22     -0.58      0.00
   -2    2   21      2.02      0.00
   -2    2   20      2.17      0.00
   -2    2   19     -0.50      0.00
   -2    2   18     -0.08      0.00
   -2    2   17     -0.96      0.00
   -2    2   16     -0.74      0.00
   -2    2   15      2.24      0.00
   -2    2   14     -0.04      0.00
   -2    2   13     -0.43      0.00
   -2    2   12     -3.42      0.00
   -2    2   11     -4.47      0.00
   -2    2   10      0.66      0.00
   -2    2    9      2.04      0.00
   -2    2    8     -4.01      0.00
   -2    2    7     -4.45      0.00
   -2    2    6     14.72      0.00
   -2    2    5     10.06      0.00
   -2    2    4     14.34      0.00
   -2    2    3    -12.43      0.00
   -2    2    2     -9.21      0.00
   -2    2    1     -5.54      0.00
   -2    2    0     69.31      0.00
    2   -2    1     19.62      0.00
    2   -2    2     21.20      0.00
    2   -2    3      3.00      0.00
    2   -2    4    -14.88      0.00
    2   -2    5     19.10      0.00
    2   -2    6      5.23      0.00
    2   -2    7    -21.67      0.00
    2   -2    8     -3.26      0.00
    2   -2    9     -2.70      0.00
    2   -2   10     -2.89      0.00
    2   -2   11      0.62      0.00
    2   -2   12     -4.36      0.00
    2   -2   13     -5.20      0.00
    2   -2   14      1.35      0.00
    2   -2   15      1.50      0.00
    2   -2   16      0.42      0.00
    2   -2   17     -0.51      0.00
    2   -2   18      0.75      0.00
    2   -2   19      0.09      0.00
    2   -2   20     -0.38      0.00
    2   -2   21     -1.33      0.00
    2   -2   22     -0.78      0.00
   -2    1   21     -0.89      0.00
   -2    1   20      1.84      0.00
   -2    1   19     -0.24      0.00
   -2    1   18     -0.24      0.00
   -2    1   17      0.29      0.00
   -2    1   16     -0.86      0.00
   -2    1   15      0.14      0.00
   -2    1   14     -1.71      0.00
   -2    1   13     -1.03      0.00
   -2    1   12      0.82      0.00
   -2    1   11     -0.16      0.00
   -2    1   10      2.47      0.00
   -2    1    9     -3.26      0.00
   -2    1    8      1.27      0.00
   -2    1    7     10.54      0.00
   -2    1    6     19.80      0.00
   -2    1    5     -5.23      0.00
   -2    1    4      9.55      0.00
   -2    1    3    -38.58      0.00
   -2    1    2     19.03      0.00
   -2    1    1     39.60      0.00
   -2    1    0     -2.64      0.00
    2   -1    1    -50.05      0.00
    2   -1    2     -9.62      0.00
    2   -1    3      0.65      0.00
    2   -1    4     24.14      0.00
    2   -1    5    -10.95      0.00
    2   -1    6    -16.62      0.00
    2   -1    7    -13.29      0.00
    2   -1    8      2.06      0.00
    2   -1    9     11.90      0.00
    2   -1   10     -1.85      0.00
    2   -1   11     -1.52      0.00
    2   -1   12     -0.88      0.00
    2   -1   13      2.27      0.00
    2   -1   14      3.53      0.00
    2   -1   15      0.98      0.00
    2   -1   16     -1.01      0.00
    2   -1   17     -0.18      0.00
    2   -1   18      0.10      0.00
    2   -1   19     -1.29      0.00
    2   -1   20      0.09      0.00
    2   -1   21     -1.95      0.00
    2   -1   22      0.71      0.00
    2   -1   23      1.04      0.00
   -2    0   21      0.03      0.00
   -2    0   20     -0.05      0.00
   -2    0   19      0.10      0.00
   -2    0   18      0.66      0.00
   -2    0   17     -0.46      0.00
   -2    0   16      0.68      0.00
   -2    0   15     -1.30      0.00
   -2    0   14      1.24      0.00
   -2    0   13      1.28      0.00
   -2    0   12      0.74      0.00
   -2    0   11     -1.08      0.00
   -2    0   10      5.82      0.00
   -2    0    9      1.78      0.00
   -2    0    8      3.85      0.00
   -2    0    7     -4.36      0.00
   -2    0    6    -11.05      0.00
   -2    0    5    -24.75      0.00
   -2    0    4      7.39      0.00
   -2    0    3     -6.48      0.00
   -2    0    2     22.26      0.00
   -2    0    1     17.48      0.00
    2    0    0     82.35      0.00
    2    0    1      2.00      0.00
    2    0    2     55.24      0.00
    2    0    3    -47.00      0.00
    2    0    4    -35.65      0.00
    2    0    5     14.81      0.00
    2    0    6    -20.56      0.00
    2    0    7     32.77      0.00
    2    0    8     13.55      0.00
    2    0    9      1.00      0.00
    2    0   10      0.26      0.00
    2    0   11      9.58      0.00
    2    0   12     -2.15      0.00
    2    0   13      2.34      0.00
    2    0   14     -1.20      0.00
    2    0   15     -1.62      0.00
    2    0   16      0.22      0.00
    2    0   17     -0.04      0.00
    2    0   18     -0.81      0.00
    2    0   19     -2.05      0.00
    2    0   20     -0.38      0.00
    2    0   21      0.62      0.00
    2    0   22     -2.27      0.00
    2    0   23     -0.99      0.00
   -2   -1   20      1.71      0.00
   -2   -1   19      0.60      0.00
   -2   -1   18      1.05      0.00
   -2   -1   17     -1.48      0.00
   -2   -1   16      0.09      0.00
   -2   -1   15      1.06      0.00
   -2   -1   14      0.01      0.00
   -2   -1   13     -0.95      0.00
   -2   -1   12     -1.19      0.00
   -2   -1   11      2.57      0.00
   -2   -1   10      2.72      0.00
   -2   -1    9     -1.66      0.00
   -2   -1    8      1.27      0.00
   -2   -1    7     -6.43      0.00
   -2   -1    6     -9.79      0.00
   -2   -1    5     -0.23      0.00
   -2   -1    4     -3.30      0.00
   -2   -1    3    -42.75      0.00
   -2   -1    2     -2.88      0.00
   -2   -1    1    -36.50      0.00
    2    1    0    -16.40      0.00
    2    1    1     77.77      0.00
    2    1    2    -27.69      0.00
    2    1    3     14.26      0.00
    2    1    4    -14.16      0.00
    2    1    5     36.35      0.00
    2    1    6     16.59      0.00
    2    1    7     12.43      0.00
    2    1    8    -21.54      0.00
    2    1    9      4.46      0.00
    2    1   10     -0.03      0.00
    2    1   11      6.44      0.00
    2    1   12     -4.82      0.00
    2    1   13     -0.07      0.00
    2    1   14     -0.32      0.00
    2    1   15      0.02      0.00
    2    1   16     -0.49      0.00
    2    1   17      0.48      0.00
    2    1   18      0.48      0.00
    2    1   19      0.95      0.00
    2    1   20      0.51      0.00
    2    1   21     -0.58      0.00
    2    1   22      2.43      0.00
    2    1   23      1.03      0.00
   -2   -2   20      0.74      0.00
   -2   -2   19      0.08      0.00
   -2   -2   18     -0.06      0.00
   -2   -2   17      2.31      0.00
   -2   -2   16      0.04      0.00
   -2   -2   15     -1.21      0.00
   -2   -2   14     -0.86      0.00
   -2   -2   13      0.04      0.00
   -2   -2   12     -0.64      0.00
   -2   -2   11     -1.46      0.00
   -2   -2   10     -3.61      0.00
   -2   -2    9      0.54      0.00
   -2   -2    8      0.82      0.00
   -2   -2    7     -0.31      0.00
   -2   -2    6    -18.60      0.00
   -2   -2    5     -0.72      0.00
   -2   -2    4     -1.49      0.00
   -2   -2    3     -3.95      0.00
   -2   -2    2      2.04      0.00
   -2   -2    1      6.57      0.00
    2    2    0    -10.39      0.00
    2    2    1     42.58      0.00
    2    2    2    -13.79      0.00
    2    2    3     -0.25      0.00
    2    2    4     12.63      0.00
    2    2    5     17.17      0.00
    2    2    6    -22.99      0.00
    2    2    7     16.40      0.00
    2    2    8    -15.94      0.00
    2    2    9     -3.76      0.00
    2    2   10     -0.22      0.00
    2    2   11     -5.57      0.00
    2    2   12     -2.45      0.00
    2    2   13      2.01      0.00
    2    2   14     -2.55      0.00
    2    2   15     -0.48      0.00
    2    2   16      2.74      0.00
    2    2   17     -0.32      0.00
    2    2   18     -0.13      0.00
    2    2   19     -0.35      0.00
    2    2   20      0.18      0.00
    2    2   21      1.19      0.00
    2    2   22     -0.25      0.00
    2    2   23     -1.24      0.00
   -2   -3   20     -1.14      0.00
   -2   -3   19     -0.50      0.00
   -2   -3   18     -0.03      0.00
   -2   -3   17     -0.59      0.00
   -2   -3   16     -1.40      0.00
   -2   -3   15      0.89      0.00
   -2   -3   14     -1.25      0.00
   -2   -3   13     -0.61      0.00
   -2   -3   12     -1.00      0.00
   -2   -3   11      1.36      0.00
   -2   -3   10     -1.44      0.00
   -2   -3    9      3.49      0.00
   -2   -3    8     -4.67      0.00
   -2   -3    7     -0.49      0.00
   -2   -3    6      5.87      0.00
   -2   -3    5     20.56      0.00
   -2   -3    4     -3.26      0.00
   -2   -3    3     22.90      0.00
   -2   -3    2      6.03      0.00
   -2   -3    1     -3.86      0.00
    2    3    0     13.73      0.00
    2    3    1    -15.93      0.00
    2    3    2     12.35      0.00
    2    3    3     -4.08      0.00
    2    3    4    -11.74      0.00
    2    3    5    -24.65      0.00
    2    3    6      0.57      0.00
    2    3    7     -5.77      0.00
    2    3    8     -3.83      0.00
    2    3    9     -2.34      0.00
    2    3   10     -0.19      0.00
    2    3   11     -1.08      0.00
    2    3   12      0.68      0.00
    2    3   13     -0.50      0.00
    2    3   14      2.33      0.00
    2    3   15     -0.12      0.00
    2    3   16      1.71      0.00
    2    3   17     -0.38      0.00
    2    3   18      1.93      0.00
    2    3   19      2.22      0.00
    2    3   20      2.71      0.00
    2    3   21     -1.34      0.00
    2    3   22     -0.26      0.00
    2    3   23      2.33      0.00
   -2   -4   20     -0.65      0.00
   -2   -4   19     -1.44      0.00
   -2   -4   18      0.24      0.00
   -2   -4   17     -0.12      0.00
   -2   -4   16      0.70      0.00
   -2   -4   15     -0.47      0.00
   -2   -4   14      0.16      0.00
   -2   -4   13      0.40      0.00
   -2   -4   12      1.60      0.00
   -2   -4   11      4.14      0.00
   -2   -4   10     -3.90      0.00
   -2   -4    9      1.94      0.00
   -2   -4    8      2.11      0.00
   -2   -4    7      6.28      0.00
   -2   -4    6      0.64      0.00
   -2   -4    5     -5.31      0.00
   -2   -4    4     -4.99      0.00
   -2   -4    3      0.19      0.00
   -2   -4    2     40.02      0.00
   -2   -4    1    -38.86      0.00
    2    4    0     30.14      0.00
    2    4    1    -24.73      0.00
    2    4    2    -10.97      0.00
    2    4    3     19.89      0.00
    2    4    4     -6.77      0.00
    2    4    5    -35.74      0.00
    2    4    6      1.18      0.00
    2    4    7     -5.35      0.00
    2    4    8      1.49      0.00
    2    4    9      6.13      0.00
    2    4   10      1.20      0.00
    2    4   11     -1.10      0.00
    2    4   12      7.14      0.00
    2    4   13      0.10      0.00
    2    4   14      1.08      0.00
    2    4   15      0.14      0.00
    2    4   16      1.04      0.00
    2    4   17      0.61      0.00
    2    4   18      1.51      0.00
    2    4   19     -1.13      0.00
    2    4   20     -3.02      0.00
    2    4   21      1.12      0.00
    2    4   22     -1.01      0.00
    2    4   23      0.37      0.00
   -2   -5   20      0.77      0.00
   -2   -5   19      1.67      0.00
   -2   -5   18      1.41      0.00
   -2   -5   17      0.12      0.00
   -2   -5   16     -0.11      0.00
   -2   -5   15     -0.16      0.00
   -2   -5   14     -0.34      0.00
   -2   -5   13      2.05      0.00
   -2   -5   12      2.12      0.00
   -2   -5   11     -1.03      0.00
   -2   -5   10      1.40      0.00
   -2   -5    9      5.15      0.00
   -2   -5    8     -0.59      0.00
   -2   -5    7     -4.03      0.00
   -2   -5    6     -2.57      0.00
   -2   -5    5    -15.51      0.00
   -2   -5    4     10.63      0.00
   -2   -5    3      0.30      0.00
   -2   -5    2     -4.31      0.00
   -2   -5    1     -9.09      0.00
    2    5    0     -5.56      0.00
    2    5    1      2.05      0.00
    2    5    2     25.54      0.00
    2    5    3    -13.60      0.00
    2    5    4     -3.81      0.00
    2    5    5     -1.05      0.00
    2    5    6     10.28      0.00
    2    5    7      4.72      0.00
    2    5    8      0.90      0.00
    2    5    9      1.83      0.00
    2    5   10     -1.88      0.00
    2    5   11      3.03      0.00
    2    5   12      3.94      0.00
    2    5   13     -0.22      0.00
    2    5   14      0.00      0.00
    2    5   15     -0.09      0.00
    2    5   16     -0.84      0.00
    2    5   17      1.98      0.00
    2    5   18     -1.30      0.00
    2    5   19     -0.87      0.00
    2    5   20     -0.31      0.00
    2    5   21      2.10      0.00
    2    5   22      1.68      0.00
    2    5   23      1.34      0.00
   -2   -6   20      1.27      0.00
   -2   -6   19      1.12      0.00
   -2   -6   18      0.47      0.00
   -2   -6   17     -1.06      0.00
   -2   -6   16      1.67      0.00
   -2   -6   15      1.49      0.00
   -2   -6   14      0.33      0.00
   -2   -6   13     -0.63      0.00
   -2   -6   12     -0.37      0.00
   -2   -6   11      0.80      0.00
   -2   -6   10      1.29      0.00
   -2   -6    9     -0.50      0.00
   -2   -6    8     -5.15      0.00
   -2   -6    7     -3.55      0.00
   -2   -6    6      4.49      0.00
   -2   -6    5     -4.60      0.00
   -2   -6    4     -0.62      0.00
   -2   -6    3    -20.16      0.00
   -2   -6    2     -9.67      0.00
   -2   -6    1     -3.00      0.00
    2    6    0     34.68      0.00
    2    6    1    -25.96      0.00
    2    6    3      9.23      0.00
    2    6    4      7.41      0.00
    2    6    5     18.09      0.00
    2    6    6      6.12      0.00
    2    6    7     -9.65      0.00
    2    6    8      4.98      0.00
    2    6    9      2.14      0.00
    2    6   10     -0.41      0.00
    2    6   11      1.99      0.00
    2    6   12     -2.39      0.00
    2    6   13     -0.32      0.00
    2    6   14      0.35      0.00
    2    6   15     -0.71      0.00
    2    6   16     -0.23      0.00
    2    6   17     -0.50      0.00
    2    6   18      0.19      0.00
    2    6   19      2.04      0.00
    2    6   20      1.12      0.00
    2    6   21      1.05      0.00
    2    6   22      0.26      0.00
    2    6   23      0.73      0.00
   -2   -7   20      1.81      0.00
   -2   -7   19      0.76      0.00
   -2   -7   18      1.79      0.00
   -2   -7   17      0.07      0.00
   -2   -7   16      1.91      0.00
   -2   -7   15      0.04      0.00
   -2   -7   14      1.11      0.00
   -2   -7   13      1.26      0.00
   -2   -7   12     -1.01      0.00
   -2   -7   11     -1.31      0.00
   -2   -7   10     -2.59      0.00
   -2   -7    9     -4.89      0.00
   -2   -7    8     -1.12      0.00
   -2   -7    7      2.05      0.00
   -2   -7    6      0.91      0.00
   -2   -7    5     -2.04      0.00
   -2   -7    4      3.42      0.00
   -2   -7    3     -1.75      0.00
   -2   -7    2     15.88      0.00
   -2   -7    1      7.02      0.00
    2    7    0      2.62      0.00
    2    7    1     -9.27      0.00
    2    7    3     -2.87      0.00
    2    7    4     16.69      0.00
    2    7    5     -1.12      0.00
    2    7    6     -5.38      0.00
    2    7    7     -2.67      0.00
    2    7    8      3.64      0.00
    2    7    9      2.09      0.00
    2    7   10     -5.12      0.00
    2    7   11     -1.87      0.00
    2    7   12     -1.28      0.00
    2    7   13     -0.36      0.00
    2    7   14      0.55      0.00
    2    7   15     -0.90      0.00
    2    7   16     -0.69      0.00
    2    7   17      0.77      0.00
    2    7   18      0.42      0.00
    2    7   19      0.02      0.00
    2    7   20     -0.76      0.00
    2    7   21     -0.89      0.00
    2    7   22      0.52      0.00
   -2   -8   19      0.45      0.00
   -2   -8   18     -1.22      0.00
   -2   -8   17      0.78      0.00
   -2   -8   16     -1.39      0.00
   -2   -8   15     -0.18      0.00
   -2   -8   14      0.72      0.00
   -2   -8   13      0.15      0.00
   -2   -8   12     -0.34      0.00
   -2   -8   11     -1.22      0.00
   -2   -8   10      0.53      0.00
   -2   -8    9     -0.30      0.00
   -2   -8    8     -1.55      0.00
   -2   -8    7      2.64      0.00
   -2   -8    6     -2.00      0.00
   -2   -8    5      0.86      0.00
   -2   -8    4      7.26      0.00
   -2   -8    3     -3.07      0.00
   -2   -8    2      2.49      0.00
   -2   -8    1      3.20      0.00
    2    8    0     -6.41      0.00
    2    8    1      9.72      0.00
    2    8    3     -1.70      0.00
    2    8    4    -11.18      0.00
    2    8    5      3.17      0.00
    2    8    6     -8.25      0.00
    2    8    7      2.74      0.00
    2    8    8     -0.76      0.00
    2    8    9     -3.61      0.00
    2    8   10      2.29      0.00
    2    8   11      2.43      0.00
    2    8   12     -1.11      0.00
    2    8   13      0.57      0.00
    2    8   14     -0.82      0.00
    2    8   15     -1.34      0.00
    2    8   16      0.62      0.00
    2    8   17     -0.06      0.00
    2    8   18     -0.97      0.00
    2    8   19     -0.50      0.00
    2    8   20     -0.88      0.00
    2    8   21     -0.73      0.00
    2    8   22     -0.93      0.00
   -2   -9   19      0.15      0.00
   -2   -9   18      0.12      0.00
   -2   -9   17     -0.65      0.00
   -2   -9   16      0.62      0.00
   -2   -9   15      0.75      0.00
   -2   -9   14     -0.06      0.00
   -2   -9   13      1.42      0.00
   -2   -9   12      0.13      0.00
   -2   -9   11      1.50      0.00
   -2   -9   10     -1.37      0.00
   -2   -9    9      0.68      0.00
   -2   -9    8      0.82      0.00
   -2   -9    7      1.99      0.00
   -2   -9    6     -1.66      0.00
   -2   -9    5      4.27      0.00
   -2   -9    4     -1.64      0.00
   -2   -9    3      2.51      0.00
   -2   -9    2     -1.58      0.00
   -2   -9    1      2.05      0.00
    2    9    0     -3.42      0.00
    2    9    1      4.50      0.00
    2    9    4     -0.45      0.00
    2    9    5     -2.63      0.00
    2    9    6     -3.56      0.00
    2    9    7      0.51      0.00
    2    9    8     -5.74      0.00
    2    9    9      2.03      0.00
    2    9   10      3.05      0.00
    2    9   11      1.21      0.00
    2    9   12     -1.53      0.00
    2    9   13      0.59      0.00
    2    9   14      0.55      0.00
    2    9   15      2.14      0.00
    2    9   16      0.29      0.00
    2    9   17      0.61      0.00
    2    9   18     -0.29      0.00
    2    9   19     -0.59      0.00
    2    9   20     -0.26      0.00
    2    9   21      0.05      0.00
   -2  -10   18      0.02      0.00
   -2  -10   17     -0.01      0.00
   -2  -10   16     -1.10      0.00
   -2  -10   15      0.13      0.00
   -2  -10   14      0.56      0.00
   -2  -10   13      0.04      0.00
   -2  -10   12     -0.88      0.00
   -2  -10   11      0.28      0.00
   -2  -10   10     -0.39      0.00
   -2  -10    9      0.69      0.00
   -2  -10    8     -1.41      0.00
   -2  -10    7     -0.33      0.00
   -2  -10    6     -2.02      0.00
   -2  -10    5      3.67      0.00
   -2  -10    4     -1.86      0.00
   -2  -10    3     -0.37      0.00
   -2  -10    2      2.41      0.00
   -2  -10    1     -3.76      0.00
    2   10    0      2.50      0.00
    2   10    1      0.36      0.00
    2   10    5     -1.83      0.00
    2   10    6     -0.21      0.00
    2   10    7      2.54      0.00
    2   10    8      0.23      0.00
    2   10    9      0.97      0.00
    2   10   10      0.67      0.00
    2   10   11     -2.49      0.00
    2   10   12      0.40      0.00
    2   10   13      0.23      0.00
    2   10   14      0.52      0.00
    2   10   15      1.04      0.00
    2   10   16     -0.66      0.00
    2   10   17     -0.37      0.00
    2   10   18      0.53      0.00
    2   10   19      2.00      0.00
    2   10   20      0.46      0.00
    2   10   21     -0.50      0.00
   -2  -11   18     -2.40      0.00
   -2  -11   17      1.00      0.00
   -2  -11   16      0.88      0.00
   -2  -11   15     -1.18      0.00
   -2  -11   14     -1.24      0.00
   -2  -11   13     -0.61      0.00
   -2  -11   12     -0.49      0.00
   -2  -11   11     -0.74      0.00
   -2  -11   10     -1.37      0.00
   -2  -11    9     -0.02      0.00
   -2  -11    8     -2.11      0.00
   -2  -11    7     -0.50      0.00
   -2  -11    6     -0.25      0.00
   -2  -11    5      0.55      0.00
   -2  -11    4     -0.84      0.00
   -2  -11    3     -0.14      0.00
   -2  -11    2      1.80      0.00
   -2  -11    1     -1.49      0.00
    2   11    0      3.69      0.00
    2   11    1     -0.13      0.00
    2   11    5     -1.80      0.00
    2   11    6      2.34      0.00
    2   11    7      0.77      0.00
    2   11    8     -0.80      0.00
    2   11    9     -0.43      0.00
    2   11   10      0.01      0.00
    2   11   11     -0.57      0.00
    2   11   12      0.66      0.00
    2   11   13     -0.76      0.00
    2   11   14     -0.01      0.00
    2   11   15     -0.16      0.00
    2   11   16     -1.17      0.00
    2   11   17      0.15      0.00
    2   11   18     -0.71      0.00
    2   11   19      0.28      0.00
    2   11   20      0.00      0.00
   -2  -12   17     -2.86      0.00
   -2  -12   15      0.29      0.00
   -2  -12   14     -0.26      0.00
   -2  -12   13     -1.27      0.00
   -2  -12   12     -0.11      0.00
   -2  -12   11      0.09      0.00
   -2  -12   10     -0.27      0.00
   -2  -12    9     -1.13      0.00
   -2  -12    8      0.14      0.00
   -2  -12    7      0.50      0.00
   -2  -12    6      1.03      0.00
   -2  -12    5     -2.17      0.00
   -2  -12    4      1.06      0.00
   -2  -12    3      1.04      0.00
   -2  -12    2      1.77      0.00
   -2  -12    1     -1.12      0.00
    2   12    0      0.80      0.00
    2   12    1     -0.38      0.00
    2   12    5     -1.33      0.00
    2   12    6      1.09      0.00
    2   12    7      0.33      0.00
    2   12    8     -0.33      0.00
    2   12    9     -0.15      0.00
    2   12   10     -0.91      0.00
    2   12   11      0.18      0.00
    2   12   12      0.69      0.00
    2   12   13     -0.28      0.00
    2   12   14     -0.01      0.00
    2   12   15      0.65      0.00
    2   12   16      0.22      0.00
    2   12   17     -1.04      0.00
    2   12   18     -0.86      0.00
    2   12   19     -0.52      0.00
   -2  -13   17      0.93      0.00
   -2  -13   14      1.60      0.00
   -2  -13   13      0.25      0.00
   -2  -13   12      0.57      0.00
   -2  -13   11     -1.33      0.00
   -2  -13   10      1.30      0.00
   -2  -13    9      0.35      0.00
   -2  -13    8      0.10      0.00
   -2  -13    7     -0.42      0.00
   -2  -13    6      0.19      0.00
   -2  -13    5      0.36      0.00
   -2  -13    4      0.66      0.00
   -2  -13    3     -0.87      0.00
   -2  -13    2     -0.42      0.00
   -2  -13    1     -0.57      0.00
    2   13    0      1.57      0.00
    2   13    6      0.01      0.00
    2   13    7     -0.85      0.00
    2   13    8     -0.42      0.00
    2   13    9     -0.07      0.00
    2   13   10     -0.28      0.00
    2   13   11      1.16      0.00
    2   13   12     -0.19      0.00
    2   13   13      0.28      0.00
    2   13   14     -0.30      0.00
    2   13   15      0.31      0.00
    2   13   16      0.94      0.00
    2   13   17      0.94      0.00
    2   13   18      1.50      0.00
   -2  -14   13      0.32      0.00
   -2  -14   12      1.10      0.00
   -2  -14   11     -1.20      0.00
   -2  -14   10     -0.63      0.00
   -2  -14    9      0.16      0.00
   -2  -14    8     -0.33      0.00
   -2  -14    7      1.19      0.00
   -2  -14    6     -0.13      0.00
   -2  -14    5      0.08      0.00
   -2  -14    4      0.76      0.00
   -2  -14    3     -1.08      0.00
   -2  -14    2      0.63      0.00
   -2  -14    1      1.61      0.00
    2   14    0     -1.84      0.00
    2   14    7     -0.94      0.00
    2   14    8     -1.02      0.00
    2   14    9      0.42      0.00
    2   14   10     -0.82      0.00
    2   14   11      0.76      0.00
    2   14   12     -1.25      0.00
    2   14   13     -0.05      0.00
    2   14   14      0.06      0.00
    2   14   15      0.78      0.00
    2   14   16     -0.95      0.00
    2   14   17      0.35      0.00
    2   14   18     -0.32      0.00
    2   14   20      0.03      0.00
   -2  -15   17      1.07      0.00
   -2  -15   16     -1.40      0.00
   -2  -15   15      0.08      0.00
   -2  -15   13     -0.46      0.00
   -2  -15   12     -0.96      0.00
   -2  -15   11      1.59      0.00
   -2  -15   10      0.69      0.00
   -2  -15    9      0.18      0.00
   -2  -15    8      0.60      0.00
   -2  -15    7      0.67      0.00
   -2  -15    6     -0.19      0.00
   -2  -15    5     -1.23      0.00
   -2  -15    4     -1.03      0.00
   -2  -15    3      0.07      0.00
   -2  -15    2      0.29      0.00
   -2  -15    1     -1.25      0.00
    2   15    0     -1.25      0.00
    2   15    8      0.18      0.00
    2   15    9     -0.88      0.00
    2   15   10      0.20      0.00
    2   15   11     -1.71      0.00
    2   15   12      2.60      0.00
    2   15   13      3.00      0.00
    2   15   14      0.92      0.00
    2   15   15      1.41      0.00
    2   15   16     -0.18      0.00
    2   15   17     -1.76      0.00
    2   15   19      0.05      0.00
   -2  -16   11     -1.00      0.00
   -2  -16   10     -1.06      0.00
   -2  -16    9      0.00      0.00
   -2  -16    8     -0.38      0.00
   -2  -16    7      0.22      0.00
   -2  -16    6     -0.41      0.00
   -2  -16    5      1.67      0.00
   -2  -16    4      1.32      0.00
   -2  -16    3      0.00      0.00
   -2  -16    2     -0.15      0.00
   -2  -16    1     -0.68      0.00
    2   16    9      0.82      0.00
    2   16   10      0.48      0.00
    2   16   11      0.65      0.00
    2   16   12     -0.47      0.00
    2   16   13      1.76      0.00
    2   16   14      0.65      0.00
    2   16   15      0.38      0.00
    2   16   16     -0.64      0.00
    2   16   17      1.36      0.00
   -2  -17    9     -1.52      0.00
   -2  -17    8     -1.06      0.00
   -2  -17    7     -0.50      0.00
   -2  -17    6      0.37      0.00
   -2  -17    5      0.35      0.00
   -2  -17    4     -0.82      0.00
   -2  -17    3      0.48      0.00
   -2  -17    2      0.85      0.00
   -2  -17    1     -1.58      0.00
    2   17   10      0.08      0.00
    2   17   11     -0.97      0.00
    2   17   12     -0.07      0.00
    2   17   13     -1.44      0.00
    2   17   14     -1.62      0.00
    2   17   15      0.41      0.00
    2   17   16     -0.47      0.00
   -2  -18   11     -0.13      0.00
   -2  -18   10      1.24      0.00
   -2  -18    8      0.51      0.00
   -2  -18    7     -0.27      0.00
   -2  -18    5      0.31      0.00
   -2  -18    4      0.39      0.00
   -2  -18    3     -1.76      0.00
   -2  -18    2     -0.07      0.00
   -2  -19   13     -0.30      0.00
   -2  -19   11     -0.05      0.00
   -2  -19    8      0.30      0.00
   -2  -19    7      1.34      0.00
   -2  -20   10     -0.45      0.00
   -2  -20    9     -1.16      0.00
   -2  -20    8      2.98      0.00
    3  -19    6      0.31      0.00
    3  -19    7     -1.61      0.00
    3  -19    8      0.39      0.00
    3  -19    9     -0.67      0.00
    3  -18    1     -1.11      0.00
    3  -18    2     -0.29      0.00
    3  -18    3     -0.06      0.00
    3  -18    4      0.14      0.00
    3  -18    8      1.23      0.00
    3  -18    9      0.73      0.00
    3  -18   10     -3.40      0.00
    3  -18   11     -1.71      0.00
    3  -18   12     -2.23      0.00
   -3   17    6      1.60      0.00
   -3   17    5      1.34      0.00
   -3   17    4     -0.17      0.00
   -3   17    3     -1.30      0.00
   -3   17    2      0.44      0.00
   -3   17    1     -0.02      0.00
   -3   17    0     -0.22      0.00
    3  -17    1      0.56      0.00
    3  -17    2      0.93      0.00
    3  -17    3      0.16      0.00
    3  -17    4      0.09      0.00
    3  -17    5     -0.39      0.00
    3  -17    6      0.67      0.00
    3  -17    7      0.90      0.00
    3  -17    9      0.05      0.00
    3  -17   11     -0.48      0.00
    3  -17   12     -0.53      0.00
    3  -17   13     -0.71      0.00
   -3   16   10      0.60      0.00
   -3   16    9     -1.71      0.00
   -3   16    8      1.93      0.00
   -3   16    7      1.73      0.00
   -3   16    6      1.84      0.00
   -3   16    5     -0.70      0.00
   -3   16    4     -0.49      0.00
   -3   16    3      0.82      0.00
   -3   16    2     -0.04      0.00
   -3   16    1      0.24      0.00
   -3   16    0     -0.73      0.00
    3  -16    1     -0.46      0.00
    3  -16    2     -1.13      0.00
    3  -16    3      1.02      0.00
    3  -16    4      0.32      0.00
    3  -16    5     -0.03      0.00
    3  -16    6     -0.24      0.00
    3  -16    7     -0.11      0.00
    3  -16    8     -0.36      0.00
    3  -16    9      0.31      0.00
    3  -16   10      0.81      0.00
   -3   15   13     -0.08      0.00
   -3   15   12      1.25      0.00
   -3   15   11     -1.00      0.00
   -3   15   10     -1.95      0.00
   -3   15    9      1.76      0.00
   -3   15    8      0.50      0.00
   -3   15    7     -0.38      0.00
   -3   15    6     -0.06      0.00
   -3   15    5     -0.06      0.00
   -3   15    4      0.35      0.00
   -3   15    3      1.65      0.00
   -3   15    2      0.42      0.00
   -3   15    1     -0.87      0.00
   -3   15    0     -0.35      0.00
    3  -15    1     -0.04      0.00
    3  -15    2      1.10      0.00
    3  -15    3     -0.32      0.00
    3  -15    4      0.21      0.00
    3  -15    5      1.03      0.00
    3  -15    6      0.30      0.00
    3  -15    7     -0.32      0.00
    3  -15    8      0.20      0.00
    3  -15    9      0.52      0.00
    3  -15   10     -0.39      0.00
    3  -15   11     -1.10      0.00
    3  -15   12      0.34      0.00
    3  -15   16      0.81      0.00
   -3   14   15      0.58      0.00
   -3   14   14      0.35      0.00
   -3   14   13     -0.55      0.00
   -3   14   12      0.68      0.00
   -3   14   11      0.58      0.00
   -3   14   10      0.51      0.00
   -3   14    9      0.07      0.00
   -3   14    8      0.28      0.00
   -3   14    7      0.40      0.00
   -3   14    6     -0.25      0.00
   -3   14    5      0.79      0.00
   -3   14    4      0.69      0.00
   -3   14    3      0.44      0.00
   -3   14    2      0.98      0.00
   -3   14    1      0.52      0.00
   -3   14    0      1.30      0.00
    3  -14    1     -0.26      0.00
    3  -14    2      0.28      0.00
    3  -14    3      2.11      0.00
    3  -14    4      0.37      0.00
    3  -14    5      0.18      0.00
    3  -14    6      1.80      0.00
    3  -14    7     -0.12      0.00
    3  -14    8      0.55      0.00
    3  -14    9      0.04      0.00
    3  -14   10      0.82      0.00
    3  -14   11     -0.36      0.00
    3  -14   12      0.75      0.00
    3  -14   13     -1.48      0.00
    3  -14   15      0.12      0.00
   -3   13   16     -0.10      0.00
   -3   13   15     -1.76      0.00
   -3   13   14      1.15      0.00
   -3   13   13     -0.05      0.00
   -3   13   12     -0.22      0.00
   -3   13   11      0.53      0.00
   -3   13   10      0.21      0.00
   -3   13    9     -0.79      0.00
   -3   13    8      0.57      0.00
   -3   13    7      0.21      0.00
   -3   13    6     -0.56      0.00
   -3   13    5     -0.59      0.00
   -3   13    4      0.35      0.00
   -3   13    3      0.26      0.00
   -3   13    2     -0.53      0.00
   -3   13    1     -0.29      0.00
   -3   13    0     -0.93      0.00
    3  -13    1      0.26      0.00
    3  -13    2      1.70      0.00
    3  -13    3     -0.60      0.00
    3  -13    4      2.21      0.00
    3  -13    5      0.03      0.00
    3  -13    6     -0.86      0.00
    3  -13    7      0.56      0.00
    3  -13    8     -0.45      0.00
    3  -13    9      0.75      0.00
    3  -13   10      1.16      0.00
    3  -13   11      1.81      0.00
    3  -13   12      1.02      0.00
    3  -13   13      0.15      0.00
    3  -13   14      0.32      0.00
    3  -13   15      0.31      0.00
    3  -13   16     -0.17      0.00
    3  -13   17     -1.39      0.00
   -3   12   18      1.61      0.00
   -3   12   17     -0.73      0.00
   -3   12   16      1.14      0.00
   -3   12   15     -2.01      0.00
   -3   12   14     -1.10      0.00
   -3   12   13      0.40      0.00
   -3   12   12      0.02      0.00
   -3   12   11     -0.74      0.00
   -3   12   10      0.79      0.00
   -3   12    9      0.96      0.00
   -3   12    8     -0.66      0.00
   -3   12    7      0.42      0.00
   -3   12    6     -0.41      0.00
   -3   12    5     -0.36      0.00
   -3   12    4      1.19      0.00
   -3   12    3     -2.10      0.00
   -3   12    2     -1.25      0.00
   -3   12    1     -1.49      0.00
   -3   12    0      0.98      0.00
    3  -12    1     -0.87      0.00
    3  -12    2      1.66      0.00
    3  -12    3     -0.68      0.00
    3  -12    4     -0.15      0.00
    3  -12    5      0.55      0.00
    3  -12    6     -0.36      0.00
    3  -12    7     -0.98      0.00
    3  -12    8     -0.35      0.00
    3  -12    9      0.15      0.00
    3  -12   10      1.00      0.00
    3  -12   11      0.52      0.00
    3  -12   12     -0.71      0.00
    3  -12   13     -0.09      0.00
    3  -12   14     -0.49      0.00
    3  -12   15      0.05      0.00
    3  -12   16     -0.29      0.00
    3  -12   17     -0.02      0.00
    3  -12   18      1.03      0.00
   -3   11   18      0.61      0.00
   -3   11   17     -2.18      0.00
   -3   11   16     -1.73      0.00
   -3   11   15     -0.34      0.00
   -3   11   14     -0.55      0.00
   -3   11   13     -0.83      0.00
   -3   11   12      0.20      0.00
   -3   11   11      0.26      0.00
   -3   11   10     -1.12      0.00
   -3   11    9     -2.30      0.00
   -3   11    8      0.41      0.00
   -3   11    7     -0.49      0.00
   -3   11    6      1.67      0.00
   -3   11    5      1.30      0.00
   -3   11    4      0.41      0.00
   -3   11    3     -0.84      0.00
   -3   11    2      2.62      0.00
   -3   11    1      2.33      0.00
   -3   11    0     -1.69      0.00
    3  -11    1      1.60      0.00
    3  -11    2     -1.64      0.00
    3  -11    3      1.17      0.00
    3  -11    4      2.33      0.00
    3  -11    5     -2.60      0.00
    3  -11    6     -1.61      0.00
    3  -11    7     -0.90      0.00
    3  -11    8      0.49      0.00
    3  -11    9     -0.22      0.00
    3  -11   10     -0.18      0.00
    3  -11   11     -0.33      0.00
    3  -11   12      0.35      0.00
    3  -11   13      0.38      0.00
    3  -11   14      2.60      0.00
    3  -11   15      1.97      0.00
    3  -11   16      0.67      0.00
    3  -11   17     -0.50      0.00
    3  -11   18      1.11      0.00
    3  -11   19      1.64      0.00
   -3   10   19     -3.19      0.00
   -3   10   18      2.38      0.00
   -3   10   17      1.14      0.00
   -3   10   16     -0.40      0.00
   -3   10   15     -0.45      0.00
   -3   10   14      1.11      0.00
   -3   10   13      1.51      0.00
   -3   10   12     -0.88      0.00
   -3   10   11     -0.41      0.00
   -3   10   10     -0.45      0.00
   -3   10    9      0.08      0.00
   -3   10    8      0.54      0.00
   -3   10    7      0.86      0.00
   -3   10    6     -1.25      0.00
   -3   10    5      3.45      0.00
   -3   10    4     -1.91      0.00
   -3   10    3      4.54      0.00
   -3   10    2      0.46      0.00
   -3   10    1     -1.08      0.00
   -3   10    0     -1.70      0.00
    3  -10    1      1.01      0.00
    3  -10    2      0.09      0.00
    3  -10    3      0.87      0.00
    3  -10    4     -1.14      0.00
    3  -10    5     -2.00      0.00
    3  -10    6     -2.30      0.00
    3  -10    7      1.55      0.00
    3  -10    8     -1.62      0.00
    3  -10    9      0.57      0.00
    3  -10   10     -1.07      0.00
    3  -10   11      0.23      0.00
    3  -10   12      0.25      0.00
    3  -10   13      2.07      0.00
    3  -10   14     -1.48      0.00
    3  -10   15     -0.13      0.00
    3  -10   16     -0.31      0.00
    3  -10   17      0.52      0.00
    3  -10   18     -0.67      0.00
    3  -10   19     -1.66      0.00
   -3    9   19      1.12      0.00
   -3    9   18     -0.59      0.00
   -3    9   17     -0.61      0.00
   -3    9   16      1.06      0.00
   -3    9   15      0.93      0.00
   -3    9   14      1.26      0.00
   -3    9   13      0.67      0.00
   -3    9   12      0.15      0.00
   -3    9   11      0.82      0.00
   -3    9   10     -0.64      0.00
   -3    9    9      2.97      0.00
   -3    9    8     -2.75      0.00
   -3    9    7      0.03      0.00
   -3    9    6     -0.55      0.00
   -3    9    5      3.53      0.00
   -3    9    4     -0.77      0.00
   -3    9    3      1.15      0.00
   -3    9    2     -3.32      0.00
   -3    9    1     -3.21      0.00
   -3    9    0      3.15      0.00
    3   -9    1      0.18      0.00
    3   -9    2     -4.10      0.00
    3   -9    3     -0.53      0.00
    3   -9    4     -2.62      0.00
    3   -9    5     -0.80      0.00
    3   -9    6      3.02      0.00
    3   -9    7     -1.15      0.00
    3   -9    8     -1.15      0.00
    3   -9    9      0.96      0.00
    3   -9   10      0.19      0.00
    3   -9   11      1.86      0.00
    3   -9   12      1.23      0.00
    3   -9   13     -0.64      0.00
    3   -9   14      0.03      0.00
    3   -9   15     -0.49      0.00
    3   -9   16      0.97      0.00
    3   -9   17     -1.03      0.00
    3   -9   18      0.19      0.00
    3   -9   19      0.67      0.00
    3   -9   20      0.89      0.00
   -3    8   20     -1.05      0.00
   -3    8   19      2.33      0.00
   -3    8   18      0.59      0.00
   -3    8   17      1.56      0.00
   -3    8   16      0.44      0.00
   -3    8   15      0.76      0.00
   -3    8   14     -1.24      0.00
   -3    8   13      1.13      0.00
   -3    8   12      1.20      0.00
   -3    8   11      1.20      0.00
   -3    8   10      0.23      0.00
   -3    8    9      0.16      0.00
   -3    8    8      2.14      0.00
   -3    8    7     -2.22      0.00
   -3    8    6     -1.34      0.00
   -3    8    5     -2.38      0.00
   -3    8    4     -3.06      0.00
   -3    8    3     -0.56      0.00
   -3    8    2     -0.78      0.00
   -3    8    1     -0.55      0.00
   -3    8    0      0.48      0.00
    3   -8    1     -3.58      0.00
    3   -8    2     -3.05      0.00
    3   -8    3      3.71      0.00
    3   -8    4      2.85      0.00
    3   -8    5     -0.03      0.00
    3   -8    6      1.61      0.00
    3   -8    7     -2.48      0.00
    3   -8    8      1.98      0.00
    3   -8    9      2.34      0.00
    3   -8   10      1.34      0.00
    3   -8   11     -1.34      0.00
    3   -8   12      0.41      0.00
    3   -8   13     -0.33      0.00
    3   -8   14      0.74      0.00
    3   -8   15      1.03      0.00
    3   -8   16      0.66      0.00
    3   -8   17     -1.12      0.00
    3   -8   18     -0.35      0.00
    3   -8   19     -1.20      0.00
    3   -8   20      1.84      0.00
    3   -8   21     -0.19      0.00
   -3    7   20      0.13      0.00
   -3    7   19      0.97      0.00
   -3    7   18     -0.78      0.00
   -3    7   17     -0.68      0.00
   -3    7   16     -0.64      0.00
   -3    7   15      0.19      0.00
   -3    7   14      0.78      0.00
   -3    7   13      0.63      0.00
   -3    7   12     -0.22      0.00
   -3    7   11     -0.83      0.00
   -3    7   10      2.65      0.00
   -3    7    9      0.71      0.00
   -3    7    8     -1.49      0.00
   -3    7    7     -0.71      0.00
   -3    7    6     -3.12      0.00
   -3    7    5     -4.75      0.00
   -3    7    4      0.03      0.00
   -3    7    3      1.27      0.00
   -3    7    2     -6.14      0.00
   -3    7    1     -0.02      0.00
   -3    7    0      5.13      0.00
    3   -7    1     -4.21      0.00
    3   -7    2     13.99      0.00
    3   -7    3     -3.01      0.00
    3   -7    4     -0.67      0.00
    3   -7    5     -1.77      0.00
    3   -7    6      4.61      0.00
    3   -7    7     -3.15      0.00
    3   -7    8      3.87      0.00
    3   -7    9     -2.13      0.00
    3   -7   10     -1.29      0.00
    3   -7   11     -0.08      0.00
    3   -7   12     -0.05      0.00
    3   -7   13     -2.20      0.00
    3   -7   14      0.90      0.00
    3   -7   15      0.43      0.00
    3   -7   16     -0.05      0.00
    3   -7   17     -0.74      0.00
    3   -7   18      0.88      0.00
    3   -7   19      0.94      0.00
    3   -7   20      0.86      0.00
    3   -7   21      2.37      0.00
   -3    6   19     -0.58      0.00
   -3    6   18     -1.39      0.00
   -3    6   17      1.43      0.00
   -3    6   16      1.30      0.00
   -3    6   15      0.78      0.00
   -3    6   14     -1.69      0.00
   -3    6   13     -0.93      0.00
   -3    6   12      1.83      0.00
   -3    6   11     -0.58      0.00
   -3    6   10      0.45      0.00
   -3    6    9     -0.17      0.00
   -3    6    8     -1.07      0.00
   -3    6    7      2.58      0.00
   -3    6    6     -1.70      0.00
   -3    6    5     -5.32      0.00
   -3    6    4      2.49      0.00
   -3    6    3      3.60      0.00
   -3    6    2      6.39      0.00
   -3    6    1      5.77      0.00
   -3    6    0      2.12      0.00
    3   -6    1     -6.59      0.00
    3   -6    2      5.62      0.00
    3   -6    3     -6.07      0.00
    3   -6    4     -1.34      0.00
    3   -6    5      1.35      0.00
    3   -6    6      1.23      0.00
    3   -6    7     -6.38      0.00
    3   -6    8      0.31      0.00
    3   -6    9     -4.29      0.00
    3   -6   10     -1.08      0.00
    3   -6   11     -0.35      0.00
    3   -6   12      0.24      0.00
    3   -6   13      0.56      0.00
    3   -6   14      0.93      0.00
    3   -6   15      0.15      0.00
    3   -6   16      0.07      0.00
    3   -6   17      1.22      0.00
    3   -6   18      0.64      0.00
    3   -6   19      0.58      0.00
    3   -6   20     -0.30      0.00
    3   -6   21     -0.33      0.00
   -3    5   19      0.47      0.00
   -3    5   18     -0.64      0.00
   -3    5   17      1.65      0.00
   -3    5   16     -0.51      0.00
   -3    5   15     -0.26      0.00
   -3    5   14      1.44      0.00
   -3    5   13      0.89      0.00
   -3    5   12     -0.30      0.00
   -3    5   11     -1.52      0.00
   -3    5   10     -0.26      0.00
   -3    5    9     -1.12      0.00
   -3    5    8      6.69      0.00
   -3    5    7      2.25      0.00
   -3    5    6     -5.20      0.00
   -3    5    5      1.49      0.00
   -3    5    4     11.75      0.00
   -3    5    3      5.08      0.00
   -3    5    2      5.34      0.00
   -3    5    1     -2.47      0.00
   -3    5    0    -12.70      0.00
    3   -5    1      1.18      0.00
    3   -5    2      5.80      0.00
    3   -5    3    -19.83      0.00
    3   -5    4     -3.48      0.00
    3   -5    5     -8.77      0.00
    3   -5    6     -7.77      0.00
    3   -5    7      1.26      0.00
    3   -5    8      2.01      0.00
    3   -5    9     -2.06      0.00
    3   -5   10      1.96      0.00
    3   -5   11      4.17      0.00
    3   -5   12     -0.03      0.00
    3   -5   13      2.00      0.00
    3   -5   14     -1.18      0.00
    3   -5   15     -0.96      0.00
    3   -5   16     -0.82      0.00
    3   -5   17      0.75      0.00
    3   -5   18     -1.53      0.00
    3   -5   19      0.99      0.00
    3   -5   20      0.88      0.00
    3   -5   21      0.65      0.00
    3   -5   22      1.44      0.00
   -3    4   20      0.48      0.00
   -3    4   19      0.78      0.00
   -3    4   18      0.80      0.00
   -3    4   17     -0.35      0.00
   -3    4   16     -0.50      0.00
   -3    4   15      0.05      0.00
   -3    4   14      0.51      0.00
   -3    4   13      0.25      0.00
   -3    4   12      1.11      0.00
   -3    4   11     -0.64      0.00
   -3    4   10      4.18      0.00
   -3    4    9     -1.19      0.00
   -3    4    8     -0.99      0.00
   -3    4    7     -1.71      0.00
   -3    4    6      4.24      0.00
   -3    4    5     14.18      0.00
   -3    4    4      3.46      0.00
   -3    4    3     -5.68      0.00
   -3    4    2      2.61      0.00
   -3    4    1     -9.53      0.00
   -3    4    0    -13.25      0.00
    3   -4    1    -17.69      0.00
    3   -4    2    -14.63      0.00
    3   -4    3    -11.75      0.00
    3   -4    4      3.26      0.00
    3   -4    5      8.04      0.00
    3   -4    6      2.42      0.00
    3   -4    7      2.76      0.00
    3   -4    8      0.03      0.00
    3   -4    9      2.43      0.00
    3   -4   10      4.08      0.00
    3   -4   11      3.86      0.00
    3   -4   12     -1.64      0.00
    3   -4   13      0.96      0.00
    3   -4   14     -0.73      0.00
    3   -4   15      0.86      0.00
    3   -4   16     -1.98      0.00
    3   -4   17     -0.46      0.00
    3   -4   18     -0.48      0.00
    3   -4   19      2.39      0.00
    3   -4   20     -0.27      0.00
    3   -4   21     -1.99      0.00
    3   -4   22     -1.06      0.00
   -3    3   20     -0.31      0.00
   -3    3   19      2.08      0.00
   -3    3   18      0.02      0.00
   -3    3   17     -1.10      0.00
   -3    3   16     -1.17      0.00
   -3    3   15     -0.58      0.00
   -3    3   14      0.94      0.00
   -3    3   13     -0.05      0.00
   -3    3   12      1.11      0.00
   -3    3   11      3.18      0.00
   -3    3   10     -1.32      0.00
   -3    3    9     -3.11      0.00
   -3    3    8     -1.72      0.00
   -3    3    7      5.44      0.00
   -3    3    6     -5.04      0.00
   -3    3    5     -6.82      0.00
   -3    3    4    -26.43      0.00
   -3    3    3    -12.39      0.00
   -3    3    2      5.62      0.00
   -3    3    1      4.77      0.00
   -3    3    0    -16.33      0.00
    3   -3    1      9.12      0.00
    3   -3    2     -3.91      0.00
    3   -3    3     23.87      0.00
    3   -3    4     25.98      0.00
    3   -3    5     -7.53      0.00
    3   -3    6    -15.33      0.00
    3   -3    7     13.78      0.00
    3   -3    8     -1.83      0.00
    3   -3    9      8.89      0.00
    3   -3   10      0.10      0.00
    3   -3   11     -4.00      0.00
    3   -3   12      0.06      0.00
    3   -3   13      3.47      0.00
    3   -3   14     -3.66      0.00
    3   -3   15     -2.27      0.00
    3   -3   16     -0.70      0.00
    3   -3   17     -0.50      0.00
    3   -3   18     -0.35      0.00
    3   -3   19     -1.66      0.00
    3   -3   20     -1.51      0.00
    3   -3   21      1.56      0.00
    3   -3   22      0.31      0.00
   -3    2   20      0.87      0.00
   -3    2   19      0.24      0.00
   -3    2   18     -0.11      0.00
   -3    2   17     -0.42      0.00
   -3    2   16      0.46      0.00
   -3    2   15      0.31      0.00
   -3    2   14      1.55      0.00
   -3    2   13      0.34      0.00
   -3    2   12     -2.31      0.00
   -3    2   11     -2.48      0.00
   -3    2   10     -4.54      0.00
   -3    2    9      3.01      0.00
   -3    2    8     -0.43      0.00
   -3    2    7     -4.29      0.00
   -3    2    6     -8.32      0.00
   -3    2    5      4.53      0.00
   -3    2    4    -15.08      0.00
   -3    2    3     12.12      0.00
   -3    2    2    -16.37      0.00
   -3    2    1     -3.85      0.00
   -3    2    0     11.05      0.00
    3   -2    1     47.15      0.00
    3   -2    2     20.12      0.00
    3   -2    3     29.28      0.00
    3   -2    4    -11.07      0.00
    3   -2    5     10.22      0.00
    3   -2    6     18.11      0.00
    3   -2    7      6.94      0.00
    3   -2    8     -2.10      0.00
    3   -2    9     -8.64      0.00
    3   -2   10     -2.62      0.00
    3   -2   11     -1.70      0.00
    3   -2   12     -1.73      0.00
    3   -2   13     -3.83      0.00
    3   -2   14     -4.37      0.00
    3   -2   15     -0.24      0.00
    3   -2   16      0.94      0.00
    3   -2   17     -0.19      0.00
    3   -2   18     -1.25      0.00
    3   -2   19      1.47      0.00
    3   -2   20      0.20      0.00
    3   -2   21      1.17      0.00
    3   -2   22      0.41      0.00
    3   -2   23     -1.16      0.00
   -3    1   20      1.44      0.00
   -3    1   19      1.60      0.00
   -3    1   18      0.00      0.00
   -3    1   17     -0.37      0.00
   -3    1   16     -1.06      0.00
   -3    1   15      0.57      0.00
   -3    1   14     -0.47      0.00
   -3    1   13     -1.40      0.00
   -3    1   12     -1.51      0.00
   -3    1   11     -0.63      0.00
   -3    1   10     -1.77      0.00
   -3    1    9      1.61      0.00
   -3    1    8     -5.63      0.00
   -3    1    7      1.61      0.00
   -3    1    6      5.88      0.00
   -3    1    5     16.63      0.00
   -3    1    4     -6.12      0.00
   -3    1    3      6.79      0.00
   -3    1    2    -12.74      0.00
   -3    1    1     25.16      0.00
   -3    1    0     42.23      0.00
    3   -1    1     -4.74      0.00
    3   -1    2    -35.31      0.00
    3   -1    3      0.18      0.00
    3   -1    4     22.82      0.00
    3   -1    5     -8.21      0.00
    3   -1    6     18.84      0.00
    3   -1    7    -31.32      0.00
    3   -1    8    -10.47      0.00
    3   -1    9      2.66      0.00
    3   -1   10      3.62      0.00
    3   -1   11     -6.72      0.00
    3   -1   12      1.32      0.00
    3   -1   13     -5.36      0.00
    3   -1   14      3.61      0.00
    3   -1   15      2.74      0.00
    3   -1   16     -0.72      0.00
    3   -1   17     -1.11      0.00
    3   -1   18      1.04      0.00
    3   -1   19      0.57      0.00
    3   -1   20     -0.55      0.00
    3   -1   21     -0.56      0.00
    3   -1   22     -1.11      0.00
    3   -1   23      1.69      0.00
   -3    0   20     -0.05      0.00
   -3    0   19      1.02      0.00
   -3    0   18     -0.19      0.00
   -3    0   17     -0.13      0.00
   -3    0   16      1.22      0.00
   -3    0   15     -1.61      0.00
   -3    0   14     -0.13      0.00
   -3    0   13     -0.23      0.00
   -3    0   12     -0.68      0.00
   -3    0   11     -1.16      0.00
   -3    0   10     -0.09      0.00
   -3    0    9      2.76      0.00
   -3    0    8     -2.37      0.00
   -3    0    7      1.47      0.00
   -3    0    6      1.79      0.00
   -3    0    5     -0.91      0.00
   -3    0    4      0.38      0.00
   -3    0    3     21.94      0.00
   -3    0    2      7.04      0.00
   -3    0    1     38.20      0.00
    3    0    0     37.34      0.00
    3    0    1    -44.35      0.00
    3    0    2      2.14      0.00
    3    0    3    -68.93      0.00
    3    0    4      0.59      0.00
    3    0    5    -24.39      0.00
    3    0    6     -1.14      0.00
    3    0    7    -14.81      0.00
    3    0    8     22.64      0.00
    3    0    9      2.26      0.00
    3    0   10      5.74      0.00
    3    0   11     -4.60      0.00
    3    0   12      4.29      0.00
    3    0   13      2.38      0.00
    3    0   14      2.14      0.00
    3    0   15      0.95      0.00
    3    0   16      0.01      0.00
    3    0   17      0.07      0.00
    3    0   18      0.44      0.00
    3    0   19     -1.08      0.00
    3    0   20     -1.09      0.00
    3    0   21      1.24      0.00
    3    0   22     -0.47      0.00
    3    0   23     -0.41      0.00
   -3   -1   20      0.99      0.00
   -3   -1   19      0.48      0.00
   -3   -1   18      0.05      0.00
   -3   -1   17     -2.07      0.00
   -3   -1   16     -1.53      0.00
   -3   -1   15      0.28      0.00
   -3   -1   14     -0.82      0.00
   -3   -1   13     -1.36      0.00
   -3   -1   12     -0.30      0.00
   -3   -1   11      1.17      0.00
   -3   -1   10      4.40      0.00
   -3   -1    9      3.00      0.00
   -3   -1    8      1.54      0.00
   -3   -1    7      3.74      0.00
   -3   -1    6      4.39      0.00
   -3   -1    5     -3.92      0.00
   -3   -1    4      1.97      0.00
   -3   -1    3    -16.05      0.00
   -3   -1    2    -27.77      0.00
   -3   -1    1    -34.49      0.00
    3    1    0     -3.24      0.00
    3    1    1    -33.42      0.00
    3    1    2     16.13      0.00
    3    1    3     -9.22      0.00
    3    1    4    -32.95      0.00
    3    1    5     -7.25      0.00
    3    1    6     25.59      0.00
    3    1    7    -10.08      0.00
    3    1    8     10.71      0.00
    3    1    9     -4.94      0.00
    3    1   10      0.60      0.00
    3    1   11     11.60      0.00
    3    1   12      5.59      0.00
    3    1   13     -0.83      0.00
    3    1   14      1.74      0.00
    3    1   15      0.18      0.00
    3    1   16     -1.29      0.00
    3    1   17      1.41      0.00
    3    1   18     -0.05      0.00
    3    1   19      0.44      0.00
    3    1   20     -1.35      0.00
    3    1   21     -0.26      0.00
    3    1   22      0.78      0.00
    3    1   23      0.18      0.00
   -3   -2   20      0.84      0.00
   -3   -2   19      0.49      0.00
   -3   -2   18     -0.11      0.00
   -3   -2   17      0.89      0.00
   -3   -2   16      1.18      0.00
   -3   -2   15     -1.74      0.00
   -3   -2   14      0.48      0.00
   -3   -2   13      0.78      0.00
   -3   -2   12      2.75      0.00
   -3   -2   11     -1.05      0.00
   -3   -2   10      1.91      0.00
   -3   -2    9     -1.41      0.00
   -3   -2    8      5.32      0.00
   -3   -2    7      0.83      0.00
   -3   -2    6    -10.86      0.00
   -3   -2    5    -20.10      0.00
   -3   -2    4     -4.41      0.00
   -3   -2    3     -6.88      0.00
   -3   -2    2     -9.36      0.00
   -3   -2    1     -5.75      0.00
    3    2    0    -34.64      0.00
    3    2    1     20.67      0.00
    3    2    2     12.55      0.00
    3    2    3    -37.68      0.00
    3    2    4     11.04      0.00
    3    2    5      6.06      0.00
    3    2    6      4.35      0.00
    3    2    7      8.28      0.00
    3    2    8      1.29      0.00
    3    2    9     -5.12      0.00
    3    2   10      2.78      0.00
    3    2   11      4.40      0.00
    3    2   12      0.44      0.00
    3    2   13     -0.38      0.00
    3    2   14     -2.19      0.00
    3    2   15     -0.02      0.00
    3    2   16     -0.03      0.00
    3    2   17      3.31      0.00
    3    2   18     -1.69      0.00
    3    2   19     -0.34      0.00
    3    2   20     -1.85      0.00
    3    2   21      1.47      0.00
    3    2   22     -0.15      0.00
    3    2   23     -0.28      0.00
   -3   -3   19     -0.55      0.00
   -3   -3   18      0.99      0.00
   -3   -3   17      0.35      0.00
   -3   -3   16      1.07      0.00
   -3   -3   15     -0.07      0.00
   -3   -3   14      0.87      0.00
   -3   -3   13      1.23      0.00
   -3   -3   12     -0.48      0.00
   -3   -3   11     -2.55      0.00
   -3   -3   10      1.33      0.00
   -3   -3    9     -1.24      0.00
   -3   -3    8      2.49      0.00
   -3   -3    7     -5.11      0.00
   -3   -3    6     -6.37      0.00
   -3   -3    5      9.92      0.00
   -3   -3    4      9.78      0.00
   -3   -3    3      6.12      0.00
   -3   -3    2    -17.95      0.00
   -3   -3    1     15.21      0.00
    3    3    0    -13.06      0.00
    3    3    1      7.97      0.00
    3    3    2     42.03      0.00
    3    3    3    -12.31      0.00
    3    3    4      0.09      0.00
    3    3    5     11.26      0.00
    3    3    6      1.85      0.00
    3    3    7      5.50      0.00
    3    3    8     -0.08      0.00
    3    3    9     -6.75      0.00
    3    3   10      1.67      0.00
    3    3   11      0.54      0.00
    3    3   12     -8.01      0.00
    3    3   13     -0.65      0.00
    3    3   14     -1.34      0.00
    3    3   15      0.43      0.00
    3    3   16      0.41      0.00
    3    3   17      0.17      0.00
    3    3   18     -0.97      0.00
    3    3   19      1.65      0.00
    3    3   20      2.83      0.00
    3    3   21     -1.94      0.00
    3    3   22      0.12      0.00
    3    3   23      0.32      0.00
    3    3   24      2.99      0.00
   -3   -4   19     -0.69      0.00
   -3   -4   18     -0.84      0.00
   -3   -4   17     -0.13      0.00
   -3   -4   16      0.97      0.00
   -3   -4   15      0.24      0.00
   -3   -4   14      1.05      0.00
   -3   -4   13     -2.24      0.00
   -3   -4   12     -0.48      0.00
   -3   -4   11      2.34      0.00
   -3   -4   10     -0.37      0.00
   -3   -4    9     -4.25      0.00
   -3   -4    8     -1.30      0.00
   -3   -4    7      1.80      0.00
   -3   -4    6      1.69      0.00
   -3   -4    5      6.38      0.00
   -3   -4    4    -12.19      0.00
   -3   -4    3      7.38      0.00
   -3   -4    2     16.01      0.00
   -3   -4    1     11.65      0.00
    3    4    0      5.62      0.00
    3    4    1     14.88      0.00
    3    4    2    -44.08      0.00
    3    4    3     24.20      0.00
    3    4    4      7.46      0.00
    3    4    5    -12.64      0.00
    3    4    6    -17.54      0.00
    3    4    7      2.00      0.00
    3    4    8     -2.87      0.00
    3    4    9      2.68      0.00
    3    4   10     -1.71      0.00
    3    4   11     -4.05      0.00
    3    4   12     -1.39      0.00
    3    4   13      2.14      0.00
    3    4   14      0.30      0.00
    3    4   15      0.20      0.00
    3    4   16     -0.91      0.00
    3    4   17      0.07      0.00
    3    4   18      2.50      0.00
    3    4   19     -0.03      0.00
    3    4   20     -1.93      0.00
    3    4   21     -0.51      0.00
    3    4   22      0.30      0.00
    3    4   23      0.15      0.00
    3    4   24      0.07      0.00
   -3   -5   19      1.43      0.00
   -3   -5   18      0.54      0.00
   -3   -5   17      2.38      0.00
   -3   -5   16     -2.29      0.00
   -3   -5   15     -1.25      0.00
   -3   -5   14     -1.22      0.00
   -3   -5   13      1.10      0.00
   -3   -5   12      2.07      0.00
   -3   -5   11     -0.76      0.00
   -3   -5   10     -1.11      0.00
   -3   -5    9      0.33      0.00
   -3   -5    8      3.82      0.00
   -3   -5    7      1.99      0.00
   -3   -5    6     -4.91      0.00
   -3   -5    5      1.94      0.00
   -3   -5    4    -11.72      0.00
   -3   -5    3     20.10      0.00
   -3   -5    2      5.44      0.00
   -3   -5    1     18.33      0.00
    3    5    0    -47.48      0.00
    3    5    1     25.99      0.00
    3    5    2     -3.44      0.00
    3    5    3      9.34      0.00
    3    5    4     -2.92      0.00
    3    5    5    -10.22      0.00
    3    5    6     -9.86      0.00
    3    5    7     14.01      0.00
    3    5    8     -2.80      0.00
    3    5    9     -0.52      0.00
    3    5   10     -1.48      0.00
    3    5   11     -3.34      0.00
    3    5   12      6.00      0.00
    3    5   13      4.48      0.00
    3    5   14     -1.72      0.00
    3    5   15     -0.44      0.00
    3    5   16      0.66      0.00
    3    5   17      1.95      0.00
    3    5   18      0.58      0.00
    3    5   19     -0.95      0.00
    3    5   20      0.31      0.00
    3    5   21      1.16      0.00
    3    5   22      3.73      0.00
    3    5   23      0.53      0.00
    3    5   24      1.53      0.00
   -3   -6   19      1.91      0.00
   -3   -6   18      0.02      0.00
   -3   -6   17     -0.45      0.00
   -3   -6   16     -0.63      0.00
   -3   -6   15      1.58      0.00
   -3   -6   14      0.57      0.00
   -3   -6   13      0.33      0.00
   -3   -6   12     -0.48      0.00
   -3   -6   11      1.02      0.00
   -3   -6   10      0.21      0.00
   -3   -6    9      3.36      0.00
   -3   -6    8      0.95      0.00
   -3   -6    7     -0.94      0.00
   -3   -6    6     -1.94      0.00
   -3   -6    5      4.08      0.00
   -3   -6    4     -7.45      0.00
   -3   -6    3      5.01      0.00
   -3   -6    2    -29.77      0.00
   -3   -6    1     -8.57      0.00
    3    6    0      7.82      0.00
    3    6    1     -2.56      0.00
    3    6    2     -4.23      0.00
    3    6    3     10.67      0.00
    3    6    4     -4.65      0.00
    3    6    5      1.21      0.00
    3    6    6     17.66      0.00
    3    6    7     -2.36      0.00
    3    6    8      0.11      0.00
    3    6    9     -2.38      0.00
    3    6   10      5.81      0.00
    3    6   11      1.65      0.00
    3    6   12      2.54      0.00
    3    6   13     -0.69      0.00
    3    6   14     -0.30      0.00
    3    6   15      0.65      0.00
    3    6   16      0.63      0.00
    3    6   17     -1.56      0.00
    3    6   18      0.92      0.00
    3    6   19      0.85      0.00
    3    6   20      1.40      0.00
    3    6   21      1.21      0.00
    3    6   22      0.66      0.00
    3    6   23     -0.03      0.00
   -3   -7   19      1.80      0.00
   -3   -7   18      1.22      0.00
   -3   -7   17     -0.18      0.00
   -3   -7   16      1.94      0.00
   -3   -7   15      2.24      0.00
   -3   -7   14      2.05      0.00
   -3   -7   13     -0.70      0.00
   -3   -7   12     -0.12      0.00
   -3   -7   11     -1.06      0.00
   -3   -7   10     -1.50      0.00
   -3   -7    9     -2.01      0.00
   -3   -7    8     -3.15      0.00
   -3   -7    7     -1.56      0.00
   -3   -7    6      3.33      0.00
   -3   -7    5      2.58      0.00
   -3   -7    4     -7.70      0.00
   -3   -7    3      1.23      0.00
   -3   -7    2     -2.64      0.00
   -3   -7    1     -1.30      0.00
    3    7    0     12.42      0.00
    3    7    1     -9.81      0.00
    3    7    2     -6.52      0.00
    3    7    3     -2.09      0.00
    3    7    4     18.78      0.00
    3    7    5      3.60      0.00
    3    7    6     10.55      0.00
    3    7    7    -11.51      0.00
    3    7    8      3.85      0.00
    3    7    9      7.83      0.00
    3    7   10      0.43      0.00
    3    7   11     -3.26      0.00
    3    7   12      0.64      0.00
    3    7   13     -2.18      0.00
    3    7   14      1.90      0.00
    3    7   15      0.36      0.00
    3    7   16     -0.91      0.00
    3    7   17      1.37      0.00
    3    7   18      0.29      0.00
    3    7   19      0.22      0.00
    3    7   20     -0.41      0.00
    3    7   21     -1.07      0.00
    3    7   22     -0.10      0.00
    3    7   23      0.49      0.00
   -3   -8   19     -0.09      0.00
   -3   -8   18     -1.43      0.00
   -3   -8   17      0.51      0.00
   -3   -8   16     -1.12      0.00
   -3   -8   15     -0.41      0.00
   -3   -8   14      0.04      0.00
   -3   -8   13      0.25      0.00
   -3   -8   12      0.31      0.00
   -3   -8   11     -1.46      0.00
   -3   -8   10      1.38      0.00
   -3   -8    9     -1.81      0.00
   -3   -8    8     -1.32      0.00
   -3   -8    7     -0.45      0.00
   -3   -8    6      0.37      0.00
   -3   -8    5     -4.73      0.00
   -3   -8    4      3.93      0.00
   -3   -8    3     -5.67      0.00
   -3   -8    2      1.33      0.00
   -3   -8    1      5.22      0.00
    3    8    0      0.77      0.00
    3    8    1      0.32      0.00
    3    8    2      5.95      0.00
    3    8    4     -3.83      0.00
    3    8    5      1.42      0.00
    3    8    6     -2.38      0.00
    3    8    7     -2.85      0.00
    3    8    8      4.01      0.00
    3    8    9     -0.36      0.00
    3    8   10     -0.83      0.00
    3    8   11     -1.91      0.00
    3    8   12     -1.21      0.00
    3    8   13      0.06      0.00
    3    8   14     -0.57      0.00
    3    8   15     -1.73      0.00
    3    8   16     -0.14      0.00
    3    8   17     -0.70      0.00
    3    8   18      0.36      0.00
    3    8   19     -0.22      0.00
    3    8   20     -1.04      0.00
    3    8   21     -0.17      0.00
    3    8   22     -1.52      0.00
   -3   -9   19     -0.44      0.00
   -3   -9   18     -0.55      0.00
   -3   -9   17      0.08      0.00
   -3   -9   16      0.63      0.00
   -3   -9   15     -0.81      0.00
   -3   -9   14      0.23      0.00
   -3   -9   13      0.41      0.00
   -3   -9   12      0.79      0.00
   -3   -9   11     -0.43      0.00
   -3   -9   10      0.25      0.00
   -3   -9    9     -1.22      0.00
   -3   -9    8      2.23      0.00
   -3   -9    7     -0.60      0.00
   -3   -9    6      2.23      0.00
   -3   -9    5     -3.30      0.00
   -3   -9    4      3.17      0.00
   -3   -9    3      3.61      0.00
   -3   -9    2     -3.48      0.00
   -3   -9    1      6.30      0.00
    3    9    0     -1.00      0.00
    3    9    1      0.33      0.00
    3    9    4     -4.39      0.00
    3    9    5      1.24      0.00
    3    9    6     -2.75      0.00
    3    9    7     -2.77      0.00
    3    9    8     -1.45      0.00
    3    9    9     -3.18      0.00
    3    9   10     -2.05      0.00
    3    9   11      3.89      0.00
    3    9   12     -2.09      0.00
    3    9   13     -0.46      0.00
    3    9   14     -0.27      0.00
    3    9   15      0.79      0.00
    3    9   16      1.01      0.00
    3    9   17      1.30      0.00
    3    9   18      0.30      0.00
    3    9   19     -0.83      0.00
    3    9   20     -0.31      0.00
    3    9   21      1.15      0.00
    3    9   22      0.50      0.00
   -3  -10   18      0.73      0.00
   -3  -10   17      0.86      0.00
   -3  -10   16     -0.29      0.00
   -3  -10   15      0.46      0.00
   -3  -10   14      1.24      0.00
   -3  -10   13      0.04      0.00
   -3  -10   12     -0.48      0.00
   -3  -10   11     -0.38      0.00
   -3  -10   10      1.42      0.00
   -3  -10    9     -0.46      0.00
   -3  -10    8      1.59      0.00
   -3  -10    7     -0.18      0.00
   -3  -10    6     -0.27      0.00
   -3  -10    5      2.07      0.00
   -3  -10    4      0.68      0.00
   -3  -10    3      1.87      0.00
   -3  -10    2     -0.65      0.00
   -3  -10    1      1.17      0.00
    3   10    0     -2.11      0.00
    3   10    1      1.98      0.00
    3   10    5      0.49      0.00
    3   10    6     -1.06      0.00
    3   10    7      0.40      0.00
    3   10    8      0.32      0.00
    3   10    9     -2.16      0.00
    3   10   10      0.52      0.00
    3   10   11     -0.58      0.00
    3   10   12     -1.87      0.00
    3   10   13      0.18      0.00
    3   10   14      0.20      0.00
    3   10   15      0.95      0.00
    3   10   16      0.82      0.00
    3   10   17     -1.01      0.00
    3   10   18      1.16      0.00
    3   10   19      1.04      0.00
    3   10   20      0.99      0.00
    3   10   21      0.57      0.00
   -3  -11   17      1.70      0.00
   -3  -11   16      0.45      0.00
   -3  -11   15     -0.05      0.00
   -3  -11   14     -1.49      0.00
   -3  -11   13     -0.54      0.00
   -3  -11   12     -0.97      0.00
   -3  -11   11     -0.82      0.00
   -3  -11   10     -0.02      0.00
   -3  -11    9     -0.18      0.00
   -3  -11    8      0.22      0.00
   -3  -11    7     -2.12      0.00
   -3  -11    6     -0.93      0.00
   -3  -11    5      1.77      0.00
   -3  -11    4     -0.50      0.00
   -3  -11    3     -0.93      0.00
   -3  -11    2     -1.78      0.00
   -3  -11    1      1.66      0.00
    3   11    0     -2.24      0.00
    3   11    1      3.89      0.00
    3   11    6     -0.89      0.00
    3   11    7      0.97      0.00
    3   11    8     -1.04      0.00
    3   11    9     -0.99      0.00
    3   11   10      0.86      0.00
    3   11   11      0.17      0.00
    3   11   12     -0.71      0.00
    3   11   13     -0.28      0.00
    3   11   14     -0.33      0.00
    3   11   15      0.12      0.00
    3   11   16      0.14      0.00
    3   11   17     -0.74      0.00
    3   11   18      0.57      0.00
    3   11   19      0.52      0.00
    3   11   20      1.06      0.00
    3   11   21     -0.03      0.00
   -3  -12   16     -0.45      0.00
   -3  -12   15      0.31      0.00
   -3  -12   14     -1.35      0.00
   -3  -12   13     -0.67      0.00
   -3  -12   12     -0.73      0.00
   -3  -12   11      1.43      0.00
   -3  -12   10     -0.92      0.00
   -3  -12    9     -0.34      0.00
   -3  -12    8     -0.03      0.00
   -3  -12    7     -0.05      0.00
   -3  -12    6      0.63      0.00
   -3  -12    5     -0.07      0.00
   -3  -12    4     -1.75      0.00
   -3  -12    3      0.39      0.00
   -3  -12    2      0.08      0.00
   -3  -12    1     -0.02      0.00
    3   12    0     -1.45      0.00
    3   12    1      1.45      0.00
    3   12    6      1.08      0.00
    3   12    7      0.91      0.00
    3   12    8      0.11      0.00
    3   12    9      0.30      0.00
    3   12   10      0.52      0.00
    3   12   11     -0.68      0.00
    3   12   12      0.63      0.00
    3   12   13     -0.41      0.00
    3   12   14     -0.09      0.00
    3   12   15      0.87      0.00
    3   12   16      0.41      0.00
    3   12   17      0.08      0.00
    3   12   18      0.20      0.00
    3   12   19     -0.49      0.00
    3   12   20      0.68      0.00
   -3  -13   14      0.82      0.00
   -3  -13   13     -0.01      0.00
   -3  -13   12     -0.50      0.00
   -3  -13   11      0.00      0.00
   -3  -13   10     -0.22      0.00
   -3  -13    9     -0.24      0.00
   -3  -13    8      0.41      0.00
   -3  -13    7     -0.56      0.00
   -3  -13    6      0.61      0.00
   -3  -13    5     -0.17      0.00
   -3  -13    4     -0.94      0.00
   -3  -13    3      1.32      0.00
   -3  -13    2     -0.44      0.00
   -3  -13    1     -1.24      0.00
    3   13    0      1.98      0.00
    3   13    1      0.69      0.00
    3   13    7      0.87      0.00
    3   13    8     -0.52      0.00
    3   13    9     -0.20      0.00
    3   13   10     -0.69      0.00
    3   13   11     -0.34      0.00
    3   13   12      0.59      0.00
    3   13   13      0.08      0.00
    3   13   14     -0.41      0.00
    3   13   15     -0.31      0.00
    3   13   16      1.09      0.00
    3   13   17     -0.17      0.00
    3   13   18      0.31      0.00
    3   13   19     -0.37      0.00
   -3  -14   13      1.31      0.00
   -3  -14   12      0.63      0.00
   -3  -14   11     -0.87      0.00
   -3  -14   10     -1.02      0.00
   -3  -14    9      0.75      0.00
   -3  -14    8      0.17      0.00
   -3  -14    7      0.25      0.00
   -3  -14    6      0.86      0.00
   -3  -14    5      0.81      0.00
   -3  -14    4      0.83      0.00
   -3  -14    3      0.15      0.00
   -3  -14    2      0.01      0.00
   -3  -14    1      2.35      0.00
    3   14    0     -0.32      0.00
    3   14    8     -1.99      0.00
    3   14    9      0.49      0.00
    3   14   10     -0.23      0.00
    3   14   11      1.36      0.00
    3   14   12      0.41      0.00
    3   14   13     -0.76      0.00
    3   14   14      0.57      0.00
    3   14   15      0.63      0.00
    3   14   16      0.23      0.00
    3   14   17      0.14      0.00
    3   14   18     -1.53      0.00
   -3  -15   12     -1.27      0.00
   -3  -15   11      0.85      0.00
   -3  -15   10     -0.30      0.00
   -3  -15    9      0.20      0.00
   -3  -15    8      0.70      0.00
   -3  -15    7      0.06      0.00
   -3  -15    6      0.13      0.00
   -3  -15    5     -1.43      0.00
   -3  -15    4     -0.80      0.00
   -3  -15    3      0.46      0.00
   -3  -15    2      0.02      0.00
   -3  -15    1      0.32      0.00
    3   15    0     -0.64      0.00
    3   15    9      0.06      0.00
    3   15   10     -0.76      0.00
    3   15   11     -1.12      0.00
    3   15   12      1.59      0.00
    3   15   13      0.80      0.00
    3   15   14      3.07      0.00
    3   15   15     -0.29      0.00
    3   15   16     -0.17      0.00
    3   15   17     -3.10      0.00
    3   15   18     -1.11      0.00
   -3  -16   16      0.81      0.00
   -3  -16   14      0.03      0.00
   -3  -16   12     -0.62      0.00
   -3  -16   11     -0.42      0.00
   -3  -16   10      0.68      0.00
   -3  -16    9      0.36      0.00
   -3  -16    8     -0.19      0.00
   -3  -16    7      0.71      0.00
   -3  -16    6     -0.21      0.00
   -3  -16    5      0.63      0.00
   -3  -16    4      0.33      0.00
   -3  -16    3     -0.19      0.00
   -3  -16    2     -0.62      0.00
   -3  -16    1     -1.10      0.00
    3   16   10      1.39      0.00
    3   16   11      0.95      0.00
    3   16   12     -0.56      0.00
    3   16   13      2.39      0.00
    3   16   14      1.22      0.00
    3   16   15     -0.66      0.00
    3   16   16      0.34      0.00
    3   16   17      0.73      0.00
    3   16   18     -0.93      0.00
   -3  -17   14      0.19      0.00
   -3  -17   13      0.05      0.00
   -3  -17    8     -1.26      0.00
   -3  -17    7     -1.31      0.00
   -3  -17    6     -0.75      0.00
   -3  -17    5      0.02      0.00
   -3  -17    4     -0.49      0.00
   -3  -17    3      0.79      0.00
   -3  -17    2      0.55      0.00
   -3  -17    1     -0.21      0.00
    3   17   12     -1.15      0.00
    3   17   14     -0.57      0.00
    3   17   15     -0.26      0.00
    3   17   16     -0.07      0.00
   -3  -18   14      0.92      0.00
   -3  -18   13      2.92      0.00
   -3  -18   12      3.74      0.00
   -3  -18   11      2.44      0.00
   -3  -18    6      0.05      0.00
   -3  -18    4      1.02      0.00
   -3  -18    3     -0.39      0.00
   -3  -18    2     -0.14      0.00
   -3  -19   12     -0.27      0.00
   -3  -19   11      0.63      0.00
   -3  -19   10     -0.88      0.00
   -3  -19    6      0.54      0.00
   -3  -20    8      1.43      0.00
   -3  -20    7      1.91      0.00
   -4   18    8     -1.11      0.00
   -4   18    7      0.92      0.00
    4  -18   12     -1.05      0.00
   -4   17    5      1.06      0.00
   -4   17    4      0.89      0.00
   -4   17    3     -0.97      0.00
   -4   17    2     -0.35      0.00
   -4   17    1      0.20      0.00
   -4   17    0      0.07      0.00
    4  -17    1      0.74      0.00
    4  -17    2      0.85      0.00
    4  -17    3     -0.52      0.00
    4  -17    4      0.48      0.00
    4  -17    5     -0.07      0.00
    4  -17    8      1.36      0.00
   -4   16   10      1.29      0.00
   -4   16    9      0.81      0.00
   -4   16    8      0.43      0.00
   -4   16    7      0.40      0.00
   -4   16    6      1.55      0.00
   -4   16    5     -0.16      0.00
   -4   16    4     -0.28      0.00
   -4   16    3      0.67      0.00
   -4   16    2      0.67      0.00
   -4   16    1      1.92      0.00
   -4   16    0      0.04      0.00
    4  -16    1     -0.33      0.00
    4  -16    2     -0.84      0.00
    4  -16    3      1.14      0.00
    4  -16    4     -0.21      0.00
    4  -16    5      0.65      0.00
    4  -16    6     -0.71      0.00
    4  -16    7      0.27      0.00
    4  -16    8     -0.54      0.00
    4  -16    9      0.02      0.00
    4  -16   10      0.31      0.00
    4  -16   11      0.93      0.00
    4  -16   12     -0.52      0.00
   -4   15   13      0.51      0.00
   -4   15   12      0.78      0.00
   -4   15   11     -0.19      0.00
   -4   15   10     -0.44      0.00
   -4   15    9      0.94      0.00
   -4   15    8     -1.35      0.00
   -4   15    7      0.32      0.00
   -4   15    6     -0.95      0.00
   -4   15    5      0.01      0.00
   -4   15    4      1.01      0.00
   -4   15    3      0.66      0.00
   -4   15    2      1.27      0.00
   -4   15    1     -0.14      0.00
   -4   15    0     -2.34      0.00
    4  -15    1      0.02      0.00
    4  -15    2     -0.34      0.00
    4  -15    3     -0.02      0.00
    4  -15    4      0.75      0.00
    4  -15    5      0.39      0.00
    4  -15    6      0.17      0.00
    4  -15    7      0.50      0.00
    4  -15    8     -0.27      0.00
    4  -15    9     -0.45      0.00
    4  -15   10     -0.45      0.00
    4  -15   11      0.89      0.00
    4  -15   12     -1.87      0.00
    4  -15   13      0.27      0.00
    4  -15   14     -1.75      0.00
   -4   14   14     -0.13      0.00
   -4   14   13     -0.77      0.00
   -4   14   12     -0.63      0.00
   -4   14   11      1.40      0.00
   -4   14   10     -0.28      0.00
   -4   14    9      0.60      0.00
   -4   14    8      0.89      0.00
   -4   14    7      0.66      0.00
   -4   14    6      0.03      0.00
   -4   14    5      0.11      0.00
   -4   14    4     -0.16      0.00
   -4   14    3      0.98      0.00
   -4   14    2     -0.64      0.00
   -4   14    1      0.49      0.00
   -4   14    0      0.29      0.00
    4  -14    1      0.77      0.00
    4  -14    2      0.16      0.00
    4  -14    3      2.83      0.00
    4  -14    4     -0.09      0.00
    4  -14    5      1.81      0.00
    4  -14    6      1.06      0.00
    4  -14    7     -0.13      0.00
    4  -14    8     -0.39      0.00
    4  -14    9      0.42      0.00
    4  -14   10     -0.08      0.00
    4  -14   11     -1.18      0.00
    4  -14   12      0.09      0.00
    4  -14   13     -1.28      0.00
    4  -14   14     -0.33      0.00
    4  -14   15     -1.94      0.00
   -4   13   15     -0.08      0.00
   -4   13   14      0.31      0.00
   -4   13   13     -0.43      0.00
   -4   13   12      0.22      0.00
   -4   13   11      0.30      0.00
   -4   13   10      0.48      0.00
   -4   13    9      0.12      0.00
   -4   13    8     -0.44      0.00
   -4   13    7      0.81      0.00
   -4   13    6      0.44      0.00
   -4   13    5      0.19      0.00
   -4   13    4     -0.32      0.00
   -4   13    3      0.82      0.00
   -4   13    2     -0.21      0.00
   -4   13    1      0.70      0.00
   -4   13    0     -1.20      0.00
    4  -13    1      0.58      0.00
    4  -13    2      0.53      0.00
    4  -13    3      1.29      0.00
    4  -13    4      2.10      0.00
    4  -13    5     -0.35      0.00
    4  -13    6     -0.11      0.00
    4  -13    7      0.12      0.00
    4  -13    8     -0.20      0.00
    4  -13    9      0.55      0.00
    4  -13   10      1.04      0.00
    4  -13   11      2.61      0.00
    4  -13   12      0.62      0.00
    4  -13   13      1.96      0.00
    4  -13   14     -1.33      0.00
    4  -13   15      0.33      0.00
    4  -13   17     -0.35      0.00
   -4   12   17      0.79      0.00
   -4   12   16      0.94      0.00
   -4   12   15     -2.42      0.00
   -4   12   14     -1.48      0.00
   -4   12   13      0.45      0.00
   -4   12   12     -0.47      0.00
   -4   12   11     -1.00      0.00
   -4   12   10      0.61      0.00
   -4   12    9     -0.06      0.00
   -4   12    8     -0.30      0.00
   -4   12    7      1.90      0.00
   -4   12    6     -0.11      0.00
   -4   12    5     -1.70      0.00
   -4   12    4      1.78      0.00
   -4   12    3     -0.50      0.00
   -4   12    2     -1.29      0.00
   -4   12    1     -2.81      0.00
   -4   12    0      0.08      0.00
    4  -12    1     -1.95      0.00
    4  -12    2      1.81      0.00
    4  -12    3     -0.62      0.00
    4  -12    4     -1.60      0.00
    4  -12    5      0.32      0.00
    4  -12    6     -0.03      0.00
    4  -12    7     -0.25      0.00
    4  -12    8     -0.32      0.00
    4  -12    9     -0.57      0.00
    4  -12   10      0.16      0.00
    4  -12   11      1.25      0.00
    4  -12   12      0.05      0.00
    4  -12   13     -0.86      0.00
    4  -12   14     -0.77      0.00
    4  -12   15      0.02      0.00
    4  -12   16     -0.07      0.00
    4  -12   17      0.57      0.00
    4  -12   18     -0.06      0.00
   -4   11   17     -0.79      0.00
   -4   11   16     -2.10      0.00
   -4   11   15      0.58      0.00
   -4   11   14     -0.72      0.00
   -4   11   13     -0.75      0.00
   -4   11   12      1.23      0.00
   -4   11   11     -0.60      0.00
   -4   11   10     -0.14      0.00
   -4   11    9     -0.12      0.00
   -4   11    8     -0.76      0.00
   -4   11    7     -1.17      0.00
   -4   11    6      1.40      0.00
   -4   11    5      0.18      0.00
   -4   11    4      2.19      0.00
   -4   11    3     -1.24      0.00
   -4   11    2     -0.93      0.00
   -4   11    1      1.16      0.00
   -4   11    0      0.60      0.00
    4  -11    1      0.61      0.00
    4  -11    2     -0.59      0.00
    4  -11    3      0.12      0.00
    4  -11    4      1.06      0.00
    4  -11    5      0.82      0.00
    4  -11    6     -0.68      0.00
    4  -11    7     -1.47      0.00
    4  -11    8      0.88      0.00
    4  -11    9     -0.37      0.00
    4  -11   10      1.58      0.00
    4  -11   11     -0.13      0.00
    4  -11   12     -0.04      0.00
    4  -11   13     -0.25      0.00
    4  -11   14      1.08      0.00
    4  -11   15      1.69      0.00
    4  -11   16     -0.26      0.00
    4  -11   17     -0.72      0.00
    4  -11   18      0.44      0.00
    4  -11   19      1.94      0.00
   -4   10   18      0.83      0.00
   -4   10   17      1.29      0.00
   -4   10   16     -1.65      0.00
   -4   10   15     -1.69      0.00
   -4   10   14      0.94      0.00
   -4   10   13     -0.32      0.00
   -4   10   12      0.09      0.00
   -4   10   11     -0.38      0.00
   -4   10   10     -0.28      0.00
   -4   10    9     -1.98      0.00
   -4   10    8     -0.34      0.00
   -4   10    7     -0.02      0.00
   -4   10    6      0.12      0.00
   -4   10    5     -0.28      0.00
   -4   10    4     -0.31      0.00
   -4   10    3     -0.30      0.00
   -4   10    2      2.51      0.00
   -4   10    1      1.65      0.00
   -4   10    0     -0.54      0.00
    4  -10    1     -0.05      0.00
    4  -10    2      2.24      0.00
    4  -10    3      0.26      0.00
    4  -10    4      3.63      0.00
    4  -10    5     -0.21      0.00
    4  -10    6     -3.05      0.00
    4  -10    7     -0.45      0.00
    4  -10    8     -0.02      0.00
    4  -10    9      0.38      0.00
    4  -10   10     -0.64      0.00
    4  -10   11     -1.89      0.00
    4  -10   12     -0.70      0.00
    4  -10   13      0.39      0.00
    4  -10   14     -0.53      0.00
    4  -10   15     -0.87      0.00
    4  -10   16     -0.91      0.00
    4  -10   17      0.49      0.00
    4  -10   18     -0.46      0.00
    4  -10   19     -0.47      0.00
   -4    9   17     -0.11      0.00
   -4    9   16      0.79      0.00
   -4    9   15     -0.26      0.00
   -4    9   14      1.47      0.00
   -4    9   13      0.65      0.00
   -4    9   12      0.80      0.00
   -4    9   11     -0.78      0.00
   -4    9   10      0.87      0.00
   -4    9    9      0.76      0.00
   -4    9    8     -0.26      0.00
   -4    9    7     -0.07      0.00
   -4    9    6     -1.18      0.00
   -4    9    5      1.53      0.00
   -4    9    4      3.24      0.00
   -4    9    3     -1.13      0.00
   -4    9    2      1.89      0.00
   -4    9    1      1.01      0.00
   -4    9    0     -1.33      0.00
    4   -9    1      3.15      0.00
    4   -9    2      1.53      0.00
    4   -9    3     -1.54      0.00
    4   -9    4     -2.11      0.00
    4   -9    5     -2.01      0.00
    4   -9    6     -1.81      0.00
    4   -9    7      1.36      0.00
    4   -9    8     -0.66      0.00
    4   -9    9     -2.60      0.00
    4   -9   10      0.07      0.00
    4   -9   11      1.86      0.00
    4   -9   12      1.20      0.00
    4   -9   13      0.60      0.00
    4   -9   14     -0.46      0.00
    4   -9   15      0.00      0.00
    4   -9   16      0.01      0.00
    4   -9   17      1.59      0.00
    4   -9   18     -0.49      0.00
    4   -9   19      0.26      0.00
    4   -9   20      0.56      0.00
   -4    8   18      0.83      0.00
   -4    8   17      1.13      0.00
   -4    8   16      0.12      0.00
   -4    8   15      0.74      0.00
   -4    8   14     -1.10      0.00
   -4    8   13     -0.68      0.00
   -4    8   12      0.98      0.00
   -4    8   11      1.06      0.00
   -4    8   10      0.16      0.00
   -4    8    9     -0.65      0.00
   -4    8    8      3.46      0.00
   -4    8    7     -1.51      0.00
   -4    8    6      0.85      0.00
   -4    8    5     -0.53      0.00
   -4    8    4     -1.38      0.00
   -4    8    3     -0.04      0.00
   -4    8    2      2.05      0.00
   -4    8    1     -3.59      0.00
   -4    8    0      1.02      0.00
    4   -8    1      3.26      0.00
    4   -8    2     -9.53      0.00
    4   -8    3      1.28      0.00
    4   -8    4     -0.32      0.00
    4   -8    5     -0.28      0.00
    4   -8    6     -0.81      0.00
    4   -8    7      0.72      0.00
    4   -8    8     -2.52      0.00
    4   -8    9      3.67      0.00
    4   -8   10      2.90      0.00
    4   -8   11      0.57      0.00
    4   -8   12      0.01      0.00
    4   -8   13      1.51      0.00
    4   -8   14     -0.33      0.00
    4   -8   15      1.43      0.00
    4   -8   16      0.30      0.00
    4   -8   17      0.05      0.00
    4   -8   18     -2.31      0.00
    4   -8   19     -0.51      0.00
    4   -8   20      1.05      0.00
    4   -8   21      0.47      0.00
   -4    7   19     -0.61      0.00
   -4    7   18      1.27      0.00
   -4    7   17     -1.92      0.00
   -4    7   16     -0.98      0.00
   -4    7   15     -0.22      0.00
   -4    7   14      1.20      0.00
   -4    7   13      0.85      0.00
   -4    7   12      0.19      0.00
   -4    7   11     -0.26      0.00
   -4    7   10      0.58      0.00
   -4    7    9      3.04      0.00
   -4    7    8      1.80      0.00
   -4    7    7     -1.83      0.00
   -4    7    6     -4.01      0.00
   -4    7    5     -1.07      0.00
   -4    7    4     -1.80      0.00
   -4    7    3      1.13      0.00
   -4    7    2     -5.12      0.00
   -4    7    1     -3.55      0.00
   -4    7    0     -4.64      0.00
    4   -7    1      2.11      0.00
    4   -7    2     -2.34      0.00
    4   -7    3      1.59      0.00
    4   -7    4     -1.41      0.00
    4   -7    5      0.57      0.00
    4   -7    6     -1.11      0.00
    4   -7    7      3.41      0.00
    4   -7    8     -0.50      0.00
    4   -7    9      3.00      0.00
    4   -7   10      0.76      0.00
    4   -7   11      0.59      0.00
    4   -7   12     -0.39      0.00
    4   -7   13     -0.81      0.00
    4   -7   14      0.04      0.00
    4   -7   15      1.32      0.00
    4   -7   16      0.17      0.00
    4   -7   17     -0.33      0.00
    4   -7   18      0.25      0.00
    4   -7   19      0.52      0.00
    4   -7   20      1.52      0.00
    4   -7   21      1.46      0.00
   -4    6   19     -0.24      0.00
   -4    6   18     -0.51      0.00
   -4    6   17      0.80      0.00
   -4    6   16      1.28      0.00
   -4    6   15      0.41      0.00
   -4    6   14     -0.96      0.00
   -4    6   13     -0.92      0.00
   -4    6   12      0.00      0.00
   -4    6   11      1.19      0.00
   -4    6   10      0.28      0.00
   -4    6    9      2.45      0.00
   -4    6    8     -6.18      0.00
   -4    6    7      0.00      0.00
   -4    6    6     -0.96      0.00
   -4    6    5     -3.67      0.00
   -4    6    4     -5.99      0.00
   -4    6    3      3.08      0.00
   -4    6    2     -1.67      0.00
   -4    6    1      4.14      0.00
   -4    6    0      5.33      0.00
    4   -6    1     -0.06      0.00
    4   -6    2     -4.33      0.00
    4   -6    3     14.42      0.00
    4   -6    4     -5.71      0.00
    4   -6    5      6.20      0.00
    4   -6    6      3.24      0.00
    4   -6    7     -2.68      0.00
    4   -6    8     -1.53      0.00
    4   -6    9      0.90      0.00
    4   -6   10     -2.24      0.00
    4   -6   11     -2.14      0.00
    4   -6   12      1.31      0.00
    4   -6   13     -1.30      0.00
    4   -6   14      1.03      0.00
    4   -6   15     -0.07      0.00
    4   -6   16      0.53      0.00
    4   -6   17     -0.06      0.00
    4   -6   18      2.54      0.00
    4   -6   19      0.54      0.00
    4   -6   20      0.23      0.00
    4   -6   21      0.06      0.00
    4   -6   22     -0.68      0.00
   -4    5   19      0.25      0.00
   -4    5   18     -0.58      0.00
   -4    5   17     -0.06      0.00
   -4    5   16      0.49      0.00
   -4    5   15      0.78      0.00
   -4    5   14      1.17      0.00
   -4    5   13      0.42      0.00
   -4    5   12      0.48      0.00
   -4    5   11      0.69      0.00
   -4    5   10     -5.51      0.00
   -4    5    9     -1.01      0.00
   -4    5    8      1.45      0.00
   -4    5    7      1.37      0.00
   -4    5    6     -1.49      0.00
   -4    5    5     -7.29      0.00
   -4    5    4      1.01      0.00
   -4    5    3     10.86      0.00
   -4    5    2      6.35      0.00
   -4    5    1      5.07      0.00
   -4    5    0     -0.39      0.00
    4   -5    1      2.31      0.00
    4   -5    2     10.21      0.00
    4   -5    3      2.75      0.00
    4   -5    4     -4.32      0.00
    4   -5    5    -10.84      0.00
    4   -5    6     -1.80      0.00
    4   -5    7     -4.01      0.00
    4   -5    8      1.13      0.00
    4   -5    9     -2.59      0.00
    4   -5   10     -2.45      0.00
    4   -5   11     -0.58      0.00
    4   -5   12      2.27      0.00
    4   -5   13     -1.64      0.00
    4   -5   14     -0.45      0.00
    4   -5   15     -2.43      0.00
    4   -5   16     -0.25      0.00
    4   -5   17      1.37      0.00
    4   -5   18      0.01      0.00
    4   -5   19     -0.18      0.00
    4   -5   20      1.24      0.00
    4   -5   21      0.96      0.00
    4   -5   22      1.63      0.00
   -4    4   19      0.09      0.00
   -4    4   18      1.10      0.00
   -4    4   17      0.37      0.00
   -4    4   16     -0.22      0.00
   -4    4   15     -0.56      0.00
   -4    4   14      0.74      0.00
   -4    4   13      1.43      0.00
   -4    4   12     -0.90      0.00
   -4    4   11     -2.95      0.00
   -4    4   10      0.69      0.00
   -4    4    9     -0.53      0.00
   -4    4    8     -1.04      0.00
   -4    4    7     -1.73      0.00
   -4    4    6      2.03      0.00
   -4    4    5      2.68      0.00
   -4    4    4     19.93      0.00
   -4    4    3      4.90      0.00
   -4    4    2     -0.05      0.00
   -4    4    1     -3.39      0.00
   -4    4    0     -0.26      0.00
    4   -4    1    -11.57      0.00
    4   -4    2      9.92      0.00
    4   -4    3    -15.80      0.00
    4   -4    4    -11.03      0.00
    4   -4    5      2.92      0.00
    4   -4    6      4.38      0.00
    4   -4    7     -9.08      0.00
    4   -4    8      4.43      0.00
    4   -4    9    -11.06      0.00
    4   -4   10      2.78      0.00
    4   -4   11      3.08      0.00
    4   -4   12      1.45      0.00
    4   -4   13     -2.77      0.00
    4   -4   14      2.77      0.00
    4   -4   15      0.28      0.00
    4   -4   16      0.17      0.00
    4   -4   17     -1.41      0.00
    4   -4   18     -0.95      0.00
    4   -4   19      0.69      0.00
    4   -4   20      0.91      0.00
    4   -4   21     -1.57      0.00
    4   -4   22     -2.45      0.00
   -4    3   19      1.20      0.00
   -4    3   18      0.42      0.00
   -4    3   17     -0.36      0.00
   -4    3   16     -1.72      0.00
   -4    3   15     -0.05      0.00
   -4    3   14      0.39      0.00
   -4    3   13     -0.52      0.00
   -4    3   12      0.31      0.00
   -4    3   11      1.30      0.00
   -4    3   10      1.80      0.00
   -4    3    9     -1.41      0.00
   -4    3    8     -2.31      0.00
   -4    3    7      1.15      0.00
   -4    3    6      5.70      0.00
   -4    3    5     -2.64      0.00
   -4    3    4     -3.86      0.00
   -4    3    3    -23.18      0.00
   -4    3    2      6.09      0.00
   -4    3    1     15.19      0.00
   -4    3    0     -0.34      0.00
    4   -3    1    -11.05      0.00
    4   -3    2     -9.78      0.00
    4   -3    3    -16.12      0.00
    4   -3    4     11.49      0.00
    4   -3    5     -0.80      0.00
    4   -3    6    -13.98      0.00
    4   -3    7     -6.35      0.00
    4   -3    8      1.47      0.00
    4   -3    9      8.36      0.00
    4   -3   10      4.38      0.00
    4   -3   11      0.46      0.00
    4   -3   12     -1.00      0.00
    4   -3   13      2.22      0.00
    4   -3   14      2.87      0.00
    4   -3   15     -1.37      0.00
    4   -3   16     -2.36      0.00
    4   -3   17      0.02      0.00
    4   -3   18     -1.01      0.00
    4   -3   19     -0.77      0.00
    4   -3   20     -1.09      0.00
    4   -3   21     -0.44      0.00
    4   -3   22      0.87      0.00
    4   -3   23      0.45      0.00
   -4    2   19     -0.66      0.00
   -4    2   18     -0.93      0.00
   -4    2   17      0.23      0.00
   -4    2   16      0.15      0.00
   -4    2   15     -0.28      0.00
   -4    2   14      0.44      0.00
   -4    2   13     -0.01      0.00
   -4    2   12     -0.26      0.00
   -4    2   11     -1.16      0.00
   -4    2   10     -0.20      0.00
   -4    2    9     -2.30      0.00
   -4    2    8      6.01      0.00
   -4    2    7     -1.01      0.00
   -4    2    6     -1.32      0.00
   -4    2    5     -9.68      0.00
   -4    2    4     -6.62      0.00
   -4    2    3    -13.17      0.00
   -4    2    2      2.93      0.00
   -4    2    1     -5.74      0.00
   -4    2    0    -20.18      0.00
    4   -2    1      5.40      0.00
    4   -2    2      9.82      0.00
    4   -2    3     18.79      0.00
    4   -2    4     -0.58      0.00
    4   -2    5      8.64      0.00
    4   -2    6     -6.35      0.00
    4   -2    7     25.20      0.00
    4   -2    8      8.56      0.00
    4   -2    9     -1.49      0.00
    4   -2   10     -1.89      0.00
    4   -2   11      1.87      0.00
    4   -2   12     -2.33      0.00
    4   -2   13      4.07      0.00
    4   -2   14     -3.81      0.00
    4   -2   15     -1.99      0.00
    4   -2   16     -0.24      0.00
    4   -2   17      1.32      0.00
    4   -2   18     -2.06      0.00
    4   -2   19      0.56      0.00
    4   -2   20      0.58      0.00
    4   -2   21      1.55      0.00
    4   -2   22      2.52      0.00
    4   -2   23     -1.20      0.00
   -4    1   19      1.07      0.00
   -4    1   18      0.66      0.00
   -4    1   17     -0.35      0.00
   -4    1   16     -1.44      0.00
   -4    1   15      0.38      0.00
   -4    1   14      0.51      0.00
   -4    1   13      0.11      0.00
   -4    1   12     -0.05      0.00
   -4    1   11     -1.64      0.00
   -4    1   10      1.10      0.00
   -4    1    9     -1.80      0.00
   -4    1    8      0.02      0.00
   -4    1    7     -4.08      0.00
   -4    1    6     -1.13      0.00
   -4    1    5      3.41      0.00
   -4    1    4      1.85      0.00
   -4    1    3     -9.71      0.00
   -4    1    2     -1.10      0.00
   -4    1    1     -4.42      0.00
   -4    1    0      7.38      0.00
    4   -1    1     36.46      0.00
    4   -1    2    -28.19      0.00
    4   -1    3      6.16      0.00
    4   -1    4     -0.45      0.00
    4   -1    5     18.21      0.00
    4   -1    6      1.09      0.00
    4   -1    7     14.23      0.00
    4   -1    8    -18.10      0.00
    4   -1    9      0.35      0.00
    4   -1   10     -2.09      0.00
    4   -1   11      2.83      0.00
    4   -1   12     -3.40      0.00
    4   -1   13     -2.65      0.00
    4   -1   14     -1.12      0.00
    4   -1   15      0.24      0.00
    4   -1   16      0.15      0.00
    4   -1   17     -0.22      0.00
    4   -1   18     -0.99      0.00
    4   -1   19      1.24      0.00
    4   -1   20      0.50      0.00
    4   -1   21     -0.01      0.00
    4   -1   22     -1.53      0.00
    4   -1   23      0.88      0.00
   -4    0   19      1.30      0.00
   -4    0   18     -0.40      0.00
   -4    0   17      0.50      0.00
   -4    0   16      0.54      0.00
   -4    0   15     -0.17      0.00
   -4    0   14      0.09      0.00
   -4    0   13     -0.43      0.00
   -4    0   12     -0.78      0.00
   -4    0   11     -0.45      0.00
   -4    0   10     -4.27      0.00
   -4    0    9     -1.39      0.00
   -4    0    8     -1.12      0.00
   -4    0    7     -6.23      0.00
   -4    0    6      0.67      0.00
   -4    0    5      5.82      0.00
   -4    0    4      1.61      0.00
   -4    0    3     13.22      0.00
   -4    0    2     14.45      0.00
   -4    0    1     28.98      0.00
    4    0    0      7.92      0.00
    4    0    1     16.94      0.00
    4    0    2    -59.58      0.00
    4    0    3    -28.72      0.00
    4    0    4    -16.67      0.00
    4    0    5      7.63      0.00
    4    0    6     -7.81      0.00
    4    0    7      1.80      0.00
    4    0    8    -16.49      0.00
    4    0    9     10.49      0.00
    4    0   10      4.82      0.00
    4    0   11     -7.35      0.00
    4    0   12     -3.07      0.00
    4    0   13      2.94      0.00
    4    0   14     -0.60      0.00
    4    0   15      2.89      0.00
    4    0   16      0.49      0.00
    4    0   17     -1.05      0.00
    4    0   18      1.60      0.00
    4    0   19     -0.69      0.00
    4    0   20      0.48      0.00
    4    0   21     -0.60      0.00
    4    0   22      2.47      0.00
    4    0   23     -0.57      0.00
   -4   -1   19      0.14      0.00
   -4   -1   18     -0.76      0.00
   -4   -1   17     -0.73      0.00
   -4   -1   16     -3.30      0.00
   -4   -1   15      0.28      0.00
   -4   -1   14     -1.25      0.00
   -4   -1   13     -0.78      0.00
   -4   -1   12     -1.93      0.00
   -4   -1   11      0.00      0.00
   -4   -1   10     -0.01      0.00
   -4   -1    9      4.57      0.00
   -4   -1    8      0.46      0.00
   -4   -1    7      3.00      0.00
   -4   -1    6      6.44      0.00
   -4   -1    5      6.26      0.00
   -4   -1    4      4.94      0.00
   -4   -1    3      4.36      0.00
   -4   -1    2    -16.96      0.00
   -4   -1    1    -15.15      0.00
    4    1    0      8.90      0.00
    4    1    1     -7.56      0.00
    4    1    2    -39.48      0.00
    4    1    3     17.22      0.00
    4    1    4    -50.87      0.00
    4    1    5     -7.28      0.00
    4    1    6    -16.88      0.00
    4    1    7     -4.54      0.00
    4    1    8     -6.65      0.00
    4    1    9      1.39      0.00
    4    1   10     -1.02      0.00
    4    1   11      4.91      0.00
    4    1   12      5.47      0.00
    4    1   13      1.64      0.00
    4    1   14      1.98      0.00
    4    1   15     -0.41      0.00
    4    1   16      1.74      0.00
    4    1   17     -1.64      0.00
    4    1   18      1.63      0.00
    4    1   19     -0.86      0.00
    4    1   20      0.71      0.00
    4    1   21     -1.46      0.00
    4    1   22     -0.34      0.00
    4    1   23      0.01      0.00
   -4   -2   19      0.75      0.00
   -4   -2   18     -0.92      0.00
   -4   -2   17     -0.27      0.00
   -4   -2   16     -0.45      0.00
   -4   -2   15      0.14      0.00
   -4   -2   14     -0.90      0.00
   -4   -2   13      0.63      0.00
   -4   -2   12      1.52      0.00
   -4   -2   11      2.33      0.00
   -4   -2   10      0.59      0.00
   -4   -2    9      3.12      0.00
   -4   -2    8      1.25      0.00
   -4   -2    7      3.11      0.00
   -4   -2    6      3.28      0.00
   -4   -2    5    -10.90      0.00
   -4   -2    4    -10.64      0.00
   -4   -2    3      3.99      0.00
   -4   -2    2      2.47      0.00
   -4   -2    1     -5.71      0.00
    4    2    0    -24.76      0.00
    4    2    1     -5.65      0.00
    4    2    2    -25.31      0.00
    4    2    3    -13.82      0.00
    4    2    4    -26.84      0.00
    4    2    5    -16.39      0.00
    4    2    6      7.93      0.00
    4    2    7     -5.71      0.00
    4    2    8      7.34      0.00
    4    2    9      3.72      0.00
    4    2   10      0.75      0.00
    4    2   11      3.25      0.00
    4    2   12     10.71      0.00
    4    2   13     -0.78      0.00
    4    2   14      2.14      0.00
    4    2   15     -1.08      0.00
    4    2   16      0.50      0.00
    4    2   17      2.37      0.00
    4    2   18      1.96      0.00
    4    2   19     -1.95      0.00
    4    2   20     -1.83      0.00
    4    2   21     -0.46      0.00
    4    2   22     -0.27      0.00
    4    2   23      1.46      0.00
    4    2   24     -1.85      0.00
   -4   -3   19     -0.55      0.00
   -4   -3   18      1.43      0.00
   -4   -3   17      2.08      0.00
   -4   -3   16      1.25      0.00
   -4   -3   15      1.16      0.00
   -4   -3   14      0.00      0.00
   -4   -3   13      2.64      0.00
   -4   -3   12      1.40      0.00
   -4   -3   11     -1.04      0.00
   -4   -3   10     -1.61      0.00
   -4   -3    9      1.67      0.00
   -4   -3    8      3.79      0.00
   -4   -3    7      2.06      0.00
   -4   -3    6     -3.96      0.00
   -4   -3    5     -5.99      0.00
   -4   -3    4     15.39      0.00
   -4   -3    3     -5.45      0.00
   -4   -3    2     -8.12      0.00
   -4   -3    1    -21.26      0.00
    4    3    0     -8.41      0.00
    4    3    1    -28.40      0.00
    4    3    2     51.47      0.00
    4    3    3     -0.99      0.00
    4    3    4    -11.85      0.00
    4    3    5      2.98      0.00
    4    3    6     23.58      0.00
    4    3    7      9.71      0.00
    4    3    8     14.65      0.00
    4    3    9     -6.00      0.00
    4    3   10      2.85      0.00
    4    3   11      2.38      0.00
    4    3   12      0.63      0.00
    4    3   13     -4.21      0.00
    4    3   14     -1.28      0.00
    4    3   15     -0.46      0.00
    4    3   16      1.05      0.00
    4    3   17     -0.55      0.00
    4    3   18     -0.08      0.00
    4    3   19     -1.76      0.00
    4    3   20      1.09      0.00
    4    3   21     -0.49      0.00
    4    3   22     -0.45      0.00
    4    3   23     -0.12      0.00
    4    3   24      1.34      0.00
   -4   -4   19     -0.06      0.00
   -4   -4   18      0.16      0.00
   -4   -4   17     -0.81      0.00
   -4   -4   16      1.39      0.00
   -4   -4   15      0.52      0.00
   -4   -4   14      0.59      0.00
   -4   -4   13     -0.83      0.00
   -4   -4   12     -0.91      0.00
   -4   -4   11      0.09      0.00
   -4   -4   10      0.79      0.00
   -4   -4    9     -1.51      0.00
   -4   -4    8     -5.27      0.00
   -4   -4    7     -1.55      0.00
   -4   -4    6      2.89      0.00
   -4   -4    5     -6.98      0.00
   -4   -4    4     11.45      0.00
   -4   -4    3    -13.72      0.00
   -4   -4    2      7.79      0.00
   -4   -4    1    -12.64      0.00
    4    4    0     24.23      0.00
    4    4    1     -6.90      0.00
    4    4    2     -4.80      0.00
    4    4    3     -8.77      0.00
    4    4    4      9.68      0.00
    4    4    5     14.47      0.00
    4    4    6      1.89      0.00
    4    4    7     -0.25      0.00
    4    4    8      6.60      0.00
    4    4    9      0.14      0.00
    4    4   10     -2.52      0.00
    4    4   11      2.32      0.00
    4    4   12     -6.22      0.00
    4    4   13     -2.88      0.00
    4    4   14      1.64      0.00
    4    4   15     -1.27      0.00
    4    4   16     -2.15      0.00
    4    4   17     -0.18      0.00
    4    4   18      0.30      0.00
    4    4   19      1.01      0.00
    4    4   20     -0.40      0.00
    4    4   21      0.45      0.00
    4    4   22     -2.15      0.00
    4    4   23      1.90      0.00
    4    4   24     -0.62      0.00
   -4   -5   19      0.27      0.00
   -4   -5   18      0.01      0.00
   -4   -5   17      0.56      0.00
   -4   -5   16     -1.23      0.00
   -4   -5   15     -1.57      0.00
   -4   -5   14     -1.31      0.00
   -4   -5   13     -0.47      0.00
   -4   -5   12      1.45      0.00
   -4   -5   11     -0.49      0.00
   -4   -5   10     -0.97      0.00
   -4   -5    9     -4.50      0.00
   -4   -5    8      0.90      0.00
   -4   -5    7     -0.68      0.00
   -4   -5    6      3.12      0.00
   -4   -5    5     -3.59      0.00
   -4   -5    4      2.56      0.00
   -4   -5    3    -11.45      0.00
   -4   -5    2     30.43      0.00
   -4   -5    1     16.61      0.00
    4    5    0    -12.28      0.00
    4    5    1      0.00      0.00
    4    5    2      6.96      0.00
    4    5    3      4.94      0.00
    4    5    4      7.50      0.00
    4    5    5      8.63      0.00
    4    5    6    -24.93      0.00
    4    5    7      5.88      0.00
    4    5    8     -2.12      0.00
    4    5    9      1.67      0.00
    4    5   10     -6.33      0.00
    4    5   11     -3.44      0.00
    4    5   12     -2.18      0.00
    4    5   13      4.65      0.00
    4    5   14     -0.67      0.00
    4    5   15     -1.49      0.00
    4    5   16     -0.53      0.00
    4    5   17      2.06      0.00
    4    5   18      1.20      0.00
    4    5   19      1.09      0.00
    4    5   20     -1.02      0.00
    4    5   21      0.78      0.00
    4    5   22      1.99      0.00
    4    5   23      1.32      0.00
    4    5   24      1.04      0.00
   -4   -6   18      0.81      0.00
   -4   -6   17     -0.73      0.00
   -4   -6   16     -0.41      0.00
   -4   -6   15     -1.39      0.00
   -4   -6   14      0.23      0.00
   -4   -6   13      0.69      0.00
   -4   -6   12     -1.54      0.00
   -4   -6   11      0.92      0.00
   -4   -6   10     -0.55      0.00
   -4   -6    9      0.36      0.00
   -4   -6    8      4.34      0.00
   -4   -6    7      1.89      0.00
   -4   -6    6     -0.02      0.00
   -4   -6    5     -2.13      0.00
   -4   -6    4      3.87      0.00
   -4   -6    3     -2.20      0.00
   -4   -6    2     -2.38      0.00
   -4   -6    1     -7.47      0.00
    4    6    0     -7.44      0.00
    4    6    1      0.35      0.00
    4    6    2     -0.82      0.00
    4    6    3      7.10      0.00
    4    6    4     -7.08      0.00
    4    6    5     -5.55      0.00
    4    6    6     -8.91      0.00
    4    6    7     10.54      0.00
    4    6    8     -3.00      0.00
    4    6    9     -4.26      0.00
    4    6   10     -0.31      0.00
    4    6   11      2.80      0.00
    4    6   12      0.29      0.00
    4    6   13      3.02      0.00
    4    6   14     -1.44      0.00
    4    6   15      0.15      0.00
    4    6   16      1.09      0.00
    4    6   17     -0.56      0.00
    4    6   18      0.38      0.00
    4    6   19      0.52      0.00
    4    6   20      0.63      0.00
    4    6   21      0.76      0.00
    4    6   22      0.69      0.00
    4    6   23      1.13      0.00
    4    6   24      0.85      0.00
   -4   -7   18      1.31      0.00
   -4   -7   17     -1.06      0.00
   -4   -7   16      0.88      0.00
   -4   -7   15      2.17      0.00
   -4   -7   14      1.47      0.00
   -4   -7   13     -0.77      0.00
   -4   -7   12      0.28      0.00
   -4   -7   11     -0.72      0.00
   -4   -7   10     -1.22      0.00
   -4   -7    9      0.59      0.00
   -4   -7    8     -0.37      0.00
   -4   -7    7      0.04      0.00
   -4   -7    6      1.57      0.00
   -4   -7    5      6.00      0.00
   -4   -7    4     -4.44      0.00
   -4   -7    3      0.72      0.00
   -4   -7    2     -0.48      0.00
   -4   -7    1    -11.27      0.00
    4    7    0      2.19      0.00
    4    7    1      2.65      0.00
    4    7    2    -14.81      0.00
    4    7    3     -6.15      0.00
    4    7    4      4.51      0.00
    4    7    5      6.25      0.00
    4    7    6      3.45      0.00
    4    7    7      2.03      0.00
    4    7    8     -5.93      0.00
    4    7    9      6.02      0.00
    4    7   10      3.55      0.00
    4    7   11      1.09      0.00
    4    7   12     -0.29      0.00
    4    7   13     -0.16      0.00
    4    7   14      1.86      0.00
    4    7   15      0.84      0.00
    4    7   16      0.55      0.00
    4    7   17      0.88      0.00
    4    7   18      0.72      0.00
    4    7   19     -0.03      0.00
    4    7   20      0.00      0.00
    4    7   21     -1.28      0.00
    4    7   22      0.83      0.00
   -4   -8   18     -0.33      0.00
   -4   -8   17     -0.60      0.00
   -4   -8   16     -1.14      0.00
   -4   -8   15      1.23      0.00
   -4   -8   14      0.12      0.00
   -4   -8   13      0.81      0.00
   -4   -8   12     -0.60      0.00
   -4   -8   11      1.49      0.00
   -4   -8   10     -0.45      0.00
   -4   -8    9      0.69      0.00
   -4   -8    8     -1.45      0.00
   -4   -8    7     -0.26      0.00
   -4   -8    6     -1.18      0.00
   -4   -8    5      1.01      0.00
   -4   -8    4     -1.52      0.00
   -4   -8    3     -6.56      0.00
   -4   -8    2      0.23      0.00
   -4   -8    1     -3.42      0.00
    4    8    0      0.89      0.00
    4    8    1      3.96      0.00
    4    8    2     -8.81      0.00
    4    8    3      7.90      0.00
    4    8    4      1.57      0.00
    4    8    5      1.06      0.00
    4    8    6      1.91      0.00
    4    8    7      1.94      0.00
    4    8    8     -3.01      0.00
    4    8    9      6.80      0.00
    4    8   10      1.96      0.00
    4    8   11     -5.22      0.00
    4    8   12     -0.05      0.00
    4    8   13     -0.87      0.00
    4    8   14     -0.44      0.00
    4    8   15     -0.10      0.00
    4    8   16     -0.74      0.00
    4    8   17     -0.51      0.00
    4    8   18      0.79      0.00
    4    8   19      0.21      0.00
    4    8   20      0.43      0.00
    4    8   21     -0.42      0.00
    4    8   22     -0.53      0.00
   -4   -9   18     -0.40      0.00
   -4   -9   17      0.45      0.00
   -4   -9   16      0.71      0.00
   -4   -9   15     -0.87      0.00
   -4   -9   14      0.01      0.00
   -4   -9   13      0.34      0.00
   -4   -9   12     -0.25      0.00
   -4   -9   11     -0.54      0.00
   -4   -9   10     -1.08      0.00
   -4   -9    9      1.62      0.00
   -4   -9    8     -1.61      0.00
   -4   -9    7      0.53      0.00
   -4   -9    6      0.72      0.00
   -4   -9    5     -2.96      0.00
   -4   -9    4      0.26      0.00
   -4   -9    3      1.34      0.00
   -4   -9    2     -2.38      0.00
   -4   -9    1      0.36      0.00
    4    9    0      4.95      0.00
    4    9    1     -3.33      0.00
    4    9    2      4.68      0.00
    4    9    3     -0.10      0.00
    4    9    4      1.05      0.00
    4    9    5      1.90      0.00
    4    9    6      2.35      0.00
    4    9    7     -1.77      0.00
    4    9    8     -1.50      0.00
    4    9    9     -0.60      0.00
    4    9   10     -2.68      0.00
    4    9   11      0.63      0.00
    4    9   12     -0.48      0.00
    4    9   13     -1.36      0.00
    4    9   14      0.25      0.00
    4    9   15     -0.69      0.00
    4    9   16     -0.31      0.00
    4    9   17      1.71      0.00
    4    9   18     -0.17      0.00
    4    9   19      0.35      0.00
    4    9   20     -0.25      0.00
    4    9   21      0.53      0.00
    4    9   22      0.59      0.00
   -4  -10   17      0.27      0.00
   -4  -10   16      1.27      0.00
   -4  -10   15      0.15      0.00
   -4  -10   14      0.52      0.00
   -4  -10   13     -0.13      0.00
   -4  -10   12     -0.46      0.00
   -4  -10   11     -1.15      0.00
   -4  -10   10     -0.16      0.00
   -4  -10    9      1.24      0.00
   -4  -10    8     -0.93      0.00
   -4  -10    7      1.10      0.00
   -4  -10    6      0.67      0.00
   -4  -10    5     -0.64      0.00
   -4  -10    4      1.35      0.00
   -4  -10    3      1.32      0.00
   -4  -10    2      2.42      0.00
   -4  -10    1     -2.34      0.00
    4   10    0      4.76      0.00
    4   10    1     -4.27      0.00
    4   10    2      4.35      0.00
    4   10    5     -0.39      0.00
    4   10    6      2.67      0.00
    4   10    7     -3.73      0.00
    4   10    8      1.49      0.00
    4   10    9     -1.91      0.00
    4   10   10     -1.88      0.00
    4   10   11     -0.79      0.00
    4   10   12      0.27      0.00
    4   10   13     -1.87      0.00
    4   10   14      0.29      0.00
    4   10   15      0.18      0.00
    4   10   16      0.25      0.00
    4   10   17      0.98      0.00
    4   10   18     -0.10      0.00
    4   10   19      1.19      0.00
    4   10   20     -0.23      0.00
    4   10   21      0.40      0.00
    4   10   22      0.63      0.00
   -4  -11   17      1.29      0.00
   -4  -11   16      1.39      0.00
   -4  -11   15      0.25      0.00
   -4  -11   14     -0.85      0.00
   -4  -11   13     -0.81      0.00
   -4  -11   12     -0.59      0.00
   -4  -11   11     -0.92      0.00
   -4  -11   10      0.66      0.00
   -4  -11    9      0.01      0.00
   -4  -11    8      0.06      0.00
   -4  -11    7      0.58      0.00
   -4  -11    6     -0.18      0.00
   -4  -11    5     -0.10      0.00
   -4  -11    4      3.56      0.00
   -4  -11    3     -2.50      0.00
   -4  -11    2      0.82      0.00
   -4  -11    1     -2.33      0.00
    4   11    0      0.72      0.00
    4   11    1      0.01      0.00
    4   11    2      2.85      0.00
    4   11    6     -1.39      0.00
    4   11    7     -0.97      0.00
    4   11    8      0.22      0.00
    4   11    9     -1.69      0.00
    4   11   10      0.33      0.00
    4   11   11      1.36      0.00
    4   11   12     -0.62      0.00
    4   11   13     -0.81      0.00
    4   11   14      0.34      0.00
    4   11   15     -0.07      0.00
    4   11   16      0.79      0.00
    4   11   17     -0.24      0.00
    4   11   18     -1.03      0.00
    4   11   19     -0.01      0.00
    4   11   20      0.92      0.00
   -4  -12   16     -0.09      0.00
   -4  -12   15      0.27      0.00
   -4  -12   14     -0.94      0.00
   -4  -12   13     -0.75      0.00
   -4  -12   12      0.35      0.00
   -4  -12   11      0.05      0.00
   -4  -12   10      0.50      0.00
   -4  -12    9      0.75      0.00
   -4  -12    8     -0.12      0.00
   -4  -12    7      1.46      0.00
   -4  -12    6     -0.11      0.00
   -4  -12    5      0.49      0.00
   -4  -12    4      0.91      0.00
   -4  -12    3     -2.65      0.00
   -4  -12    2     -0.24      0.00
   -4  -12    1     -0.30      0.00
    4   12    0     -1.73      0.00
    4   12    1     -0.49      0.00
    4   12    7     -0.07      0.00
    4   12    8      1.59      0.00
    4   12    9     -1.33      0.00
    4   12   10      0.97      0.00
    4   12   11      0.74      0.00
    4   12   12     -0.51      0.00
    4   12   13     -0.89      0.00
    4   12   14     -0.11      0.00
    4   12   15      1.11      0.00
    4   12   16      0.43      0.00
    4   12   17      0.30      0.00
    4   12   18      0.06      0.00
    4   12   19      1.04      0.00
    4   12   20      0.94      0.00
   -4  -13   15      0.00      0.00
   -4  -13   14      0.43      0.00
   -4  -13   13     -0.73      0.00
   -4  -13   12     -0.13      0.00
   -4  -13   11     -0.43      0.00
   -4  -13   10      0.16      0.00
   -4  -13    9     -0.57      0.00
   -4  -13    8      0.68      0.00
   -4  -13    7      0.62      0.00
   -4  -13    6     -0.67      0.00
   -4  -13    5      0.09      0.00
   -4  -13    4     -1.23      0.00
   -4  -13    3     -0.04      0.00
   -4  -13    2      0.54      0.00
   -4  -13    1     -1.12      0.00
    4   13    0      0.24      0.00
    4   13    1      0.45      0.00
    4   13    7      2.85      0.00
    4   13    8      0.16      0.00
    4   13    9     -0.67      0.00
    4   13   10     -0.39      0.00
    4   13   11     -1.02      0.00
    4   13   12     -0.83      0.00
    4   13   13      1.16      0.00
    4   13   14     -0.72      0.00
    4   13   15     -0.98      0.00
    4   13   16     -0.16      0.00
    4   13   17     -0.07      0.00
    4   13   18      0.09      0.00
    4   13   19     -0.62      0.00
    4   13   20     -1.13      0.00
   -4  -14   12      0.82      0.00
   -4  -14   11     -0.52      0.00
   -4  -14   10      0.27      0.00
   -4  -14    9      0.20      0.00
   -4  -14    8     -0.77      0.00
   -4  -14    7      0.33      0.00
   -4  -14    6     -0.90      0.00
   -4  -14    5      0.61      0.00
   -4  -14    4      0.19      0.00
   -4  -14    3      0.49      0.00
   -4  -14    2      0.56      0.00
   -4  -14    1      0.61      0.00
    4   14    0      0.25      0.00
    4   14    1      2.44      0.00
    4   14    8     -2.27      0.00
    4   14    9     -0.98      0.00
    4   14   10      0.47      0.00
    4   14   11      1.92      0.00
    4   14   12      1.23      0.00
    4   14   13      0.66      0.00
    4   14   14     -1.50      0.00
    4   14   15      0.83      0.00
    4   14   16     -0.02      0.00
    4   14   17      1.57      0.00
    4   14   18     -1.93      0.00
    4   14   19     -0.80      0.00
    4   14   20     -0.87      0.00
   -4  -15   12     -0.53      0.00
   -4  -15   11     -0.40      0.00
   -4  -15   10     -1.37      0.00
   -4  -15    9      0.13      0.00
   -4  -15    8     -0.07      0.00
   -4  -15    7     -0.52      0.00
   -4  -15    6     -0.50      0.00
   -4  -15    5     -0.76      0.00
   -4  -15    4      0.08      0.00
   -4  -15    3     -0.09      0.00
   -4  -15    2      0.23      0.00
   -4  -15    1      0.50      0.00
    4   15    0      1.02      0.00
    4   15    9      0.03      0.00
    4   15   10      0.99      0.00
    4   15   11     -0.88      0.00
    4   15   12      0.99      0.00
    4   15   13     -0.10      0.00
    4   15   14      0.70      0.00
    4   15   15      0.51      0.00
    4   15   16      0.17      0.00
    4   15   17     -2.40      0.00
    4   15   18     -1.07      0.00
    4   15   19     -1.69      0.00
   -4  -16   14     -0.06      0.00
   -4  -16   13     -0.62      0.00
   -4  -16   11     -0.59      0.00
   -4  -16   10      1.76      0.00
   -4  -16    9      0.37      0.00
   -4  -16    8      0.39      0.00
   -4  -16    7      0.98      0.00
   -4  -16    6      0.66      0.00
   -4  -16    5      0.06      0.00
   -4  -16    4      0.20      0.00
   -4  -16    3     -0.52      0.00
   -4  -16    2     -0.79      0.00
   -4  -16    1     -1.62      0.00
    4   16    0     -1.86      0.00
    4   16   10      1.95      0.00
    4   16   11     -0.21      0.00
    4   16   12     -0.08      0.00
    4   16   13      1.36      0.00
    4   16   14      0.43      0.00
    4   16   15      0.98      0.00
    4   16   17     -0.22      0.00
    4   16   18     -0.60      0.00
   -4  -17   14      0.18      0.00
   -4  -17   13      0.42      0.00
   -4  -17   12      0.44      0.00
   -4  -17   11      1.49      0.00
   -4  -17    7     -1.48      0.00
   -4  -17    6      0.01      0.00
   -4  -17    5     -0.84      0.00
   -4  -17    4      0.10      0.00
   -4  -17    3     -0.20      0.00
   -4  -17    2      1.09      0.00
   -4  -17    1      0.36      0.00
    4   17   11      0.09      0.00
    4   17   12     -2.12      0.00
    4   17   15     -0.94      0.00
   -4  -18   13      3.18      0.00
   -4  -18   12      4.35      0.00
   -4  -18   11      2.69      0.00
   -4  -18   10      2.18      0.00
   -4  -18    5     -0.08      0.00
   -4  -18    4      1.32      0.00
   -4  -18    3      0.49      0.00
   -4  -18    2      1.18      0.00
   -4  -18    1     -0.84      0.00
   -4  -19    3      0.97      0.00
   -4  -20    6      1.73      0.00
   -4  -20    5      0.30      0.00
   -5   18    8     -0.32      0.00
   -5   18    1     -0.97      0.00
   -5   18    0      0.37      0.00
    5  -18    5      0.39      0.00
   -5   17    5      0.02      0.00
   -5   17    3      0.11      0.00
   -5   17    0      1.03      0.00
    5  -17    1     -0.04      0.00
    5  -17    2      1.36      0.00
    5  -17    3     -1.03      0.00
    5  -17    4      0.51      0.00
    5  -17    5     -0.43      0.00
    5  -17    6      1.07      0.00
    5  -17    7     -0.26      0.00
    5  -17    8      1.18      0.00
    5  -17    9      1.14      0.00
    5  -17   14      1.17      0.00
   -5   16    9      0.78      0.00
   -5   16    8      1.12      0.00
   -5   16    7     -0.23      0.00
   -5   16    6      0.08      0.00
   -5   16    5      0.35      0.00
   -5   16    4     -0.21      0.00
   -5   16    3      0.23      0.00
   -5   16    2      0.62      0.00
   -5   16    1      0.53      0.00
   -5   16    0      1.74      0.00
    5  -16    1      0.31      0.00
    5  -16    2      1.10      0.00
    5  -16    3      0.23      0.00
    5  -16    4      0.19      0.00
    5  -16    5      0.50      0.00
    5  -16    6      0.61      0.00
    5  -16    7     -0.10      0.00
    5  -16    8     -0.58      0.00
    5  -16    9     -0.43      0.00
    5  -16   10     -0.39      0.00
    5  -16   11     -1.61      0.00
   -5   15   12      0.49      0.00
   -5   15   10      0.29      0.00
   -5   15    9      0.29      0.00
   -5   15    8      0.43      0.00
   -5   15    7     -1.46      0.00
   -5   15    6     -1.34      0.00
   -5   15    5      1.15      0.00
   -5   15    4      0.46      0.00
   -5   15    3     -0.71      0.00
   -5   15    2      1.75      0.00
   -5   15    1     -0.71      0.00
   -5   15    0      0.34      0.00
    5  -15    1     -1.60      0.00
    5  -15    2     -0.02      0.00
    5  -15    3     -0.12      0.00
    5  -15    4      1.74      0.00
    5  -15    5      0.32      0.00
    5  -15    6      1.03      0.00
    5  -15    7      0.00      0.00
    5  -15    8     -0.22      0.00
    5  -15    9     -2.00      0.00
    5  -15   10     -0.84      0.00
    5  -15   11      0.54      0.00
    5  -15   12     -0.57      0.00
    5  -15   13     -0.32      0.00
    5  -15   14     -1.28      0.00
    5  -15   15      0.77      0.00
   -5   14   13     -0.86      0.00
   -5   14   12     -1.45      0.00
   -5   14   11      1.56      0.00
   -5   14   10     -0.09      0.00
   -5   14    9      0.46      0.00
   -5   14    8      1.49      0.00
   -5   14    7      0.09      0.00
   -5   14    6      0.04      0.00
   -5   14    5      0.25      0.00
   -5   14    4     -0.96      0.00
   -5   14    3      0.91      0.00
   -5   14    2     -0.36      0.00
   -5   14    1     -0.69      0.00
   -5   14    0      0.17      0.00
    5  -14    1     -0.03      0.00
    5  -14    2      0.68      0.00
    5  -14    3      0.16      0.00
    5  -14    4      0.23      0.00
    5  -14    5      1.32      0.00
    5  -14    6     -0.71      0.00
    5  -14    7     -0.11      0.00
    5  -14    8     -0.99      0.00
    5  -14    9     -0.81      0.00
    5  -14   10      0.39      0.00
    5  -14   11     -1.32      0.00
    5  -14   12      0.73      0.00
    5  -14   13     -2.87      0.00
    5  -14   14      0.07      0.00
    5  -14   15     -2.44      0.00
   -5   13   14     -0.26      0.00
   -5   13   13      0.27      0.00
   -5   13   12     -0.34      0.00
   -5   13   11     -0.54      0.00
   -5   13   10      1.11      0.00
   -5   13    9      0.03      0.00
   -5   13    8      0.07      0.00
   -5   13    7     -0.57      0.00
   -5   13    6      0.98      0.00
   -5   13    5      0.75      0.00
   -5   13    4      0.15      0.00
   -5   13    3     -0.81      0.00
   -5   13    2      1.01      0.00
   -5   13    1      0.68      0.00
   -5   13    0     -0.20      0.00
    5  -13    1     -0.35      0.00
    5  -13    2     -0.42      0.00
    5  -13    3      1.20      0.00
    5  -13    4      1.59      0.00
    5  -13    5     -0.02      0.00
    5  -13    6      1.11      0.00
    5  -13    7     -0.16      0.00
    5  -13    8      0.18      0.00
    5  -13    9      0.91      0.00
    5  -13   10      1.71      0.00
    5  -13   11      1.44      0.00
    5  -13   12      1.11      0.00
    5  -13   13      1.90      0.00
    5  -13   14     -1.04      0.00
    5  -13   15     -1.60      0.00
    5  -13   16     -1.68      0.00
    5  -13   17     -0.48      0.00
   -5   12   15     -1.06      0.00
   -5   12   14     -1.28      0.00
   -5   12   13     -1.02      0.00
   -5   12   12     -1.13      0.00
   -5   12   11     -0.20      0.00
   -5   12   10     -0.37      0.00
   -5   12    9     -1.82      0.00
   -5   12    8      0.99      0.00
   -5   12    7      0.61      0.00
   -5   12    6      1.19      0.00
   -5   12    5     -0.57      0.00
   -5   12    4     -0.59      0.00
   -5   12    3      1.48      0.00
   -5   12    2      0.22      0.00
   -5   12    1     -2.43      0.00
   -5   12    0     -0.38      0.00
    5  -12    1     -0.85      0.00
    5  -12    2     -0.33      0.00
    5  -12    3      1.54      0.00
    5  -12    4     -1.11      0.00
    5  -12    5     -0.43      0.00
    5  -12    6     -0.47      0.00
    5  -12    7      1.53      0.00
    5  -12    8     -0.22      0.00
    5  -12    9      0.39      0.00
    5  -12   10     -0.27      0.00
    5  -12   11      0.61      0.00
    5  -12   12      1.39      0.00
    5  -12   13     -0.98      0.00
    5  -12   14      0.04      0.00
    5  -12   15     -0.78      0.00
    5  -12   16      1.13      0.00
    5  -12   17      0.95      0.00
    5  -12   18     -0.09      0.00
   -5   11   17     -0.81      0.00
   -5   11   16     -0.32      0.00
   -5   11   15      1.31      0.00
   -5   11   14     -1.48      0.00
   -5   11   13      1.25      0.00
   -5   11   12      0.09      0.00
   -5   11   11     -0.72      0.00
   -5   11   10      0.45      0.00
   -5   11    9      1.60      0.00
   -5   11    8      0.00      0.00
   -5   11    7     -0.86      0.00
   -5   11    6      0.45      0.00
   -5   11    5      0.94      0.00
   -5   11    4     -0.07      0.00
   -5   11    3      1.40      0.00
   -5   11    2     -2.29      0.00
   -5   11    1     -0.14      0.00
   -5   11    0     -0.03      0.00
    5  -11    1      2.32      0.00
    5  -11    2     -0.73      0.00
    5  -11    3      0.97      0.00
    5  -11    4     -1.62      0.00
    5  -11    5      0.47      0.00
    5  -11    6      0.30      0.00
    5  -11    7     -0.04      0.00
    5  -11    8      0.07      0.00
    5  -11    9     -0.20      0.00
    5  -11   10      0.41      0.00
    5  -11   11      1.40      0.00
    5  -11   12      0.53      0.00
    5  -11   13     -0.78      0.00
    5  -11   14     -0.64      0.00
    5  -11   15      0.26      0.00
    5  -11   16     -0.27      0.00
    5  -11   17     -1.82      0.00
    5  -11   18     -0.74      0.00
    5  -11   19      0.32      0.00
   -5   10   17      0.72      0.00
   -5   10   16     -1.23      0.00
   -5   10   15     -1.35      0.00
   -5   10   14     -0.24      0.00
   -5   10   13     -0.45      0.00
   -5   10   12     -0.72      0.00
   -5   10   11      0.98      0.00
   -5   10   10     -0.56      0.00
   -5   10    9     -0.69      0.00
   -5   10    8     -0.43      0.00
   -5   10    7      0.27      0.00
   -5   10    6      0.22      0.00
   -5   10    5      0.01      0.00
   -5   10    4     -2.24      0.00
   -5   10    3      0.42      0.00
   -5   10    2     -1.92      0.00
   -5   10    1      1.11      0.00
   -5   10    0      1.56      0.00
    5  -10    1     -0.91      0.00
    5  -10    2      0.74      0.00
    5  -10    3      1.07      0.00
    5  -10    4      2.14      0.00
    5  -10    5      2.47      0.00
    5  -10    6      0.20      0.00
    5  -10    7     -2.36      0.00
    5  -10    8     -1.12      0.00
    5  -10    9      2.45      0.00
    5  -10   10     -0.84      0.00
    5  -10   11     -1.51      0.00
    5  -10   12     -1.62      0.00
    5  -10   13     -2.03      0.00
    5  -10   14     -0.12      0.00
    5  -10   15     -1.54      0.00
    5  -10   16     -0.35      0.00
    5  -10   17     -2.44      0.00
    5  -10   18      0.16      0.00
    5  -10   19     -0.42      0.00
   -5    9   16      0.72      0.00
   -5    9   15     -0.04      0.00
   -5    9   14      0.72      0.00
   -5    9   13      1.18      0.00
   -5    9   12     -0.42      0.00
   -5    9   11      0.40      0.00
   -5    9   10      0.07      0.00
   -5    9    9      1.75      0.00
   -5    9    8     -1.34      0.00
   -5    9    7      1.15      0.00
   -5    9    6     -2.06      0.00
   -5    9    5      1.15      0.00
   -5    9    4      0.81      0.00
   -5    9    3     -1.21      0.00
   -5    9    2      0.22      0.00
   -5    9    1      2.36      0.00
   -5    9    0      0.02      0.00
    5   -9    1     -0.14      0.00
    5   -9    2      4.53      0.00
    5   -9    3     -0.23      0.00
    5   -9    4      0.27      0.00
    5   -9    5     -0.57      0.00
    5   -9    6     -1.79      0.00
    5   -9    7     -0.78      0.00
    5   -9    8      1.25      0.00
    5   -9    9     -1.80      0.00
    5   -9   10     -0.48      0.00
    5   -9   11      0.72      0.00
    5   -9   12      0.59      0.00
    5   -9   13      0.53      0.00
    5   -9   14      0.29      0.00
    5   -9   15     -0.62      0.00
    5   -9   16      0.92      0.00
    5   -9   17      0.51      0.00
    5   -9   18      1.38      0.00
    5   -9   19     -0.15      0.00
    5   -9   20      0.99      0.00
   -5    8   17      1.23      0.00
   -5    8   16      0.25      0.00
   -5    8   15      0.13      0.00
   -5    8   14     -1.98      0.00
   -5    8   13     -0.76      0.00
   -5    8   12     -0.78      0.00
   -5    8   11      0.90      0.00
   -5    8   10     -0.34      0.00
   -5    8    9     -0.95      0.00
   -5    8    8      0.45      0.00
   -5    8    7      0.50      0.00
   -5    8    6      1.82      0.00
   -5    8    5     -2.52      0.00
   -5    8    4      2.49      0.00
   -5    8    3     -2.18      0.00
   -5    8    2      2.81      0.00
   -5    8    1      0.08      0.00
   -5    8    0      4.77      0.00
    5   -8    1     -0.62      0.00
    5   -8    2      2.03      0.00
    5   -8    3     -3.42      0.00
    5   -8    4      1.05      0.00
    5   -8    5     -2.16      0.00
    5   -8    6      0.09      0.00
    5   -8    7     -2.77      0.00
    5   -8    8      0.90      0.00
    5   -8    9     -0.27      0.00
    5   -8   10      1.40      0.00
    5   -8   11      0.95      0.00
    5   -8   12      0.36      0.00
    5   -8   13      1.07      0.00
    5   -8   14      1.01      0.00
    5   -8   15      0.68      0.00
    5   -8   16      0.54      0.00
    5   -8   17      0.01      0.00
    5   -8   18     -0.61      0.00
    5   -8   19     -0.81      0.00
    5   -8   20     -0.36      0.00
    5   -8   21      0.87      0.00
   -5    7   18      0.68      0.00
   -5    7   17     -1.77      0.00
   -5    7   16     -0.68      0.00
   -5    7   15     -0.55      0.00
   -5    7   14      0.84      0.00
   -5    7   13      1.13      0.00
   -5    7   12      0.82      0.00
   -5    7   11     -0.13      0.00
   -5    7   10      0.08      0.00
   -5    7    9     -0.33      0.00
   -5    7    8      4.50      0.00
   -5    7    7     -1.14      0.00
   -5    7    6     -3.13      0.00
   -5    7    5     -1.45      0.00
   -5    7    4      2.03      0.00
   -5    7    3      0.84      0.00
   -5    7    2      3.50      0.00
   -5    7    1     -3.68      0.00
   -5    7    0     -6.02      0.00
    5   -7    1      1.27      0.00
    5   -7    2      0.80      0.00
    5   -7    3     -8.16      0.00
    5   -7    4      3.02      0.00
    5   -7    5     -4.19      0.00
    5   -7    6     -1.90      0.00
    5   -7    7      1.48      0.00
    5   -7    8      0.61      0.00
    5   -7    9     -0.29      0.00
    5   -7   10      3.19      0.00
    5   -7   11      1.12      0.00
    5   -7   12      0.25      0.00
    5   -7   13      0.93      0.00
    5   -7   14      0.10      0.00
    5   -7   15      0.74      0.00
    5   -7   16      0.46      0.00
    5   -7   17      0.25      0.00
    5   -7   18     -0.45      0.00
    5   -7   19     -0.64      0.00
    5   -7   20      0.69      0.00
    5   -7   21     -0.11      0.00
    5   -7   22     -0.14      0.00
   -5    6   19      0.28      0.00
   -5    6   18      1.02      0.00
   -5    6   17      0.76      0.00
   -5    6   16      0.51      0.00
   -5    6   15     -0.04      0.00
   -5    6   14     -0.44      0.00
   -5    6   13     -0.59      0.00
   -5    6   12     -0.53      0.00
   -5    6   11      0.43      0.00
   -5    6   10      1.42      0.00
   -5    6    9      0.70      0.00
   -5    6    8     -0.85      0.00
   -5    6    7     -2.15      0.00
   -5    6    6     -2.74      0.00
   -5    6    5      2.52      0.00
   -5    6    4     -0.90      0.00
   -5    6    3     -1.47      0.00
   -5    6    2     -0.95      0.00
   -5    6    1     -3.16      0.00
   -5    6    0      1.85      0.00
    5   -6    1      1.72      0.00
    5   -6    2     -2.47      0.00
    5   -6    3      2.06      0.00
    5   -6    4      0.74      0.00
    5   -6    5      3.34      0.00
    5   -6    6      2.06      0.00
    5   -6    7      1.38      0.00
    5   -6    8     -3.46      0.00
    5   -6    9      2.54      0.00
    5   -6   10      1.06      0.00
    5   -6   11      0.14      0.00
    5   -6   12     -0.55      0.00
    5   -6   13      0.97      0.00
    5   -6   14     -2.07      0.00
    5   -6   15      1.03      0.00
    5   -6   16     -0.20      0.00
    5   -6   17      0.07      0.00
    5   -6   18      1.34      0.00
    5   -6   19      1.41      0.00
    5   -6   20     -0.18      0.00
    5   -6   21      0.32      0.00
    5   -6   22      0.17      0.00
   -5    5   18     -0.70      0.00
   -5    5   17     -1.54      0.00
   -5    5   16      0.38      0.00
   -5    5   15      1.83      0.00
   -5    5   14      1.05      0.00
   -5    5   13      1.01      0.00
   -5    5   12      0.92      0.00
   -5    5   11     -0.18      0.00
   -5    5   10     -1.78      0.00
   -5    5    9     -2.55      0.00
   -5    5    8      0.06      0.00
   -5    5    7     -0.98      0.00
   -5    5    6      2.67      0.00
   -5    5    5     -3.52      0.00
   -5    5    4    -10.48      0.00
   -5    5    3      1.85      0.00
   -5    5    2      2.58      0.00
   -5    5    1      1.74      0.00
   -5    5    0      2.40      0.00
    5   -5    1      3.61      0.00
    5   -5    2     -3.00      0.00
    5   -5    3     12.51      0.00
    5   -5    4      6.09      0.00
    5   -5    5     -5.55      0.00
    5   -5    6     -0.92      0.00
    5   -5    7      4.02      0.00
    5   -5    8     -4.53      0.00
    5   -5    9      6.36      0.00
    5   -5   10     -2.95      0.00
    5   -5   11      0.03      0.00
    5   -5   12     -1.61      0.00
    5   -5   13      1.72      0.00
    5   -5   14     -4.58      0.00
    5   -5   15     -0.78      0.00
    5   -5   16     -1.51      0.00
    5   -5   17      1.28      0.00
    5   -5   18      1.46      0.00
    5   -5   19      0.96      0.00
    5   -5   20      1.58      0.00
    5   -5   21      0.99      0.00
    5   -5   22      3.10      0.00
   -5    4   18      0.67      0.00
   -5    4   17     -0.13      0.00
   -5    4   16     -0.19      0.00
   -5    4   15     -0.19      0.00
   -5    4   14      0.58      0.00
   -5    4   13      0.90      0.00
   -5    4   12     -0.21      0.00
   -5    4   11     -1.89      0.00
   -5    4   10     -2.21      0.00
   -5    4    9     -2.31      0.00
   -5    4    8     -0.71      0.00
   -5    4    7      0.08      0.00
   -5    4    6     -4.23      0.00
   -5    4    5     -1.81      0.00
   -5    4    4      2.39      0.00
   -5    4    3     11.58      0.00
   -5    4    2      2.43      0.00
   -5    4    1     -3.89      0.00
   -5    4    0     -2.63      0.00
    5   -4    1      5.54      0.00
    5   -4    2      7.91      0.00
    5   -4    3     12.48      0.00
    5   -4    4     -8.49      0.00
    5   -4    5     -0.29      0.00
    5   -4    6     -0.01      0.00
    5   -4    7      1.73      0.00
    5   -4    8     -1.09      0.00
    5   -4    9     -5.81      0.00
    5   -4   10     -4.91      0.00
    5   -4   11     -1.35      0.00
    5   -4   12      1.60      0.00
    5   -4   13     -1.72      0.00
    5   -4   14     -1.35      0.00
    5   -4   15      1.09      0.00
    5   -4   16      0.94      0.00
    5   -4   17     -1.55      0.00
    5   -4   18      0.20      0.00
    5   -4   19     -1.40      0.00
    5   -4   20      1.46      0.00
    5   -4   21      0.21      0.00
    5   -4   22     -2.64      0.00
   -5    3   18      1.15      0.00
   -5    3   17      0.19      0.00
   -5    3   16     -0.85      0.00
   -5    3   15     -0.06      0.00
   -5    3   14      0.58      0.00
   -5    3   13     -0.04      0.00
   -5    3   12     -1.18      0.00
   -5    3   11      0.14      0.00
   -5    3   10     -0.73      0.00
   -5    3    9      1.08      0.00
   -5    3    8     -5.61      0.00
   -5    3    7     -0.47      0.00
   -5    3    6     -0.07      0.00
   -5    3    5      3.11      0.00
   -5    3    4     -1.62      0.00
   -5    3    3      1.09      0.00
   -5    3    2     -4.04      0.00
   -5    3    1     18.27      0.00
   -5    3    0     18.03      0.00
    5   -3    1     -1.76      0.00
    5   -3    2     -5.59      0.00
    5   -3    3    -11.86      0.00
    5   -3    4    -13.91      0.00
    5   -3    5     -3.53      0.00
    5   -3    6      2.22      0.00
    5   -3    7    -18.07      0.00
    5   -3    8     -5.30      0.00
    5   -3    9      3.67      0.00
    5   -3   10     -0.24      0.00
    5   -3   11      1.10      0.00
    5   -3   12      0.69      0.00
    5   -3   13     -2.30      0.00
    5   -3   14      4.61      0.00
    5   -3   15      1.83      0.00
    5   -3   16      0.29      0.00
    5   -3   17     -2.13      0.00
    5   -3   18      0.93      0.00
    5   -3   19     -0.72      0.00
    5   -3   20      1.21      0.00
    5   -3   21     -1.84      0.00
    5   -3   22      0.44      0.00
    5   -3   23      0.15      0.00
   -5    2   18     -0.87      0.00
   -5    2   17     -0.03      0.00
   -5    2   16      1.27      0.00
   -5    2   15     -0.65      0.00
   -5    2   14     -1.52      0.00
   -5    2   13      0.13      0.00
   -5    2   12     -0.53      0.00
   -5    2   11     -0.23      0.00
   -5    2   10     -0.60      0.00
   -5    2    9      0.86      0.00
   -5    2    8      0.85      0.00
   -5    2    7      3.97      0.00
   -5    2    6      2.70      0.00
   -5    2    5     -1.48      0.00
   -5    2    4     -4.32      0.00
   -5    2    3     -4.02      0.00
   -5    2    2     -2.89      0.00
   -5    2    1      5.09      0.00
   -5    2    0     -0.14      0.00
    5   -2    1    -27.68      0.00
    5   -2    2      1.54      0.00
    5   -2    3     -2.25      0.00
    5   -2    4      4.57      0.00
    5   -2    5     -9.31      0.00
    5   -2    6      0.98      0.00
    5   -2    7     -7.45      0.00
    5   -2    8     14.41      0.00
    5   -2    9     -1.27      0.00
    5   -2   10      3.33      0.00
    5   -2   11     -0.66      0.00
    5   -2   12      2.48      0.00
    5   -2   13      3.07      0.00
    5   -2   14      3.48      0.00
    5   -2   15     -0.31      0.00
    5   -2   16      0.69      0.00
    5   -2   17      0.15      0.00
    5   -2   18      1.27      0.00
    5   -2   19     -1.18      0.00
    5   -2   20      0.76      0.00
    5   -2   21      0.53      0.00
    5   -2   22      1.18      0.00
    5   -2   23      0.79      0.00
   -5    1   18      1.65      0.00
   -5    1   17     -1.22      0.00
   -5    1   16     -0.85      0.00
   -5    1   15     -0.63      0.00
   -5    1   14      0.06      0.00
   -5    1   13      1.40      0.00
   -5    1   12      0.50      0.00
   -5    1   11     -0.65      0.00
   -5    1   10      2.39      0.00
   -5    1    9      0.06      0.00
   -5    1    8      0.30      0.00
   -5    1    7      4.02      0.00
   -5    1    6     -2.15      0.00
   -5    1    5     -0.31      0.00
   -5    1    4      3.62      0.00
   -5    1    3    -13.68      0.00
   -5    1    2     -2.81      0.00
   -5    1    1    -13.49      0.00
   -5    1    0     -1.58      0.00
    5   -1    1    -10.54      0.00
    5   -1    2     15.06      0.00
    5   -1    3    -32.03      0.00
    5   -1    4     12.21      0.00
    5   -1    5     -6.59      0.00
    5   -1    6      4.82      0.00
    5   -1    7     -0.83      0.00
    5   -1    8     15.62      0.00
    5   -1    9     -7.62      0.00
    5   -1   10      0.70      0.00
    5   -1   11      4.62      0.00
    5   -1   12      1.69      0.00
    5   -1   13     -0.98      0.00
    5   -1   14      1.72      0.00
    5   -1   15     -2.62      0.00
    5   -1   16      0.95      0.00
    5   -1   17     -0.30      0.00
    5   -1   18     -1.18      0.00
    5   -1   19      0.34      0.00
    5   -1   20     -0.18      0.00
    5   -1   21      1.47      0.00
    5   -1   22     -1.56      0.00
    5   -1   23      0.73      0.00
   -5    0   19      0.49      0.00
   -5    0   18      0.04      0.00
   -5    0   17     -0.79      0.00
   -5    0   16      0.12      0.00
   -5    0   15      0.33      0.00
   -5    0   14      0.57      0.00
   -5    0   13      0.48      0.00
   -5    0   12      0.10      0.00
   -5    0   11      0.62      0.00
   -5    0   10     -1.19      0.00
   -5    0    9     -3.27      0.00
   -5    0    8     -1.18      0.00
   -5    0    7     -3.48      0.00
   -5    0    6     -1.93      0.00
   -5    0    5     -0.28      0.00
   -5    0    4      2.92      0.00
   -5    0    3     -4.93      0.00
   -5    0    2     13.09      0.00
   -5    0    1      5.86      0.00
    5    0    0      8.07      0.00
    5    0    1    -14.88      0.00
    5    0    2     -3.11      0.00
    5    0    3    -48.42      0.00
    5    0    4      4.55      0.00
    5    0    5      0.96      0.00
    5    0    6     19.84      0.00
    5    0    7     -0.81      0.00
    5    0    8     -2.92      0.00
    5    0    9     -0.80      0.00
    5    0   10      5.97      0.00
    5    0   11     -1.92      0.00
    5    0   12     -4.64      0.00
    5    0   13      0.57      0.00
    5    0   14     -1.34      0.00
    5    0   15      0.96      0.00
    5    0   16     -1.26      0.00
    5    0   17     -0.05      0.00
    5    0   18     -0.58      0.00
    5    0   19      1.49      0.00
    5    0   20     -0.70      0.00
    5    0   21     -0.42      0.00
    5    0   22      2.83      0.00
    5    0   23     -0.14      0.00
    5    0   24      1.10      0.00
   -5   -1   19     -0.36      0.00
   -5   -1   18     -0.26      0.00
   -5   -1   17     -1.01      0.00
   -5   -1   16     -0.99      0.00
   -5   -1   15     -1.34      0.00
   -5   -1   14      0.16      0.00
   -5   -1   13      0.20      0.00
   -5   -1   12     -0.08      0.00
   -5   -1   11     -2.36      0.00
   -5   -1   10     -0.27      0.00
   -5   -1    9     -0.62      0.00
   -5   -1    8      1.72      0.00
   -5   -1    7      0.20      0.00
   -5   -1    6     -3.59      0.00
   -5   -1    5      4.46      0.00
   -5   -1    4      7.72      0.00
   -5   -1    3      3.29      0.00
   -5   -1    2      2.15      0.00
   -5   -1    1    -16.62      0.00
    5    1    0     15.85      0.00
    5    1    1     11.13      0.00
    5    1    2     -4.54      0.00
    5    1    3    -19.78      0.00
    5    1    4     -6.62      0.00
    5    1    5    -11.78      0.00
    5    1    6    -20.47      0.00
    5    1    7      7.33      0.00
    5    1    8    -16.56      0.00
    5    1    9     -3.52      0.00
    5    1   10     -0.24      0.00
    5    1   11      4.89      0.00
    5    1   12     -6.12      0.00
    5    1   13      3.46      0.00
    5    1   14     -2.75      0.00
    5    1   15     -0.45      0.00
    5    1   16      1.24      0.00
    5    1   17     -0.34      0.00
    5    1   18     -2.37      0.00
    5    1   19      1.39      0.00
    5    1   20      0.12      0.00
    5    1   21      0.87      0.00
    5    1   22     -0.87      0.00
    5    1   23     -0.49      0.00
    5    1   24     -0.21      0.00
   -5   -2   19      0.41      0.00
   -5   -2   18     -0.24      0.00
   -5   -2   17     -1.72      0.00
   -5   -2   16     -0.14      0.00
   -5   -2   15     -1.27      0.00
   -5   -2   14      0.56      0.00
   -5   -2   13     -0.35      0.00
   -5   -2   12     -0.38      0.00
   -5   -2   11      0.77      0.00
   -5   -2   10      1.09      0.00
   -5   -2    9      0.54      0.00
   -5   -2    8      0.01      0.00
   -5   -2    7     -3.28      0.00
   -5   -2    6      1.98      0.00
   -5   -2    5      6.15      0.00
   -5   -2    4     -6.72      0.00
   -5   -2    3     11.39      0.00
   -5   -2    2      9.32      0.00
   -5   -2    1      8.98      0.00
    5    2    0     -5.67      0.00
    5    2    1      8.98      0.00
    5    2    2    -30.33      0.00
    5    2    3    -20.52      0.00
    5    2    4    -20.00      0.00
    5    2    5    -17.45      0.00
    5    2    6     -6.79      0.00
    5    2    7     -8.12      0.00
    5    2    8     -9.20      0.00
    5    2    9      8.54      0.00
    5    2   10     -1.97      0.00
    5    2   11      1.00      0.00
    5    2   12      3.24      0.00
    5    2   13      4.12      0.00
    5    2   14      0.44      0.00
    5    2   15      1.02      0.00
    5    2   16     -0.44      0.00
    5    2   17      1.84      0.00
    5    2   18      0.34      0.00
    5    2   19      1.91      0.00
    5    2   20     -2.27      0.00
    5    2   21     -1.05      0.00
    5    2   22     -0.93      0.00
    5    2   23      0.30      0.00
   -5   -3   18      0.91      0.00
   -5   -3   17      1.53      0.00
   -5   -3   16      1.51      0.00
   -5   -3   15      1.20      0.00
   -5   -3   14     -0.36      0.00
   -5   -3   13      0.45      0.00
   -5   -3   12      1.80      0.00
   -5   -3   11      0.43      0.00
   -5   -3   10     -2.02      0.00
   -5   -3    9     -0.15      0.00
   -5   -3    8      2.67      0.00
   -5   -3    7      6.34      0.00
   -5   -3    6      0.12      0.00
   -5   -3    5      4.73      0.00
   -5   -3    4     -5.45      0.00
   -5   -3    3      9.76      0.00
   -5   -3    2     -9.16      0.00
   -5   -3    1     -8.95      0.00
    5    3    0    -16.02      0.00
    5    3    1    -19.89      0.00
    5    3    2      3.75      0.00
    5    3    3     20.03      0.00
    5    3    4     -8.47      0.00
    5    3    5    -24.33      0.00
    5    3    6      6.65      0.00
    5    3    7     16.70      0.00
    5    3    8      5.21      0.00
    5    3    9      5.14      0.00
    5    3   10      0.43      0.00
    5    3   11     -2.70      0.00
    5    3   12      6.10      0.00
    5    3   13      2.04      0.00
    5    3   14     -2.44      0.00
    5    3   15      0.98      0.00
    5    3   16      0.23      0.00
    5    3   17      0.19      0.00
    5    3   18      1.62      0.00
    5    3   19     -1.68      0.00
    5    3   20     -1.52      0.00
    5    3   21     -0.90      0.00
    5    3   22      1.42      0.00
    5    3   23     -1.23      0.00
   -5   -4   18      0.56      0.00
   -5   -4   17      0.21      0.00
   -5   -4   16      0.42      0.00
   -5   -4   15      0.28      0.00
   -5   -4   14     -0.52      0.00
   -5   -4   13      0.47      0.00
   -5   -4   12     -0.52      0.00
   -5   -4   11      0.49      0.00
   -5   -4   10     -0.53      0.00
   -5   -4    9      2.65      0.00
   -5   -4    8     -3.65      0.00
   -5   -4    7      1.46      0.00
   -5   -4    6     -1.81      0.00
   -5   -4    5      0.39      0.00
   -5   -4    4     -3.19      0.00
   -5   -4    3     11.64      0.00
   -5   -4    2    -15.60      0.00
   -5   -4    1    -11.38      0.00
    5    4    0     -7.25      0.00
    5    4    1     -4.68      0.00
    5    4    2     -3.99      0.00
    5    4    3    -10.78      0.00
    5    4    4     -5.28      0.00
    5    4    5     -1.92      0.00
    5    4    6     21.47      0.00
    5    4    7      5.56      0.00
    5    4    8     12.19      0.00
    5    4    9      1.30      0.00
    5    4   10     -0.93      0.00
    5    4   11      3.81      0.00
    5    4   12      2.73      0.00
    5    4   13     -3.52      0.00
    5    4   14     -0.29      0.00
    5    4   15     -1.32      0.00
    5    4   16     -0.29      0.00
    5    4   17     -1.28      0.00
    5    4   18     -0.38      0.00
    5    4   19     -0.11      0.00
    5    4   20      0.68      0.00
    5    4   21     -0.14      0.00
    5    4   22     -0.52      0.00
    5    4   23      0.03      0.00
   -5   -5   18     -1.45      0.00
   -5   -5   17     -0.30      0.00
   -5   -5   16     -1.91      0.00
   -5   -5   15     -0.33      0.00
   -5   -5   14     -1.69      0.00
   -5   -5   13     -0.33      0.00
   -5   -5   12      1.32      0.00
   -5   -5   11      0.22      0.00
   -5   -5   10     -0.37      0.00
   -5   -5    9     -2.02      0.00
   -5   -5    8     -3.06      0.00
   -5   -5    7     -0.88      0.00
   -5   -5    6      0.35      0.00
   -5   -5    5      1.02      0.00
   -5   -5    4     -3.26      0.00
   -5   -5    3     -1.53      0.00
   -5   -5    2      0.30      0.00
   -5   -5    1     16.56      0.00
    5    5    0      7.86      0.00
    5    5    1    -11.47      0.00
    5    5    2      6.17      0.00
    5    5    3     -1.63      0.00
    5    5    4      7.57      0.00
    5    5    5      7.03      0.00
    5    5    6      7.75      0.00
    5    5    7    -14.66      0.00
    5    5    8      4.06      0.00
    5    5    9     -0.21      0.00
    5    5   10      0.25      0.00
    5    5   11     -4.35      0.00
    5    5   12     -0.77      0.00
    5    5   13     -2.67      0.00
    5    5   14      0.95      0.00
    5    5   15     -0.99      0.00
    5    5   16     -1.51      0.00
    5    5   17      0.53      0.00
    5    5   18      1.74      0.00
    5    5   19      1.01      0.00
    5    5   20     -0.54      0.00
    5    5   21     -0.46      0.00
    5    5   22      0.50      0.00
    5    5   23     -0.53      0.00
    5    5   24      1.24      0.00
   -5   -6   18     -0.21      0.00
   -5   -6   17     -0.86      0.00
   -5   -6   16      0.04      0.00
   -5   -6   15     -1.68      0.00
   -5   -6   14     -0.10      0.00
   -5   -6   13      0.21      0.00
   -5   -6   12     -1.32      0.00
   -5   -6   11      0.20      0.00
   -5   -6   10      0.00      0.00
   -5   -6    9     -0.83      0.00
   -5   -6    8     -0.35      0.00
   -5   -6    7      2.93      0.00
   -5   -6    6      0.69      0.00
   -5   -6    5     -3.01      0.00
   -5   -6    4      0.64      0.00
   -5   -6    3     -1.13      0.00
   -5   -6    2     -1.36      0.00
   -5   -6    1      6.34      0.00
    5    6    0     -0.63      0.00
    5    6    1    -11.61      0.00
    5    6    2     12.63      0.00
    5    6    3     -3.98      0.00
    5    6    4     12.93      0.00
    5    6    5    -11.18      0.00
    5    6    6     -5.00      0.00
    5    6    7    -10.53      0.00
    5    6    8     11.11      0.00
    5    6    9     -5.54      0.00
    5    6   10     -1.55      0.00
    5    6   11     -2.36      0.00
    5    6   12     -0.20      0.00
    5    6   13     -0.12      0.00
    5    6   14      0.28      0.00
    5    6   15     -1.19      0.00
    5    6   16     -0.36      0.00
    5    6   17      0.31      0.00
    5    6   18     -0.64      0.00
    5    6   19      0.80      0.00
    5    6   20      0.28      0.00
    5    6   21      0.36      0.00
    5    6   22     -0.75      0.00
    5    6   23      1.78      0.00
    5    6   24      0.89      0.00
   -5   -7   18      0.42      0.00
   -5   -7   17     -0.75      0.00
   -5   -7   16      0.11      0.00
   -5   -7   15     -0.03      0.00
   -5   -7   14      0.14      0.00
   -5   -7   13     -1.03      0.00
   -5   -7   12      0.42      0.00
   -5   -7   11     -2.12      0.00
   -5   -7   10      0.99      0.00
   -5   -7    9     -1.40      0.00
   -5   -7    8      0.98      0.00
   -5   -7    7      1.97      0.00
   -5   -7    6      1.49      0.00
   -5   -7    5      2.77      0.00
   -5   -7    4      1.30      0.00
   -5   -7    3      0.12      0.00
   -5   -7    2      2.71      0.00
   -5   -7    1     -2.28      0.00
    5    7    0     -1.14      0.00
    5    7    1     -5.53      0.00
    5    7    2      5.46      0.00
    5    7    3    -12.69      0.00
    5    7    4      1.97      0.00
    5    7    5     -1.35      0.00
    5    7    6      0.32      0.00
    5    7    7     -3.81      0.00
    5    7    8      1.94      0.00
    5    7    9     -4.10      0.00
    5    7   10      1.65      0.00
    5    7   11      1.75      0.00
    5    7   12     -2.07      0.00
    5    7   13      1.77      0.00
    5    7   14      1.37      0.00
    5    7   15      0.03      0.00
    5    7   16      0.70      0.00
    5    7   17      0.35      0.00
    5    7   18      0.81      0.00
    5    7   19      0.79      0.00
    5    7   20     -0.49      0.00
    5    7   21     -0.76      0.00
    5    7   22      0.94      0.00
    5    7   23      0.27      0.00
   -5   -8   17     -0.89      0.00
   -5   -8   16     -0.51      0.00
   -5   -8   15      0.92      0.00
   -5   -8   14      1.23      0.00
   -5   -8   13      0.68      0.00
   -5   -8   12      0.30      0.00
   -5   -8   11      1.68      0.00
   -5   -8   10      0.54      0.00
   -5   -8    9     -0.68      0.00
   -5   -8    8      1.95      0.00
   -5   -8    7      0.10      0.00
   -5   -8    6      0.10      0.00
   -5   -8    5      2.56      0.00
   -5   -8    4      1.93      0.00
   -5   -8    3     -3.57      0.00
   -5   -8    2      0.09      0.00
   -5   -8    1     -2.90      0.00
    5    8    0     -5.75      0.00
    5    8    1      5.96      0.00
    5    8    2     -8.90      0.00
    5    8    3     -3.40      0.00
    5    8    4      0.80      0.00
    5    8    5      0.22      0.00
    5    8    6     -1.72      0.00
    5    8    7      4.66      0.00
    5    8    8     -2.10      0.00
    5    8    9      1.37      0.00
    5    8   10      3.09      0.00
    5    8   11     -0.96      0.00
    5    8   12     -1.54      0.00
    5    8   13      0.22      0.00
    5    8   14     -0.87      0.00
    5    8   15      1.32      0.00
    5    8   16     -0.42      0.00
    5    8   17      0.91      0.00
    5    8   18      1.23      0.00
    5    8   19      0.51      0.00
    5    8   20      1.04      0.00
    5    8   21      0.25      0.00
    5    8   22      0.08      0.00
    5    8   23      0.67      0.00
   -5   -9   17      1.47      0.00
   -5   -9   16     -0.07      0.00
   -5   -9   15     -0.01      0.00
   -5   -9   14      1.04      0.00
   -5   -9   13      0.19      0.00
   -5   -9   12     -1.12      0.00
   -5   -9   11     -0.24      0.00
   -5   -9   10      0.17      0.00
   -5   -9    9      0.20      0.00
   -5   -9    8      0.76      0.00
   -5   -9    7     -0.28      0.00
   -5   -9    6     -0.28      0.00
   -5   -9    5      1.72      0.00
   -5   -9    4     -1.35      0.00
   -5   -9    3      0.97      0.00
   -5   -9    2     -4.98      0.00
   -5   -9    1      1.41      0.00
    5    9    0     -5.00      0.00
    5    9    1      5.26      0.00
    5    9    2     -3.14      0.00
    5    9    3     -0.70      0.00
    5    9    4      1.65      0.00
    5    9    5      4.54      0.00
    5    9    6      0.95      0.00
    5    9    7      3.69      0.00
    5    9    8     -3.94      0.00
    5    9    9      0.67      0.00
    5    9   10      1.75      0.00
    5    9   11      0.00      0.00
    5    9   12     -2.28      0.00
    5    9   13      0.91      0.00
    5    9   14     -1.03      0.00
    5    9   15     -0.30      0.00
    5    9   16      0.36      0.00
    5    9   17     -0.82      0.00
    5    9   18      0.63      0.00
    5    9   19     -0.17      0.00
    5    9   20      0.31      0.00
    5    9   21      0.58      0.00
    5    9   22     -0.29      0.00
   -5  -10   17     -0.50      0.00
   -5  -10   16      0.99      0.00
   -5  -10   15     -0.28      0.00
   -5  -10   14     -0.11      0.00
   -5  -10   13      0.35      0.00
   -5  -10   12     -1.22      0.00
   -5  -10   11     -1.86      0.00
   -5  -10   10     -0.84      0.00
   -5  -10    9      0.45      0.00
   -5  -10    8     -0.24      0.00
   -5  -10    7     -1.17      0.00
   -5  -10    6      0.21      0.00
   -5  -10    5      0.88      0.00
   -5  -10    4     -4.40      0.00
   -5  -10    3      3.48      0.00
   -5  -10    2     -2.75      0.00
   -5  -10    1      2.14      0.00
    5   10    0      0.61      0.00
    5   10    1      0.06      0.00
    5   10    2     -2.16      0.00
    5   10    3      4.70      0.00
    5   10    5     -1.19      0.00
    5   10    6      2.76      0.00
    5   10    7     -1.60      0.00
    5   10    8     -0.93      0.00
    5   10    9      1.15      0.00
    5   10   10     -0.89      0.00
    5   10   11     -1.70      0.00
    5   10   12      0.23      0.00
    5   10   13     -1.14      0.00
    5   10   14     -0.15      0.00
    5   10   15      0.59      0.00
    5   10   16     -0.66      0.00
    5   10   17      0.52      0.00
    5   10   18      0.78      0.00
    5   10   19      0.83      0.00
    5   10   20     -0.73      0.00
    5   10   21     -0.33      0.00
    5   10   22      0.39      0.00
   -5  -11   16      1.80      0.00
   -5  -11   15     -0.03      0.00
   -5  -11   14     -0.29      0.00
   -5  -11   13     -1.28      0.00
   -5  -11   12     -1.07      0.00
   -5  -11   11      0.20      0.00
   -5  -11   10     -1.03      0.00
   -5  -11    9     -0.14      0.00
   -5  -11    8      0.25      0.00
   -5  -11    7      0.20      0.00
   -5  -11    6      0.74      0.00
   -5  -11    5      1.20      0.00
   -5  -11    4     -1.27      0.00
   -5  -11    3      2.04      0.00
   -5  -11    2      0.10      0.00
   -5  -11    1     -1.71      0.00
    5   11    0      0.08      0.00
    5   11    1      0.25      0.00
    5   11    2      1.22      0.00
    5   11    3      1.70      0.00
    5   11    6      1.08      0.00
    5   11    7      0.10      0.00
    5   11    8     -0.86      0.00
    5   11    9      1.54      0.00
    5   11   10     -1.14      0.00
    5   11   11     -0.35      0.00
    5   11   12      1.09      0.00
    5   11   13     -0.60      0.00
    5   11   14      0.26      0.00
    5   11   15     -0.24      0.00
    5   11   16      0.22      0.00
    5   11   17     -0.24      0.00
    5   11   18     -0.87      0.00
    5   11   19     -1.99      0.00
    5   11   20     -0.26      0.00
    5   11   21     -0.70      0.00
    5   11   22      0.72      0.00
   -5  -12   16      1.24      0.00
   -5  -12   15     -0.23      0.00
   -5  -12   14     -0.24      0.00
   -5  -12   13     -1.15      0.00
   -5  -12   12     -0.10      0.00
   -5  -12   11      0.06      0.00
   -5  -12   10     -0.25      0.00
   -5  -12    9      0.72      0.00
   -5  -12    8      0.65      0.00
   -5  -12    7      0.53      0.00
   -5  -12    6      0.74      0.00
   -5  -12    5     -0.07      0.00
   -5  -12    4      1.68      0.00
   -5  -12    3      0.66      0.00
   -5  -12    2     -1.92      0.00
   -5  -12    1      0.01      0.00
    5   12    0     -0.65      0.00
    5   12    1     -1.06      0.00
    5   12    2     -0.40      0.00
    5   12    7     -1.29      0.00
    5   12    8      0.17      0.00
    5   12    9     -1.07      0.00
    5   12   10     -0.66      0.00
    5   12   11      0.88      0.00
    5   12   12      0.76      0.00
    5   12   13     -1.39      0.00
    5   12   14     -0.95      0.00
    5   12   15      1.00      0.00
    5   12   16      0.82      0.00
    5   12   17     -0.08      0.00
    5   12   18     -0.01      0.00
    5   12   19      0.16      0.00
    5   12   20      0.80      0.00
    5   12   21      1.28      0.00
   -5  -13   14      1.48      0.00
   -5  -13   13     -0.66      0.00
   -5  -13   12     -0.43      0.00
   -5  -13   11      0.26      0.00
   -5  -13   10     -0.13      0.00
   -5  -13    9     -0.03      0.00
   -5  -13    8      1.77      0.00
   -5  -13    7     -0.14      0.00
   -5  -13    6      1.61      0.00
   -5  -13    5     -0.20      0.00
   -5  -13    4     -0.06      0.00
   -5  -13    3      0.10      0.00
   -5  -13    2     -0.42      0.00
   -5  -13    1     -0.25      0.00
    5   13    0     -0.26      0.00
    5   13    1     -2.13      0.00
    5   13    2      1.65      0.00
    5   13    8      0.56      0.00
    5   13    9      0.40      0.00
    5   13   10     -1.05      0.00
    5   13   11     -0.09      0.00
    5   13   12     -0.43      0.00
    5   13   13     -0.49      0.00
    5   13   14     -0.25      0.00
    5   13   15     -0.99      0.00
    5   13   16     -0.22      0.00
    5   13   17     -1.21      0.00
    5   13   18      0.40      0.00
    5   13   19      0.04      0.00
    5   13   20     -0.23      0.00
   -5  -14   11      0.87      0.00
   -5  -14   10      1.41      0.00
   -5  -14    9     -0.09      0.00
   -5  -14    8      0.48      0.00
   -5  -14    7     -0.89      0.00
   -5  -14    6     -0.30      0.00
   -5  -14    5     -0.35      0.00
   -5  -14    4      0.20      0.00
   -5  -14    3     -0.62      0.00
   -5  -14    2     -0.05      0.00
   -5  -14    1      0.11      0.00
    5   14    0     -1.64      0.00
    5   14    1      2.18      0.00
    5   14    9     -1.06      0.00
    5   14   10     -0.54      0.00
    5   14   11      2.82      0.00
    5   14   12      0.38      0.00
    5   14   13      0.94      0.00
    5   14   14     -0.39      0.00
    5   14   15     -1.06      0.00
    5   14   16     -0.84      0.00
    5   14   17      1.70      0.00
    5   14   18     -0.69      0.00
    5   14   19     -0.80      0.00
    5   14   20     -1.43      0.00
   -5  -15   11     -0.12      0.00
   -5  -15   10     -1.43      0.00
   -5  -15    9     -0.47      0.00
   -5  -15    8      0.09      0.00
   -5  -15    7     -0.67      0.00
   -5  -15    6     -0.04      0.00
   -5  -15    5     -0.76      0.00
   -5  -15    4      0.15      0.00
   -5  -15    3     -0.15      0.00
   -5  -15    2     -0.73      0.00
   -5  -15    1     -0.14      0.00
    5   15    0      0.32      0.00
    5   15    1      0.13      0.00
    5   15   10      0.65      0.00
    5   15   11      0.03      0.00
    5   15   12      0.63      0.00
    5   15   13     -0.19      0.00
    5   15   14     -0.71      0.00
    5   15   15     -0.93      0.00
    5   15   16      1.19      0.00
    5   15   17      0.05      0.00
    5   15   18     -0.51      0.00
   -5  -16   14      0.39      0.00
   -5  -16   13     -0.85      0.00
   -5  -16   10      1.01      0.00
   -5  -16    9      0.19      0.00
   -5  -16    8      0.48      0.00
   -5  -16    7      0.62      0.00
   -5  -16    6      0.45      0.00
   -5  -16    5      0.39      0.00
   -5  -16    4     -1.20      0.00
   -5  -16    3      0.44      0.00
   -5  -16    2     -0.75      0.00
   -5  -16    1     -0.67      0.00
    5   16    0     -0.85      0.00
    5   16   11      0.09      0.00
    5   16   12     -0.39      0.00
    5   16   13      0.23      0.00
    5   16   14      0.40      0.00
    5   16   15      1.41      0.00
   -5  -17   13      0.07      0.00
   -5  -17   12      0.83      0.00
   -5  -17   11      1.75      0.00
   -5  -17   10      1.55      0.00
   -5  -17    9      1.48      0.00
   -5  -17    7     -0.90      0.00
   -5  -17    6     -0.14      0.00
   -5  -17    5     -0.24      0.00
   -5  -17    4      0.50      0.00
   -5  -17    3     -0.21      0.00
   -5  -17    2      0.44      0.00
   -5  -17    1      1.74      0.00
    5   17    0     -0.37      0.00
    5   17   12     -1.68      0.00
   -5  -18    4     -0.16      0.00
   -5  -18    3      1.38      0.00
   -5  -18    2      1.01      0.00
   -5  -18    1      0.76      0.00
   -5  -19   10     -0.51      0.00
   -5  -19    4      0.41      0.00
   -5  -21    5      0.07      0.00
   -5  -21    4     -0.18      0.00
    6  -19    1     -0.93      0.00
   -6   18    4      1.20      0.00
   -6   18    0     -0.81      0.00
    6  -18    2     -0.49      0.00
    6  -18    3      0.95      0.00
   -6   17    5     -1.31      0.00
   -6   17    4      0.03      0.00
   -6   17    2     -1.11      0.00
   -6   17    0     -1.00      0.00
    6  -17    1      0.76      0.00
    6  -17    3      0.04      0.00
    6  -17    4     -1.13      0.00
    6  -17    5      0.91      0.00
    6  -17    6      0.17      0.00
    6  -17    7     -0.14      0.00
    6  -17    8      0.97      0.00
    6  -17    9      0.70      0.00
    6  -17   10     -0.23      0.00
   -6   16   10      1.04      0.00
   -6   16    9      1.15      0.00
   -6   16    6      0.34      0.00
   -6   16    5     -1.16      0.00
   -6   16    4      0.75      0.00
   -6   16    3      0.32      0.00
   -6   16    2     -0.41      0.00
   -6   16    1      0.00      0.00
   -6   16    0     -1.17      0.00
    6  -16    1      2.32      0.00
    6  -16    2     -0.03      0.00
    6  -16    3      1.08      0.00
    6  -16    4     -1.05      0.00
    6  -16    5     -0.74      0.00
    6  -16    6      0.79      0.00
    6  -16    7      0.72      0.00
    6  -16    8     -1.28      0.00
    6  -16    9     -0.77      0.00
    6  -16   10     -1.05      0.00
    6  -16   15     -0.38      0.00
   -6   15    8      0.86      0.00
   -6   15    7     -1.17      0.00
   -6   15    6     -0.83      0.00
   -6   15    5      0.12      0.00
   -6   15    4      0.32      0.00
   -6   15    3     -0.40      0.00
   -6   15    2     -1.12      0.00
   -6   15    1      0.54      0.00
   -6   15    0      0.12      0.00
    6  -15    1     -0.16      0.00
    6  -15    2     -0.14      0.00
    6  -15    3      0.66      0.00
    6  -15    4      0.95      0.00
    6  -15    5      1.29      0.00
    6  -15    6      1.48      0.00
    6  -15    7      0.32      0.00
    6  -15    8     -0.14      0.00
    6  -15    9     -1.55      0.00
    6  -15   10     -1.63      0.00
    6  -15   11      0.59      0.00
    6  -15   12      0.40      0.00
    6  -15   15     -0.70      0.00
    6  -15   17     -0.32      0.00
   -6   14   12     -0.80      0.00
   -6   14   11      1.43      0.00
   -6   14   10     -0.64      0.00
   -6   14    9      1.31      0.00
   -6   14    8     -0.15      0.00
   -6   14    7      1.31      0.00
   -6   14    6     -1.14      0.00
   -6   14    5     -0.70      0.00
   -6   14    4     -0.01      0.00
   -6   14    3      0.95      0.00
   -6   14    2     -1.20      0.00
   -6   14    1      1.07      0.00
   -6   14    0     -1.25      0.00
    6  -14    1      1.19      0.00
    6  -14    2      0.29      0.00
    6  -14    3     -1.09      0.00
    6  -14    4      0.13      0.00
    6  -14    5     -0.20      0.00
    6  -14    6     -0.74      0.00
    6  -14    7     -0.81      0.00
    6  -14    8     -1.08      0.00
    6  -14    9     -0.07      0.00
    6  -14   10      0.05      0.00
    6  -14   11      0.33      0.00
    6  -14   12     -0.07      0.00
    6  -14   13     -1.70      0.00
    6  -14   14     -0.84      0.00
    6  -14   15     -1.79      0.00
    6  -14   16     -0.10      0.00
    6  -14   18     -0.08      0.00
   -6   13   12     -0.46      0.00
   -6   13   11     -0.77      0.00
   -6   13   10      0.36      0.00
   -6   13    9      1.82      0.00
   -6   13    8      0.41      0.00
   -6   13    7      0.23      0.00
   -6   13    6      0.35      0.00
   -6   13    5      0.22      0.00
   -6   13    4      1.38      0.00
   -6   13    3     -1.25      0.00
   -6   13    2     -0.06      0.00
   -6   13    1      1.53      0.00
   -6   13    0      0.77      0.00
    6  -13    1     -0.51      0.00
    6  -13    2      0.50      0.00
    6  -13    3     -0.34      0.00
    6  -13    4      0.58      0.00
    6  -13    5      0.53      0.00
    6  -13    6      1.44      0.00
    6  -13    7     -0.22      0.00
    6  -13    8      1.48      0.00
    6  -13    9      0.05      0.00
    6  -13   10      0.31      0.00
    6  -13   11      2.08      0.00
    6  -13   12     -0.59      0.00
    6  -13   13      1.17      0.00
    6  -13   14     -1.93      0.00
    6  -13   15     -1.32      0.00
    6  -13   16     -2.60      0.00
    6  -13   17     -0.98      0.00
   -6   12   14     -0.05      0.00
   -6   12   13     -2.58      0.00
   -6   12   12     -0.31      0.00
   -6   12   11     -0.56      0.00
   -6   12   10     -1.02      0.00
   -6   12    9      1.45      0.00
   -6   12    8     -1.42      0.00
   -6   12    7      0.88      0.00
   -6   12    6      0.76      0.00
   -6   12    5     -0.13      0.00
   -6   12    4     -0.79      0.00
   -6   12    3      0.80      0.00
   -6   12    2      0.41      0.00
   -6   12    1     -1.53      0.00
   -6   12    0      0.39      0.00
    6  -12    1     -0.97      0.00
    6  -12    2     -0.04      0.00
    6  -12    3      0.97      0.00
    6  -12    4      1.18      0.00
    6  -12    5     -0.35      0.00
    6  -12    6     -0.21      0.00
    6  -12    7      1.45      0.00
    6  -12    8      0.10      0.00
    6  -12    9      0.40      0.00
    6  -12   10      1.04      0.00
    6  -12   11      0.31      0.00
    6  -12   12      0.36      0.00
    6  -12   13      0.74      0.00
    6  -12   14     -0.11      0.00
    6  -12   15      0.34      0.00
    6  -12   16      0.49      0.00
    6  -12   17      2.25      0.00
    6  -12   18      0.32      0.00
    6  -12   19      0.33      0.00
   -6   11   15      0.99      0.00
   -6   11   14     -0.09      0.00
   -6   11   13      0.46      0.00
   -6   11   12     -0.50      0.00
   -6   11   11     -0.62      0.00
   -6   11   10      0.12      0.00
   -6   11    9      2.35      0.00
   -6   11    8     -0.23      0.00
   -6   11    7     -0.61      0.00
   -6   11    6      0.19      0.00
   -6   11    5     -0.34      0.00
   -6   11    4      0.87      0.00
   -6   11    3     -1.48      0.00
   -6   11    2      0.31      0.00
   -6   11    1     -1.29      0.00
   -6   11    0     -0.78      0.00
    6  -11    1      3.15      0.00
    6  -11    2      0.78      0.00
    6  -11    3     -0.27      0.00
    6  -11    4      0.15      0.00
    6  -11    5     -1.81      0.00
    6  -11    6     -1.13      0.00
    6  -11    7     -0.21      0.00
    6  -11    8      1.28      0.00
    6  -11    9     -1.51      0.00
    6  -11   10      0.51      0.00
    6  -11   11      0.89      0.00
    6  -11   12      0.84      0.00
    6  -11   13      0.88      0.00
    6  -11   14     -1.35      0.00
    6  -11   15     -0.23      0.00
    6  -11   16     -0.74      0.00
    6  -11   17     -0.68      0.00
    6  -11   18     -2.23      0.00
    6  -11   19     -0.78      0.00
    6  -11   20     -0.25      0.00
   -6   10   16      0.14      0.00
   -6   10   15     -1.29      0.00
   -6   10   14      0.50      0.00
   -6   10   13     -1.57      0.00
   -6   10   12      0.57      0.00
   -6   10   11     -0.39      0.00
   -6   10   10     -0.08      0.00
   -6   10    9     -0.11      0.00
   -6   10    8      1.11      0.00
   -6   10    7      0.21      0.00
   -6   10    6      1.75      0.00
   -6   10    5      0.22      0.00
   -6   10    4     -1.36      0.00
   -6   10    3      0.27      0.00
   -6   10    2     -1.85      0.00
   -6   10    1      0.21      0.00
   -6   10    0      0.62      0.00
    6  -10    1      0.03      0.00
    6  -10    2     -0.03      0.00
    6  -10    3      0.41      0.00
    6  -10    4     -0.24      0.00
    6  -10    5      1.10      0.00
    6  -10    6      0.95      0.00
    6  -10    7     -1.11      0.00
    6  -10    8     -0.85      0.00
    6  -10    9      1.18      0.00
    6  -10   10      0.40      0.00
    6  -10   11     -0.77      0.00
    6  -10   12     -0.39      0.00
    6  -10   13     -2.07      0.00
    6  -10   14     -0.17      0.00
    6  -10   15      0.20      0.00
    6  -10   16     -1.16      0.00
    6  -10   17     -1.61      0.00
    6  -10   18     -1.65      0.00
    6  -10   19     -1.11      0.00
    6  -10   20     -0.20      0.00
   -6    9   16      1.73      0.00
   -6    9   15      0.40      0.00
   -6    9   14      1.46      0.00
   -6    9   13      0.56      0.00
   -6    9   12      0.37      0.00
   -6    9   11     -0.62      0.00
   -6    9   10      0.74      0.00
   -6    9    9      1.61      0.00
   -6    9    8     -0.35      0.00
   -6    9    7     -0.08      0.00
   -6    9    6     -1.14      0.00
   -6    9    5      0.96      0.00
   -6    9    4     -1.42      0.00
   -6    9    3      0.63      0.00
   -6    9    2     -1.44      0.00
   -6    9    1     -0.30      0.00
   -6    9    0      0.23      0.00
    6   -9    1     -0.07      0.00
    6   -9    2     -1.22      0.00
    6   -9    3      1.68      0.00
    6   -9    4     -0.70      0.00
    6   -9    5      0.79      0.00
    6   -9    6      0.30      0.00
    6   -9    7      0.91      0.00
    6   -9    8     -0.46      0.00
    6   -9    9      0.51      0.00
    6   -9   10      0.74      0.00
    6   -9   11      0.06      0.00
    6   -9   12     -0.82      0.00
    6   -9   13      0.77      0.00
    6   -9   14     -1.16      0.00
    6   -9   15      0.16      0.00
    6   -9   16      0.28      0.00
    6   -9   17      0.24      0.00
    6   -9   18     -0.53      0.00
    6   -9   19      1.68      0.00
    6   -9   20     -0.42      0.00
   -6    8   17      0.77      0.00
   -6    8   16      0.63      0.00
   -6    8   15      0.05      0.00
   -6    8   14     -1.30      0.00
   -6    8   13     -0.98      0.00
   -6    8   12     -0.85      0.00
   -6    8   11     -0.65      0.00
   -6    8   10      0.69      0.00
   -6    8    9     -0.73      0.00
   -6    8    8     -1.78      0.00
   -6    8    7     -0.39      0.00
   -6    8    6      1.61      0.00
   -6    8    5     -1.54      0.00
   -6    8    4      1.31      0.00
   -6    8    3     -0.96      0.00
   -6    8    2     -2.24      0.00
   -6    8    1      2.54      0.00
   -6    8    0      3.00      0.00
    6   -8    1      1.08      0.00
    6   -8    2      1.51      0.00
    6   -8    3      1.79      0.00
    6   -8    4     -1.25      0.00
    6   -8    5      4.01      0.00
    6   -8    6     -0.93      0.00
    6   -8    7     -1.78      0.00
    6   -8    8      0.43      0.00
    6   -8    9      0.65      0.00
    6   -8   10     -1.85      0.00
    6   -8   11      0.78      0.00
    6   -8   12     -0.83      0.00
    6   -8   13     -0.20      0.00
    6   -8   14      0.91      0.00
    6   -8   15      0.01      0.00
    6   -8   16     -0.74      0.00
    6   -8   17      1.32      0.00
    6   -8   18     -0.47      0.00
    6   -8   19      0.48      0.00
    6   -8   20     -0.57      0.00
    6   -8   21      0.77      0.00
   -6    7   17     -0.82      0.00
   -6    7   16     -0.79      0.00
   -6    7   15     -0.54      0.00
   -6    7   14      0.94      0.00
   -6    7   13      0.46      0.00
   -6    7   12      1.84      0.00
   -6    7   11      0.24      0.00
   -6    7   10     -0.30      0.00
   -6    7    9     -1.74      0.00
   -6    7    8      0.09      0.00
   -6    7    7      0.72      0.00
   -6    7    6     -2.07      0.00
   -6    7    5     -2.23      0.00
   -6    7    4     -1.12      0.00
   -6    7    3      3.70      0.00
   -6    7    2      1.36      0.00
   -6    7    1      4.14      0.00
   -6    7    0     -3.00      0.00
    6   -7    1     -0.02      0.00
    6   -7    2      0.81      0.00
    6   -7    3      0.90      0.00
    6   -7    4     -2.64      0.00
    6   -7    5      0.01      0.00
    6   -7    6     -2.90      0.00
    6   -7    7     -1.57      0.00
    6   -7    8      1.24      0.00
    6   -7    9     -0.63      0.00
    6   -7   10      0.70      0.00
    6   -7   11      0.17      0.00
    6   -7   12      1.50      0.00
    6   -7   13     -1.12      0.00
    6   -7   14      2.42      0.00
    6   -7   15     -1.04      0.00
    6   -7   16      0.39      0.00
    6   -7   17     -0.76      0.00
    6   -7   18      0.59      0.00
    6   -7   19     -0.80      0.00
    6   -7   20     -1.22      0.00
    6   -7   21     -0.09      0.00
    6   -7   22     -1.15      0.00
   -6    6   17      0.96      0.00
   -6    6   16      0.63      0.00
   -6    6   15     -0.17      0.00
   -6    6   14     -0.32      0.00
   -6    6   13     -0.99      0.00
   -6    6   12     -0.62      0.00
   -6    6   11      0.23      0.00
   -6    6   10     -0.50      0.00
   -6    6    9      0.71      0.00
   -6    6    8     -0.50      0.00
   -6    6    7      1.93      0.00
   -6    6    6     -3.99      0.00
   -6    6    5      1.64      0.00
   -6    6    4      5.05      0.00
   -6    6    3      2.27      0.00
   -6    6    2      1.14      0.00
   -6    6    1     -1.73      0.00
   -6    6    0     -2.56      0.00
    6   -6    1      1.74      0.00
    6   -6    2      5.73      0.00
    6   -6    3     -4.78      0.00
    6   -6    4     -1.10      0.00
    6   -6    5     -0.52      0.00
    6   -6    6     -0.59      0.00
    6   -6    7     -1.41      0.00
    6   -6    8      0.47      0.00
    6   -6    9     -3.30      0.00
    6   -6   10      2.60      0.00
    6   -6   11      1.39      0.00
    6   -6   12      1.41      0.00
    6   -6   13     -0.95      0.00
    6   -6   14      0.88      0.00
    6   -6   15     -2.39      0.00
    6   -6   16      1.35      0.00
    6   -6   17      0.04      0.00
    6   -6   18      0.12      0.00
    6   -6   19      1.11      0.00
    6   -6   20     -0.79      0.00
    6   -6   21      0.61      0.00
    6   -6   22     -0.33      0.00
   -6    5   18     -0.90      0.00
   -6    5   17     -0.94      0.00
   -6    5   16     -0.13      0.00
   -6    5   15      1.76      0.00
   -6    5   14      1.36      0.00
   -6    5   13      0.78      0.00
   -6    5   12      0.04      0.00
   -6    5   11     -0.41      0.00
   -6    5   10      0.08      0.00
   -6    5    9     -1.08      0.00
   -6    5    8      0.32      0.00
   -6    5    7     -0.53      0.00
   -6    5    6      3.10      0.00
   -6    5    5     -0.28      0.00
   -6    5    4     -0.64      0.00
   -6    5    3     -7.04      0.00
   -6    5    2     -0.56      0.00
   -6    5    1      0.31      0.00
   -6    5    0      1.10      0.00
    6   -5    1     -1.15      0.00
    6   -5    2     -0.41      0.00
    6   -5    3     -4.89      0.00
    6   -5    4      8.24      0.00
    6   -5    5     -0.61      0.00
    6   -5    6      1.37      0.00
    6   -5    7     -0.11      0.00
    6   -5    8      1.97      0.00
    6   -5    9      1.07      0.00
    6   -5   10      5.43      0.00
    6   -5   11      2.53      0.00
    6   -5   12     -0.97      0.00
    6   -5   13      1.05      0.00
    6   -5   14     -1.00      0.00
    6   -5   15     -2.08      0.00
    6   -5   16     -0.54      0.00
    6   -5   17      0.49      0.00
    6   -5   18      0.92      0.00
    6   -5   19      2.55      0.00
    6   -5   20      0.85      0.00
    6   -5   21      2.43      0.00
    6   -5   22      2.18      0.00
   -6    4   17      0.04      0.00
   -6    4   16     -0.32      0.00
   -6    4   15     -0.98      0.00
   -6    4   14     -0.12      0.00
   -6    4   13      0.36      0.00
   -6    4   12      0.29      0.00
   -6    4   11     -0.19      0.00
   -6    4   10     -1.40      0.00
   -6    4    9     -1.92      0.00
   -6    4    8      0.81      0.00
   -6    4    7     -1.53      0.00
   -6    4    6     -0.21      0.00
   -6    4    5     -3.14      0.00
   -6    4    4     -5.16      0.00
   -6    4    3     -2.11      0.00
   -6    4    2      7.21      0.00
   -6    4    1     -8.30      0.00
   -6    4    0     -6.00      0.00
    6   -4    1      1.33      0.00
    6   -4    2      5.54      0.00
    6   -4    3      8.60      0.00
    6   -4    4     10.75      0.00
    6   -4    5     -0.88      0.00
    6   -4    6     -3.17      0.00
    6   -4    7      7.66      0.00
    6   -4    8      2.40      0.00
    6   -4    9     -0.77      0.00
    6   -4   10     -0.28      0.00
    6   -4   11     -4.59      0.00
    6   -4   12      0.43      0.00
    6   -4   13      0.08      0.00
    6   -4   14     -1.98      0.00
    6   -4   15     -0.43      0.00
    6   -4   16     -0.19      0.00
    6   -4   17      0.50      0.00
    6   -4   18     -1.10      0.00
    6   -4   19      0.92      0.00
    6   -4   20     -0.87      0.00
    6   -4   21      2.72      0.00
    6   -4   22     -1.60      0.00
    6   -4   23      0.10      0.00
   -6    3   17      0.80      0.00
   -6    3   16     -0.93      0.00
   -6    3   15     -0.56      0.00
   -6    3   14      1.18      0.00
   -6    3   13     -0.55      0.00
   -6    3   12     -0.79      0.00
   -6    3   11      0.37      0.00
   -6    3   10     -0.50      0.00
   -6    3    9     -2.03      0.00
   -6    3    8     -1.86      0.00
   -6    3    7     -3.76      0.00
   -6    3    6     -2.22      0.00
   -6    3    5     -1.41      0.00
   -6    3    4     -3.51      0.00
   -6    3    3      2.62      0.00
   -6    3    2      1.50      0.00
   -6    3    1      8.25      0.00
   -6    3    0     11.96      0.00
    6   -3    1     12.04      0.00
    6   -3    2     -0.47      0.00
    6   -3    3      1.85      0.00
    6   -3    4    -10.52      0.00
    6   -3    5     -1.29      0.00
    6   -3    6     -0.83      0.00
    6   -3    7      1.88      0.00
    6   -3    8    -10.62      0.00
    6   -3    9      2.74      0.00
    6   -3   10     -4.85      0.00
    6   -3   11     -0.53      0.00
    6   -3   12     -2.44      0.00
    6   -3   13     -1.21      0.00
    6   -3   14     -0.61      0.00
    6   -3   15      3.36      0.00
    6   -3   16      0.75      0.00
    6   -3   17     -0.18      0.00
    6   -3   18     -0.72      0.00
    6   -3   19      0.98      0.00
    6   -3   20      1.11      0.00
    6   -3   21      0.38      0.00
    6   -3   22      0.32      0.00
    6   -3   23     -1.59      0.00
   -6    2   18     -1.46      0.00
   -6    2   17      0.76      0.00
   -6    2   16      1.64      0.00
   -6    2   15     -0.07      0.00
   -6    2   14     -0.96      0.00
   -6    2   13     -0.28      0.00
   -6    2   12      0.07      0.00
   -6    2   11     -0.27      0.00
   -6    2   10     -0.92      0.00
   -6    2    9      0.84      0.00
   -6    2    8     -0.35      0.00
   -6    2    7      0.14      0.00
   -6    2    6      3.38      0.00
   -6    2    5      1.52      0.00
   -6    2    4     -4.48      0.00
   -6    2    3      5.12      0.00
   -6    2    2     -3.34      0.00
   -6    2    1     11.45      0.00
   -6    2    0      6.50      0.00
    6   -2    1      3.10      0.00
    6   -2    2    -20.54      0.00
    6   -2    3     16.13      0.00
    6   -2    4     -7.87      0.00
    6   -2    5      0.71      0.00
    6   -2    6     -6.38      0.00
    6   -2    7     -2.27      0.00
    6   -2    8    -11.92      0.00
    6   -2    9      3.42      0.00
    6   -2   10     -2.73      0.00
    6   -2   11     -1.29      0.00
    6   -2   12      0.37      0.00
    6   -2   13      2.44      0.00
    6   -2   14      1.54      0.00
    6   -2   15      4.89      0.00
    6   -2   16     -0.51      0.00
    6   -2   17      1.30      0.00
    6   -2   18      1.03      0.00
    6   -2   19      0.84      0.00
    6   -2   20      0.46      0.00
    6   -2   21     -0.04      0.00
    6   -2   22     -1.00      0.00
    6   -2   23      0.69      0.00
   -6    1   18     -0.06      0.00
   -6    1   17      0.35      0.00
   -6    1   16     -0.28      0.00
   -6    1   15     -0.78      0.00
   -6    1   14      0.16      0.00
   -6    1   13      0.05      0.00
   -6    1   12      1.92      0.00
   -6    1   11     -0.38      0.00
   -6    1   10     -0.45      0.00
   -6    1    9      2.15      0.00
   -6    1    8      1.45      0.00
   -6    1    7      3.13      0.00
   -6    1    6      1.17      0.00
   -6    1    5      3.61      0.00
   -6    1    4      0.33      0.00
   -6    1    3      2.43      0.00
   -6    1    2     -8.07      0.00
   -6    1    1      0.06      0.00
   -6    1    0     -8.93      0.00
    6   -1    1     -0.58      0.00
    6   -1    2    -13.52      0.00
    6   -1    3     -3.00      0.00
    6   -1    4    -17.00      0.00
    6   -1    5     -1.58      0.00
    6   -1    6    -14.80      0.00
    6   -1    7     -5.24      0.00
    6   -1    8      2.59      0.00
    6   -1    9      1.75      0.00
    6   -1   10     -1.48      0.00
    6   -1   11      2.26      0.00
    6   -1   12      5.28      0.00
    6   -1   13      0.71      0.00
    6   -1   14      2.51      0.00
    6   -1   15      1.29      0.00
    6   -1   16      0.06      0.00
    6   -1   17      0.18      0.00
    6   -1   18      0.48      0.00
    6   -1   19     -1.47      0.00
    6   -1   20      0.60      0.00
    6   -1   21      1.41      0.00
    6   -1   22     -0.72      0.00
    6   -1   23      0.15      0.00
   -6    0   18     -1.11      0.00
   -6    0   17     -0.49      0.00
   -6    0   16     -2.02      0.00
   -6    0   15      0.51      0.00
   -6    0   14      0.76      0.00
   -6    0   13      0.25      0.00
   -6    0   12     -0.43      0.00
   -6    0   11      1.92      0.00
   -6    0   10      0.02      0.00
   -6    0    9      0.34      0.00
   -6    0    8     -2.72      0.00
   -6    0    7     -0.05      0.00
   -6    0    6      3.23      0.00
   -6    0    5     -0.14      0.00
   -6    0    4      1.13      0.00
   -6    0    3      0.89      0.00
   -6    0    2     -9.36      0.00
   -6    0    1     12.50      0.00
    6    0    0     -8.06      0.00
    6    0    1    -18.79      0.00
    6    0    2    -17.22      0.00
    6    0    3    -15.59      0.00
    6    0    4    -20.48      0.00
    6    0    5     10.62      0.00
    6    0    6     14.72      0.00
    6    0    7     -6.37      0.00
    6    0    8      8.60      0.00
    6    0    9      0.61      0.00
    6    0   10      5.35      0.00
    6    0   11     -0.41      0.00
    6    0   12      4.52      0.00
    6    0   13     -3.53      0.00
    6    0   14      3.58      0.00
    6    0   15     -0.55      0.00
    6    0   16     -2.16      0.00
    6    0   17     -1.00      0.00
    6    0   18      1.25      0.00
    6    0   19     -0.39      0.00
    6    0   20      0.72      0.00
    6    0   21     -1.49      0.00
    6    0   22      2.10      0.00
    6    0   23      0.69      0.00
    6    0   24      0.43      0.00
   -6   -1   18     -1.06      0.00
   -6   -1   17     -0.33      0.00
   -6   -1   16     -0.61      0.00
   -6   -1   15     -0.79      0.00
   -6   -1   14     -0.06      0.00
   -6   -1   13      0.64      0.00
   -6   -1   12      1.46      0.00
   -6   -1   11     -0.17      0.00
   -6   -1   10     -0.94      0.00
   -6   -1    9     -0.86      0.00
   -6   -1    8      0.03      0.00
   -6   -1    7      1.59      0.00
   -6   -1    6     -3.94      0.00
   -6   -1    5     -3.81      0.00
   -6   -1    4      3.30      0.00
   -6   -1    3      2.54      0.00
   -6   -1    2     -1.87      0.00
   -6   -1    1     -7.83      0.00
    6    1    0     -4.79      0.00
    6    1    1      5.88      0.00
    6    1    2      8.95      0.00
    6    1    3     -9.41      0.00
    6    1    4     -4.23      0.00
    6    1    5     -3.63      0.00
    6    1    6     -4.24      0.00
    6    1    7      5.41      0.00
    6    1    8      6.11      0.00
    6    1    9     -8.63      0.00
    6    1   10      2.90      0.00
    6    1   11      2.54      0.00
    6    1   12     -2.28      0.00
    6    1   13     -3.07      0.00
    6    1   14     -0.83      0.00
    6    1   15     -3.19      0.00
    6    1   16      0.35      0.00
    6    1   17     -0.16      0.00
    6    1   18     -0.98      0.00
    6    1   19     -2.14      0.00
    6    1   20      2.10      0.00
    6    1   21      0.44      0.00
    6    1   22     -0.15      0.00
    6    1   23      0.50      0.00
    6    1   24     -1.48      0.00
   -6   -2   18     -0.42      0.00
   -6   -2   17     -0.35      0.00
   -6   -2   16     -0.75      0.00
   -6   -2   15     -1.38      0.00
   -6   -2   14      0.68      0.00
   -6   -2   13      0.92      0.00
   -6   -2   12     -0.69      0.00
   -6   -2   11     -0.75      0.00
   -6   -2   10      0.26      0.00
   -6   -2    9     -0.47      0.00
   -6   -2    8      0.48      0.00
   -6   -2    7     -7.92      0.00
   -6   -2    6     -3.19      0.00
   -6   -2    5     -1.11      0.00
   -6   -2    4      8.70      0.00
   -6   -2    3      1.62      0.00
   -6   -2    2     12.57      0.00
   -6   -2    1      7.43      0.00
    6    2    0      0.33      0.00
    6    2    1     17.16      0.00
    6    2    2      6.11      0.00
    6    2    3    -22.41      0.00
    6    2    4    -12.97      0.00
    6    2    5      0.28      0.00
    6    2    6      3.36      0.00
    6    2    7     -8.94      0.00
    6    2    8      0.29      0.00
    6    2    9     -9.74      0.00
    6    2   10      2.63      0.00
    6    2   11      0.22      0.00
    6    2   12     -1.71      0.00
    6    2   13     -2.63      0.00
    6    2   14      1.03      0.00
    6    2   15     -0.70      0.00
    6    2   16     -0.22      0.00
    6    2   17      0.21      0.00
    6    2   18     -1.08      0.00
    6    2   19      0.42      0.00
    6    2   20      0.23      0.00
    6    2   21      0.06      0.00
    6    2   22     -2.55      0.00
    6    2   23     -0.23      0.00
    6    2   24     -1.28      0.00
   -6   -3   18      0.33      0.00
   -6   -3   17      0.27      0.00
   -6   -3   16      0.75      0.00
   -6   -3   15      0.81      0.00
   -6   -3   14     -0.27      0.00
   -6   -3   13     -1.09      0.00
   -6   -3   12      0.95      0.00
   -6   -3   11     -0.44      0.00
   -6   -3   10     -0.01      0.00
   -6   -3    9     -3.31      0.00
   -6   -3    8      1.44      0.00
   -6   -3    7      1.64      0.00
   -6   -3    6      3.37      0.00
   -6   -3    5      1.53      0.00
   -6   -3    4      2.07      0.00
   -6   -3    3     -6.32      0.00
   -6   -3    2      4.97      0.00
   -6   -3    1     -2.10      0.00
    6    3    0      2.65      0.00
    6    3    1     -2.30      0.00
    6    3    2     -3.00      0.00
    6    3    3      8.70      0.00
    6    3    4      6.52      0.00
    6    3    5    -12.28      0.00
    6    3    6    -16.83      0.00
    6    3    7      7.48      0.00
    6    3    8     -3.50      0.00
    6    3    9      1.62      0.00
    6    3   10      0.45      0.00
    6    3   11     -5.39      0.00
    6    3   12     -1.32      0.00
    6    3   13      4.06      0.00
    6    3   14      0.03      0.00
    6    3   15      0.58      0.00
    6    3   16     -1.48      0.00
    6    3   17      1.10      0.00
    6    3   18      1.54      0.00
    6    3   19      0.26      0.00
    6    3   20     -1.51      0.00
    6    3   21     -0.61      0.00
    6    3   22      0.32      0.00
    6    3   23      1.07      0.00
    6    3   24      1.47      0.00
   -6   -4   18      0.08      0.00
   -6   -4   17      0.08      0.00
   -6   -4   16     -0.02      0.00
   -6   -4   15     -1.02      0.00
   -6   -4   14      0.33      0.00
   -6   -4   13     -1.10      0.00
   -6   -4   12     -0.19      0.00
   -6   -4   11      0.62      0.00
   -6   -4   10     -0.42      0.00
   -6   -4    9      0.18      0.00
   -6   -4    8      1.75      0.00
   -6   -4    7     -0.63      0.00
   -6   -4    6      2.18      0.00
   -6   -4    5     -0.21      0.00
   -6   -4    4     -0.16      0.00
   -6   -4    3      4.56      0.00
   -6   -4    2      6.93      0.00
   -6   -4    1     -9.92      0.00
    6    4    0    -20.09      0.00
    6    4    1      0.77      0.00
    6    4    2    -17.24      0.00
    6    4    3      0.86      0.00
    6    4    4    -14.89      0.00
    6    4    5     -7.59      0.00
    6    4    6     -8.42      0.00
    6    4    7     18.66      0.00
    6    4    8      2.70      0.00
    6    4    9      5.97      0.00
    6    4   10     -5.62      0.00
    6    4   11      3.93      0.00
    6    4   12      1.95      0.00
    6    4   13      5.34      0.00
    6    4   14     -2.33      0.00
    6    4   15     -0.57      0.00
    6    4   16      0.84      0.00
    6    4   17     -0.55      0.00
    6    4   18     -0.49      0.00
    6    4   19     -0.16      0.00
    6    4   20     -0.42      0.00
    6    4   21     -0.18      0.00
    6    4   22      0.37      0.00
    6    4   23     -0.16      0.00
    6    4   24     -1.13      0.00
   -6   -5   17     -0.75      0.00
   -6   -5   16     -2.00      0.00
   -6   -5   15     -1.14      0.00
   -6   -5   14     -1.16      0.00
   -6   -5   13     -1.17      0.00
   -6   -5   12      0.82      0.00
   -6   -5   11      0.97      0.00
   -6   -5   10      0.39      0.00
   -6   -5    9     -0.67      0.00
   -6   -5    8      0.74      0.00
   -6   -5    7     -2.33      0.00
   -6   -5    6      0.57      0.00
   -6   -5    5      0.89      0.00
   -6   -5    4      0.29      0.00
   -6   -5    3      1.33      0.00
   -6   -5    2     -2.56      0.00
   -6   -5    1      2.64      0.00
    6    5    0     -1.67      0.00
    6    5    1      2.51      0.00
    6    5    2    -20.29      0.00
    6    5    3     12.43      0.00
    6    5    4    -19.04      0.00
    6    5    5      9.64      0.00
    6    5    6      0.19      0.00
    6    5    7      7.74      0.00
    6    5    8    -10.40      0.00
    6    5    9      4.83      0.00
    6    5   10     -0.10      0.00
    6    5   11      1.18      0.00
    6    5   12      1.15      0.00
    6    5   13     -0.62      0.00
    6    5   14     -1.69      0.00
    6    5   15      1.24      0.00
    6    5   16     -1.27      0.00
    6    5   17      0.21      0.00
    6    5   18      1.29      0.00
    6    5   19      0.81      0.00
    6    5   20      0.30      0.00
    6    5   21     -1.20      0.00
    6    5   22      0.17      0.00
    6    5   23     -1.40      0.00
    6    5   24      0.48      0.00
   -6   -6   17     -0.97      0.00
   -6   -6   16     -0.71      0.00
   -6   -6   15     -0.89      0.00
   -6   -6   14      0.08      0.00
   -6   -6   13      0.66      0.00
   -6   -6   12     -0.11      0.00
   -6   -6   11      1.41      0.00
   -6   -6   10     -0.64      0.00
   -6   -6    9      1.15      0.00
   -6   -6    8     -1.68      0.00
   -6   -6    7     -0.02      0.00
   -6   -6    6      1.14      0.00
   -6   -6    5     -0.86      0.00
   -6   -6    4     -3.70      0.00
   -6   -6    3      1.52      0.00
   -6   -6    2     -5.90      0.00
   -6   -6    1      3.34      0.00
    6    6    0     -0.36      0.00
    6    6    1      2.66      0.00
    6    6    2    -10.17      0.00
    6    6    3     12.30      0.00
    6    6    4      1.83      0.00
    6    6    5      5.73      0.00
    6    6    6     -5.21      0.00
    6    6    7     -5.13      0.00
    6    6    8      1.01      0.00
    6    6    9      6.96      0.00
    6    6   10     -0.54      0.00
    6    6   11     -2.82      0.00
    6    6   12      0.49      0.00
    6    6   13     -2.33      0.00
    6    6   14      0.07      0.00
    6    6   15     -1.51      0.00
    6    6   16     -1.03      0.00
    6    6   17     -0.59      0.00
    6    6   18     -0.15      0.00
    6    6   19     -0.03      0.00
    6    6   20      0.84      0.00
    6    6   21      0.13      0.00
    6    6   22     -1.17      0.00
    6    6   23     -0.23      0.00
    6    6   24      0.09      0.00
   -6   -7   16     -1.39      0.00
   -6   -7   15      0.34      0.00
   -6   -7   14     -1.30      0.00
   -6   -7   13     -0.73      0.00
   -6   -7   12     -0.73      0.00
   -6   -7   11     -1.03      0.00
   -6   -7   10      0.35      0.00
   -6   -7    9     -0.65      0.00
   -6   -7    8     -1.06      0.00
   -6   -7    7      0.71      0.00
   -6   -7    6      1.57      0.00
   -6   -7    5      1.20      0.00
   -6   -7    4     -1.28      0.00
   -6   -7    3      0.60      0.00
   -6   -7    2     -0.98      0.00
   -6   -7    1      4.34      0.00
    6    7    0      3.69      0.00
    6    7    1     -5.19      0.00
    6    7    2      4.02      0.00
    6    7    3      4.16      0.00
    6    7    4     -3.70      0.00
    6    7    5      2.53      0.00
    6    7    6     -0.44      0.00
    6    7    7     -6.82      0.00
    6    7    8      0.96      0.00
    6    7    9     -0.09      0.00
    6    7   10     -1.39      0.00
    6    7   11     -2.19      0.00
    6    7   12     -0.85      0.00
    6    7   13     -0.94      0.00
    6    7   14      1.00      0.00
    6    7   15     -0.68      0.00
    6    7   16     -0.39      0.00
    6    7   17     -0.94      0.00
    6    7   18      0.84      0.00
    6    7   19      0.60      0.00
    6    7   20      0.44      0.00
    6    7   21     -0.65      0.00
    6    7   22      0.89      0.00
    6    7   23     -0.61      0.00
    6    7   24      0.98      0.00
   -6   -8   17     -0.29      0.00
   -6   -8   16     -0.38      0.00
   -6   -8   15      0.63      0.00
   -6   -8   14      0.88      0.00
   -6   -8   13      0.12      0.00
   -6   -8   12      1.11      0.00
   -6   -8   11      1.02      0.00
   -6   -8   10      0.15      0.00
   -6   -8    9      0.55      0.00
   -6   -8    8      0.17      0.00
   -6   -8    7      2.26      0.00
   -6   -8    6      1.69      0.00
   -6   -8    5      0.23      0.00
   -6   -8    4      3.85      0.00
   -6   -8    3     -1.20      0.00
   -6   -8    2      2.24      0.00
   -6   -8    1     -1.45      0.00
    6    8    0      1.65      0.00
    6    8    1     -3.15      0.00
    6    8    2      0.09      0.00
    6    8    3     -4.64      0.00
    6    8    4     -2.23      0.00
    6    8    5     -0.03      0.00
    6    8    6     -2.86      0.00
    6    8    7     -0.77      0.00
    6    8    8      2.42      0.00
    6    8    9     -1.86      0.00
    6    8   10     -0.86      0.00
    6    8   11      0.26      0.00
    6    8   12     -0.17      0.00
    6    8   13     -1.35      0.00
    6    8   14      1.25      0.00
    6    8   15      0.20      0.00
    6    8   16      0.04      0.00
    6    8   17      2.88      0.00
    6    8   18      0.54      0.00
    6    8   19      1.31      0.00
    6    8   20      0.65      0.00
    6    8   21      0.10      0.00
    6    8   22     -0.08      0.00
    6    8   23      1.60      0.00
   -6   -9   16     -0.44      0.00
   -6   -9   15      1.41      0.00
   -6   -9   14      0.82      0.00
   -6   -9   13     -0.15      0.00
   -6   -9   12     -0.62      0.00
   -6   -9   11     -0.85      0.00
   -6   -9   10      1.12      0.00
   -6   -9    9     -0.21      0.00
   -6   -9    8      1.25      0.00
   -6   -9    7      0.56      0.00
   -6   -9    6      1.22      0.00
   -6   -9    5      0.52      0.00
   -6   -9    4      5.09      0.00
   -6   -9    3     -1.86      0.00
   -6   -9    2      1.78      0.00
   -6   -9    1     -3.18      0.00
    6    9    0     -2.52      0.00
    6    9    1     -0.04      0.00
    6    9    2      2.82      0.00
    6    9    3     -6.08      0.00
    6    9    4     -1.99      0.00
    6    9    5      3.29      0.00
    6    9    6     -0.47      0.00
    6    9    7      1.79      0.00
    6    9    8     -0.59      0.00
    6    9    9     -2.00      0.00
    6    9   10      2.54      0.00
    6    9   11      2.01      0.00
    6    9   12     -1.77      0.00
    6    9   13      0.49      0.00
    6    9   14     -0.27      0.00
    6    9   15     -0.40      0.00
    6    9   16      1.10      0.00
    6    9   17     -1.46      0.00
    6    9   18      0.08      0.00
    6    9   19     -0.60      0.00
    6    9   20      0.18      0.00
    6    9   21      1.00      0.00
    6    9   22     -0.52      0.00
   -6  -10   16     -0.30      0.00
   -6  -10   15     -0.46      0.00
   -6  -10   14     -0.80      0.00
   -6  -10   13      0.91      0.00
   -6  -10   12     -0.71      0.00
   -6  -10   11     -2.90      0.00
   -6  -10   10      0.41      0.00
   -6  -10    9     -0.68      0.00
   -6  -10    8      0.72      0.00
   -6  -10    7     -1.27      0.00
   -6  -10    6      0.35      0.00
   -6  -10    5     -1.48      0.00
   -6  -10    4      0.77      0.00
   -6  -10    3     -3.06      0.00
   -6  -10    2     -0.39      0.00
   -6  -10    1      0.26      0.00
    6   10    0      0.71      0.00
    6   10    1     -1.38      0.00
    6   10    2     -1.07      0.00
    6   10    3     -1.81      0.00
    6   10    4      2.59      0.00
    6   10    5      0.65      0.00
    6   10    6     -1.03      0.00
    6   10    7     -0.47      0.00
    6   10    8     -0.45      0.00
    6   10    9     -0.55      0.00
    6   10   10      2.12      0.00
    6   10   11      0.55      0.00
    6   10   12     -1.84      0.00
    6   10   13     -0.11      0.00
    6   10   14      0.22      0.00
    6   10   15      0.55      0.00
    6   10   16     -0.70      0.00
    6   10   17      0.30      0.00
    6   10   18      0.17      0.00
    6   10   19      1.16      0.00
    6   10   20      0.02      0.00
    6   10   21     -0.38      0.00
   -6  -11   16     -0.57      0.00
   -6  -11   15      1.00      0.00
   -6  -11   14     -1.51      0.00
   -6  -11   13     -0.41      0.00
   -6  -11   12     -0.62      0.00
   -6  -11   11     -0.91      0.00
   -6  -11   10     -0.69      0.00
   -6  -11    9     -0.53      0.00
   -6  -11    8     -0.17      0.00
   -6  -11    7      0.07      0.00
   -6  -11    6      0.94      0.00
   -6  -11    5      0.47      0.00
   -6  -11    4     -1.51      0.00
   -6  -11    3     -1.24      0.00
   -6  -11    2      2.52      0.00
   -6  -11    1     -1.91      0.00
    6   11    0     -0.88      0.00
    6   11    1      0.24      0.00
    6   11    2     -1.81      0.00
    6   11    3      2.45      0.00
    6   11    4      0.27      0.00
    6   11    5      0.25      0.00
    6   11    6     -1.17      0.00
    6   11    7      2.90      0.00
    6   11    8     -0.45      0.00
    6   11    9      1.85      0.00
    6   11   10      0.03      0.00
    6   11   11     -0.90      0.00
    6   11   12     -0.24      0.00
    6   11   13      0.20      0.00
    6   11   14     -0.02      0.00
    6   11   15     -0.94      0.00
    6   11   16     -0.60      0.00
    6   11   17     -1.04      0.00
    6   11   18     -0.35      0.00
    6   11   19     -0.95      0.00
    6   11   20     -0.83      0.00
    6   11   21     -1.19      0.00
    6   11   22      0.23      0.00
   -6  -12   15      1.66      0.00
   -6  -12   14     -2.15      0.00
   -6  -12   13     -0.43      0.00
   -6  -12   12     -0.95      0.00
   -6  -12   11     -0.90      0.00
   -6  -12   10     -0.91      0.00
   -6  -12    9      0.26      0.00
   -6  -12    8     -0.01      0.00
   -6  -12    7     -0.16      0.00
   -6  -12    6     -0.80      0.00
   -6  -12    5     -0.09      0.00
   -6  -12    4      1.09      0.00
   -6  -12    3      1.15      0.00
   -6  -12    2      0.04      0.00
   -6  -12    1     -0.29      0.00
    6   12    0     -1.47      0.00
    6   12    1      1.64      0.00
    6   12    2     -1.45      0.00
    6   12    3      1.16      0.00
    6   12    7      1.14      0.00
    6   12    8     -1.51      0.00
    6   12    9     -1.07      0.00
    6   12   10     -0.45      0.00
    6   12   11     -0.41      0.00
    6   12   12      0.35      0.00
    6   12   13      0.06      0.00
    6   12   14     -1.77      0.00
    6   12   15      0.52      0.00
    6   12   16      0.25      0.00
    6   12   17      0.93      0.00
    6   12   18      0.28      0.00
    6   12   19     -0.87      0.00
    6   12   20     -0.81      0.00
    6   12   21      0.61      0.00
   -6  -13   14      0.82      0.00
   -6  -13   13      0.35      0.00
   -6  -13   12     -0.56      0.00
   -6  -13   11      0.45      0.00
   -6  -13   10      0.15      0.00
   -6  -13    9      0.26      0.00
   -6  -13    8     -0.04      0.00
   -6  -13    7      1.42      0.00
   -6  -13    6      0.53      0.00
   -6  -13    5      1.26      0.00
   -6  -13    4      0.38      0.00
   -6  -13    3      1.45      0.00
   -6  -13    2     -0.64      0.00
   -6  -13    1     -0.74      0.00
    6   13    0      0.96      0.00
    6   13    1     -1.23      0.00
    6   13    2     -0.37      0.00
    6   13    3     -0.35      0.00
    6   13    8     -0.19      0.00
    6   13    9      0.70      0.00
    6   13   10     -0.33      0.00
    6   13   11     -0.38      0.00
    6   13   12      0.96      0.00
    6   13   13     -0.80      0.00
    6   13   14     -0.93      0.00
    6   13   15     -0.04      0.00
    6   13   16      0.55      0.00
    6   13   17     -0.79      0.00
    6   13   18     -0.47      0.00
    6   13   19      0.37      0.00
    6   13   20      0.16      0.00
   -6  -14   10      1.28      0.00
   -6  -14    9      1.18      0.00
   -6  -14    8     -0.99      0.00
   -6  -14    7      0.76      0.00
   -6  -14    6     -0.34      0.00
   -6  -14    5      1.35      0.00
   -6  -14    4      0.17      0.00
   -6  -14    3     -1.09      0.00
   -6  -14    2      0.25      0.00
   -6  -14    1     -0.45      0.00
    6   14    0     -0.77      0.00
    6   14    1     -0.44      0.00
    6   14    2     -0.08      0.00
    6   14    9     -1.05      0.00
    6   14   10     -0.13      0.00
    6   14   11      1.16      0.00
    6   14   12      1.04      0.00
    6   14   13      0.44      0.00
    6   14   14     -0.01      0.00
    6   14   15     -0.46      0.00
    6   14   16     -0.75      0.00
    6   14   17     -0.05      0.00
    6   14   18     -0.39      0.00
    6   14   19     -0.14      0.00
    6   14   20     -0.91      0.00
   -6  -15    9      0.31      0.00
   -6  -15    8     -0.17      0.00
   -6  -15    7      1.24      0.00
   -6  -15    6      0.08      0.00
   -6  -15    5      0.29      0.00
   -6  -15    4      0.83      0.00
   -6  -15    3     -0.80      0.00
   -6  -15    2     -0.89      0.00
   -6  -15    1     -1.15      0.00
    6   15    0      0.10      0.00
    6   15    1      0.00      0.00
    6   15   10      0.51      0.00
    6   15   11     -0.89      0.00
    6   15   12      1.43      0.00
    6   15   13     -1.01      0.00
    6   15   14     -0.05      0.00
    6   15   15     -1.64      0.00
    6   15   16      0.22      0.00
    6   15   17      0.82      0.00
    6   15   18      1.71      0.00
   -6  -16   13      0.17      0.00
   -6  -16   12     -0.01      0.00
   -6  -16    9      0.30      0.00
   -6  -16    8     -0.30      0.00
   -6  -16    7      0.68      0.00
   -6  -16    6      0.17      0.00
   -6  -16    5      0.06      0.00
   -6  -16    4     -2.25      0.00
   -6  -16    3      0.48      0.00
   -6  -16    2      0.32      0.00
   -6  -16    1     -0.16      0.00
    6   16    0      0.17      0.00
    6   16    1     -0.14      0.00
    6   16   11     -0.37      0.00
    6   16   12     -0.10      0.00
    6   16   13     -0.66      0.00
    6   16   14      0.95      0.00
    6   16   15     -0.42      0.00
   -6  -17   12     -0.56      0.00
   -6  -17   11      2.77      0.00
   -6  -17   10      0.64      0.00
   -6  -17    9      1.79      0.00
   -6  -17    7     -1.12      0.00
   -6  -17    6     -0.48      0.00
   -6  -17    5     -0.38      0.00
   -6  -17    4      0.69      0.00
   -6  -17    3     -0.56      0.00
   -6  -17    2      0.31      0.00
   -6  -17    1      1.18      0.00
    6   17    0     -0.02      0.00
    6   17   13     -0.53      0.00
    6   17   14     -1.53      0.00
   -6  -18   11      0.50      0.00
   -6  -18   10     -0.85      0.00
   -6  -18    9     -0.35      0.00
   -6  -18    8     -0.71      0.00
   -6  -18    4     -0.94      0.00
   -6  -18    3      1.22      0.00
   -6  -18    2      0.23      0.00
   -6  -18    1      0.20      0.00
   -6  -19    9      0.62      0.00
   -6  -19    4     -0.40      0.00
    7  -19    1     -0.97      0.00
    7  -19    6     -0.18      0.00
    7  -19    7      0.31      0.00
    7  -18    3      0.40      0.00
    7  -18    4      1.59      0.00
    7  -18    5     -0.63      0.00
    7  -18    6     -0.53      0.00
   -7   17    5      0.87      0.00
   -7   17    4     -0.81      0.00
   -7   17    0      0.12      0.00
    7  -17    1     -0.42      0.00
    7  -17    2      0.80      0.00
    7  -17    5      0.91      0.00
    7  -17    6     -0.34      0.00
    7  -17    7     -0.36      0.00
   -7   16    6     -0.47      0.00
   -7   16    5     -0.40      0.00
   -7   16    3     -0.27      0.00
   -7   16    2      1.35      0.00
   -7   16    1     -1.42      0.00
   -7   16    0     -0.49      0.00
    7  -16    1     -0.93      0.00
    7  -16    2      0.60      0.00
    7  -16    3      0.76      0.00
    7  -16    4     -1.72      0.00
    7  -16    5     -1.96      0.00
    7  -16    6      0.31      0.00
    7  -16    7     -0.27      0.00
    7  -16    8     -1.78      0.00
    7  -16    9     -0.46      0.00
    7  -16   10     -1.06      0.00
    7  -16   15      0.05      0.00
    7  -16   16     -4.17      0.00
   -7   15    7     -0.44      0.00
   -7   15    6     -1.36      0.00
   -7   15    5      0.74      0.00
   -7   15    4     -1.42      0.00
   -7   15    3     -0.10      0.00
   -7   15    2     -0.44      0.00
   -7   15    1     -1.67      0.00
   -7   15    0      0.44      0.00
    7  -15    1     -0.05      0.00
    7  -15    2      0.51      0.00
    7  -15    3      0.73      0.00
    7  -15    4      0.68      0.00
    7  -15    5      0.73      0.00
    7  -15    6     -0.86      0.00
    7  -15    7      2.02      0.00
    7  -15    8      0.11      0.00
    7  -15   10     -0.43      0.00
    7  -15   11      0.50      0.00
    7  -15   12      1.72      0.00
    7  -15   17     -1.35      0.00
    7  -15   18     -0.68      0.00
   -7   14   11      0.66      0.00
   -7   14   10      1.20      0.00
   -7   14    9     -1.39      0.00
   -7   14    8     -0.55      0.00
   -7   14    7      1.16      0.00
   -7   14    6     -2.17      0.00
   -7   14    5     -0.83      0.00
   -7   14    4      0.54      0.00
   -7   14    3     -0.98      0.00
   -7   14    2      0.58      0.00
   -7   14    1     -0.38      0.00
   -7   14    0     -1.06      0.00
    7  -14    1      1.22      0.00
    7  -14    2      0.56      0.00
    7  -14    3      0.06      0.00
    7  -14    4     -1.19      0.00
    7  -14    5     -0.55      0.00
    7  -14    6      0.12      0.00
    7  -14    7     -0.74      0.00
    7  -14    8     -0.62      0.00
    7  -14    9      1.38      0.00
    7  -14   10      1.21      0.00
    7  -14   11      0.15      0.00
    7  -14   12      0.89      0.00
    7  -14   13     -0.93      0.00
    7  -14   15     -2.03      0.00
    7  -14   16      0.30      0.00
    7  -14   17     -0.29      0.00
    7  -14   18     -0.40      0.00
    7  -14   19     -3.53      0.00
   -7   13   11     -0.75      0.00
   -7   13   10      1.50      0.00
   -7   13    9     -1.08      0.00
   -7   13    8      3.60      0.00
   -7   13    7      1.15      0.00
   -7   13    6      0.99      0.00
   -7   13    5      0.24      0.00
   -7   13    4      1.18      0.00
   -7   13    3     -0.09      0.00
   -7   13    2     -1.39      0.00
   -7   13    1      0.25      0.00
   -7   13    0      1.95      0.00
    7  -13    1      0.46      0.00
    7  -13    2      0.95      0.00
    7  -13    3      0.07      0.00
    7  -13    4     -0.44      0.00
    7  -13    5      0.38      0.00
    7  -13    6      1.30      0.00
    7  -13    7      0.46      0.00
    7  -13    8      1.56      0.00
    7  -13    9     -0.03      0.00
    7  -13   10     -0.24      0.00
    7  -13   11     -0.08      0.00
    7  -13   12     -0.24      0.00
    7  -13   13     -1.03      0.00
    7  -13   14     -1.46      0.00
    7  -13   15     -2.06      0.00
    7  -13   16     -1.71      0.00
    7  -13   17     -1.56      0.00
    7  -13   19      1.28      0.00
   -7   12   12     -0.39      0.00
   -7   12   11     -1.23      0.00
   -7   12   10      1.23      0.00
   -7   12    9      0.53      0.00
   -7   12    8      1.30      0.00
   -7   12    7     -0.22      0.00
   -7   12    6     -0.69      0.00
   -7   12    5      1.08      0.00
   -7   12    4     -1.50      0.00
   -7   12    3      0.63      0.00
   -7   12    2     -0.11      0.00
   -7   12    1     -1.52      0.00
   -7   12    0      0.64      0.00
    7  -12    1     -0.71      0.00
    7  -12    2      0.46      0.00
    7  -12    3     -0.16      0.00
    7  -12    4      1.29      0.00
    7  -12    5      0.12      0.00
    7  -12    6      0.90      0.00
    7  -12    7      1.18      0.00
    7  -12    8      0.03      0.00
    7  -12    9      0.44      0.00
    7  -12   10      0.28      0.00
    7  -12   11      0.94      0.00
    7  -12   12      0.60      0.00
    7  -12   13     -0.60      0.00
    7  -12   14      0.63      0.00
    7  -12   15      0.33      0.00
    7  -12   17      1.40      0.00
    7  -12   18      0.54      0.00
    7  -12   19      0.71      0.00
    7  -12   20      1.07      0.00
   -7   11   14      0.03      0.00
   -7   11   13      0.90      0.00
   -7   11   12     -1.83      0.00
   -7   11   11      0.03      0.00
   -7   11   10      0.01      0.00
   -7   11    9      1.45      0.00
   -7   11    8      2.19      0.00
   -7   11    7     -2.43      0.00
   -7   11    6     -1.69      0.00
   -7   11    5      0.11      0.00
   -7   11    4      0.62      0.00
   -7   11    3     -2.32      0.00
   -7   11    2      0.58      0.00
   -7   11    1     -1.27      0.00
   -7   11    0     -0.58      0.00
    7  -11    1      2.27      0.00
    7  -11    2      0.18      0.00
    7  -11    3     -0.36      0.00
    7  -11    4      0.20      0.00
    7  -11    5     -1.08      0.00
    7  -11    6     -1.50      0.00
    7  -11    7     -1.37      0.00
    7  -11    8     -0.22      0.00
    7  -11    9     -0.40      0.00
    7  -11   10     -0.33      0.00
    7  -11   11      0.43      0.00
    7  -11   12      0.26      0.00
    7  -11   13      1.01      0.00
    7  -11   14     -0.14      0.00
    7  -11   15     -0.82      0.00
    7  -11   16      0.10      0.00
    7  -11   17     -0.79      0.00
    7  -11   18     -0.89      0.00
    7  -11   19     -1.08      0.00
    7  -11   20     -0.59      0.00
   -7   10   15      0.41      0.00
   -7   10   14      0.17      0.00
   -7   10   13     -0.78      0.00
   -7   10   12     -0.46      0.00
   -7   10   11      0.15      0.00
   -7   10   10      0.01      0.00
   -7   10    9     -0.41      0.00
   -7   10    8     -0.04      0.00
   -7   10    7      1.21      0.00
   -7   10    6      0.82      0.00
   -7   10    5      1.83      0.00
   -7   10    4     -0.68      0.00
   -7   10    3      0.47      0.00
   -7   10    2     -0.38      0.00
   -7   10    1      0.93      0.00
   -7   10    0     -0.33      0.00
    7  -10    1      0.44      0.00
    7  -10    2      0.37      0.00
    7  -10    3     -0.81      0.00
    7  -10    4      0.41      0.00
    7  -10    5     -0.57      0.00
    7  -10    6     -1.46      0.00
    7  -10    7     -0.27      0.00
    7  -10    8     -0.29      0.00
    7  -10    9      1.00      0.00
    7  -10   10      0.09      0.00
    7  -10   11     -0.59      0.00
    7  -10   12      0.76      0.00
    7  -10   13     -0.01      0.00
    7  -10   14      1.53      0.00
    7  -10   15      0.72      0.00
    7  -10   16      0.82      0.00
    7  -10   17     -0.37      0.00
    7  -10   18     -0.27      0.00
    7  -10   19     -3.17      0.00
    7  -10   20      0.96      0.00
   -7    9   15      1.52      0.00
   -7    9   14      0.45      0.00
   -7    9   13      1.35      0.00
   -7    9   12      0.62      0.00
   -7    9   11     -0.33      0.00
   -7    9   10     -1.01      0.00
   -7    9    9      1.10      0.00
   -7    9    8      0.18      0.00
   -7    9    7     -0.16      0.00
   -7    9    6     -1.71      0.00
   -7    9    5      0.48      0.00
   -7    9    4      0.10      0.00
   -7    9    3     -1.08      0.00
   -7    9    2      2.99      0.00
   -7    9    1     -1.98      0.00
   -7    9    0      0.61      0.00
    7   -9    1     -1.23      0.00
    7   -9    2     -1.32      0.00
    7   -9    3     -0.94      0.00
    7   -9    4      0.18      0.00
    7   -9    5     -2.31      0.00
    7   -9    6      2.17      0.00
    7   -9    7      1.44      0.00
    7   -9    8      0.12      0.00
    7   -9    9      0.14      0.00
    7   -9   10      1.43      0.00
    7   -9   11     -0.36      0.00
    7   -9   12     -0.20      0.00
    7   -9   13     -0.02      0.00
    7   -9   14     -1.45      0.00
    7   -9   15      0.56      0.00
    7   -9   16      1.00      0.00
    7   -9   17     -1.40      0.00
    7   -9   18      0.31      0.00
    7   -9   19      0.00      0.00
    7   -9   20     -1.32      0.00
    7   -9   21     -0.07      0.00
   -7    8   16      0.26      0.00
   -7    8   15      1.09      0.00
   -7    8   14     -0.34      0.00
   -7    8   13      0.63      0.00
   -7    8   12     -1.22      0.00
   -7    8   11     -0.42      0.00
   -7    8   10      0.04      0.00
   -7    8    9      0.10      0.00
   -7    8    8      0.01      0.00
   -7    8    7     -2.33      0.00
   -7    8    6      1.03      0.00
   -7    8    5     -0.46      0.00
   -7    8    4      2.25      0.00
   -7    8    3     -1.15      0.00
   -7    8    2     -0.42      0.00
   -7    8    1     -2.97      0.00
   -7    8    0      1.39      0.00
    7   -8    1      1.60      0.00
    7   -8    2     -0.33      0.00
    7   -8    3     -0.13      0.00
    7   -8    4      1.84      0.00
    7   -8    5      1.52      0.00
    7   -8    6      2.27      0.00
    7   -8    7      0.48      0.00
    7   -8    8     -0.59      0.00
    7   -8    9      0.22      0.00
    7   -8   10     -0.25      0.00
    7   -8   11     -0.35      0.00
    7   -8   12     -0.76      0.00
    7   -8   13     -0.11      0.00
    7   -8   14     -1.53      0.00
    7   -8   15     -0.94      0.00
    7   -8   16     -1.51      0.00
    7   -8   17      1.31      0.00
    7   -8   18     -1.23      0.00
    7   -8   19     -0.20      0.00
    7   -8   20      1.75      0.00
    7   -8   21     -1.07      0.00
   -7    7   16     -0.99      0.00
   -7    7   15     -0.05      0.00
   -7    7   14      0.54      0.00
   -7    7   13      0.55      0.00
   -7    7   12      1.52      0.00
   -7    7   11      0.68      0.00
   -7    7   10     -0.69      0.00
   -7    7    9     -1.28      0.00
   -7    7    8     -1.34      0.00
   -7    7    7     -2.47      0.00
   -7    7    6      0.85      0.00
   -7    7    5     -1.50      0.00
   -7    7    4     -3.79      0.00
   -7    7    3      0.90      0.00
   -7    7    2     -0.85      0.00
   -7    7    1      2.02      0.00
   -7    7    0      2.08      0.00
    7   -7    1     -1.55      0.00
    7   -7    2     -1.02      0.00
    7   -7    3      3.75      0.00
    7   -7    4     -0.28      0.00
    7   -7    5      1.74      0.00
    7   -7    6      0.93      0.00
    7   -7    7     -1.90      0.00
    7   -7    8     -1.19      0.00
    7   -7    9      3.14      0.00
    7   -7   10     -0.01      0.00
    7   -7   11     -0.88      0.00
    7   -7   12      0.55      0.00
    7   -7   13     -1.04      0.00
    7   -7   14      0.11      0.00
    7   -7   15      0.52      0.00
    7   -7   16     -2.02      0.00
    7   -7   17     -1.60      0.00
    7   -7   18      1.07      0.00
    7   -7   19     -1.01      0.00
    7   -7   20     -0.17      0.00
    7   -7   21     -0.19      0.00
    7   -7   22     -0.32      0.00
   -7    6   16      1.06      0.00
   -7    6   15      0.82      0.00
   -7    6   14     -0.58      0.00
   -7    6   13     -0.59      0.00
   -7    6   12     -1.55      0.00
   -7    6   11     -0.25      0.00
   -7    6   10     -0.28      0.00
   -7    6    9     -0.52      0.00
   -7    6    8     -0.72      0.00
   -7    6    7      3.02      0.00
   -7    6    6     -1.14      0.00
   -7    6    5     -1.06      0.00
   -7    6    4      0.88      0.00
   -7    6    3      5.74      0.00
   -7    6    2      1.14      0.00
   -7    6    1     -0.18      0.00
   -7    6    0     -1.20      0.00
    7   -6    1      1.40      0.00
    7   -6    2      4.30      0.00
    7   -6    3      5.44      0.00
    7   -6    4     -2.44      0.00
    7   -6    5     -3.03      0.00
    7   -6    6     -2.34      0.00
    7   -6    7     -0.28      0.00
    7   -6    8     -1.83      0.00
    7   -6    9      0.38      0.00
    7   -6   10     -2.67      0.00
    7   -6   11      1.40      0.00
    7   -6   12      0.42      0.00
    7   -6   13      0.73      0.00
    7   -6   14     -1.46      0.00
    7   -6   15     -0.45      0.00
    7   -6   16     -0.08      0.00
    7   -6   17      0.29      0.00
    7   -6   18      0.53      0.00
    7   -6   19     -0.02      0.00
    7   -6   20      0.98      0.00
    7   -6   21     -1.94      0.00
    7   -6   22      1.92      0.00
   -7    5   16     -0.14      0.00
   -7    5   15      2.95      0.00
   -7    5   14      0.76      0.00
   -7    5   13     -0.48      0.00
   -7    5   12     -0.58      0.00
   -7    5   11     -0.81      0.00
   -7    5   10      0.46      0.00
   -7    5    9      0.69      0.00
   -7    5    8     -0.31      0.00
   -7    5    7      2.02      0.00
   -7    5    6     -0.21      0.00
   -7    5    5      0.03      0.00
   -7    5    4      3.13      0.00
   -7    5    3     -0.53      0.00
   -7    5    2     -2.73      0.00
   -7    5    1      3.12      0.00
   -7    5    0     -0.45      0.00
    7   -5    1      1.60      0.00
    7   -5    2      1.19      0.00
    7   -5    3     -3.93      0.00
    7   -5    4     -5.41      0.00
    7   -5    5      3.35      0.00
    7   -5    6     -0.70      0.00
    7   -5    7     -1.34      0.00
    7   -5    8      1.29      0.00
    7   -5    9     -1.40      0.00
    7   -5   10      2.50      0.00
    7   -5   11      5.53      0.00
    7   -5   12     -0.07      0.00
    7   -5   13      0.96      0.00
    7   -5   14      0.41      0.00
    7   -5   15      0.33      0.00
    7   -5   16     -0.59      0.00
    7   -5   17      1.28      0.00
    7   -5   18      0.98      0.00
    7   -5   19      0.17      0.00
    7   -5   20      2.79      0.00
    7   -5   21      0.63      0.00
    7   -5   22      1.75      0.00
   -7    4   17      0.87      0.00
   -7    4   16     -0.32      0.00
   -7    4   15     -0.85      0.00
   -7    4   14     -1.00      0.00
   -7    4   13      0.01      0.00
   -7    4   12      0.26      0.00
   -7    4   11      0.69      0.00
   -7    4   10     -0.14      0.00
   -7    4    9      0.12      0.00
   -7    4    8     -0.02      0.00
   -7    4    7      0.40      0.00
   -7    4    6      0.47      0.00
   -7    4    5     -0.13      0.00
   -7    4    4     -1.95      0.00
   -7    4    3     -3.61      0.00
   -7    4    2      0.92      0.00
   -7    4    1     -2.56      0.00
   -7    4    0     -2.95      0.00
    7   -4    1     -6.89      0.00
    7   -4    2      2.39      0.00
    7   -4    3      0.41      0.00
    7   -4    4      5.69      0.00
    7   -4    5      3.72      0.00
    7   -4    6      0.14      0.00
    7   -4    7     -0.49      0.00
    7   -4    8      5.91      0.00
    7   -4    9      0.37      0.00
    7   -4   10      3.13      0.00
    7   -4   11     -1.41      0.00
    7   -4   12      1.48      0.00
    7   -4   13     -0.33      0.00
    7   -4   14      1.61      0.00
    7   -4   15     -0.80      0.00
    7   -4   16      0.39      0.00
    7   -4   17     -0.11      0.00
    7   -4   18      0.21      0.00
    7   -4   19      0.79      0.00
    7   -4   20      0.26      0.00
    7   -4   21      0.60      0.00
    7   -4   22      0.83      0.00
    7   -4   23      0.54      0.00
   -7    3   16     -0.77      0.00
   -7    3   15     -1.82      0.00
   -7    3   14     -0.60      0.00
   -7    3   13     -0.37      0.00
   -7    3   12     -0.25      0.00
   -7    3   11     -0.20      0.00
   -7    3   10      1.04      0.00
   -7    3    9     -1.80      0.00
   -7    3    8     -1.01      0.00
   -7    3    7     -1.38      0.00
   -7    3    6     -2.29      0.00
   -7    3    5     -1.73      0.00
   -7    3    4     -1.43      0.00
   -7    3    3     -5.37      0.00
   -7    3    2      5.26      0.00
   -7    3    1      1.84      0.00
   -7    3    0      1.03      0.00
    7   -3    1      1.54      0.00
    7   -3    2      6.76      0.00
    7   -3    3     -6.08      0.00
    7   -3    4      5.76      0.00
    7   -3    5     -4.45      0.00
    7   -3    6      2.75      0.00
    7   -3    7      2.21      0.00
    7   -3    8      4.03      0.00
    7   -3    9     -2.62      0.00
    7   -3   10      1.87      0.00
    7   -3   11     -2.22      0.00
    7   -3   12     -2.92      0.00
    7   -3   13     -0.70      0.00
    7   -3   14      0.14      0.00
    7   -3   15     -1.35      0.00
    7   -3   16      2.73      0.00
    7   -3   17     -0.70      0.00
    7   -3   18     -0.91      0.00
    7   -3   19     -0.09      0.00
    7   -3   20      1.83      0.00
    7   -3   21      0.82      0.00
    7   -3   22      1.29      0.00
    7   -3   23     -1.31      0.00
   -7    2   16      0.82      0.00
   -7    2   15      0.68      0.00
   -7    2   14     -0.79      0.00
   -7    2   13      1.08      0.00
   -7    2   12     -0.76      0.00
   -7    2   11      0.50      0.00
   -7    2   10      0.86      0.00
   -7    2    9     -0.22      0.00
   -7    2    8     -0.78      0.00
   -7    2    7      0.32      0.00
   -7    2    6      1.56      0.00
   -7    2    5     -1.39      0.00
   -7    2    4     -0.78      0.00
   -7    2    3     -4.58      0.00
   -7    2    2      4.41      0.00
   -7    2    1      2.00      0.00
   -7    2    0      9.08      0.00
    7   -2    1      4.89      0.00
    7   -2    2     -0.65      0.00
    7   -2    3     -1.48      0.00
    7   -2    4     13.98      0.00
    7   -2    5     -1.65      0.00
    7   -2    6      3.08      0.00
    7   -2    7     -1.66      0.00
    7   -2    8     -5.69      0.00
    7   -2    9     -5.61      0.00
    7   -2   10     -0.67      0.00
    7   -2   11     -2.48      0.00
    7   -2   12     -3.65      0.00
    7   -2   13      1.06      0.00
    7   -2   14     -0.38      0.00
    7   -2   15      1.63      0.00
    7   -2   16      0.00      0.00
    7   -2   17     -0.26      0.00
    7   -2   18     -0.35      0.00
    7   -2   19      2.42      0.00
    7   -2   20     -0.19      0.00
    7   -2   21      0.57      0.00
    7   -2   22     -1.02      0.00
    7   -2   23     -0.43      0.00
   -7    1   17      0.11      0.00
   -7    1   16      1.04      0.00
   -7    1   15      0.47      0.00
   -7    1   14     -0.18      0.00
   -7    1   13     -0.03      0.00
   -7    1   12      1.88      0.00
   -7    1   11     -0.24      0.00
   -7    1   10     -0.53      0.00
   -7    1    9     -0.80      0.00
   -7    1    8      3.37      0.00
   -7    1    7     -0.81      0.00
   -7    1    6      0.28      0.00
   -7    1    5      0.59      0.00
   -7    1    4      2.51      0.00
   -7    1    3      0.38      0.00
   -7    1    2      8.45      0.00
   -7    1    1     -6.62      0.00
   -7    1    0      7.18      0.00
    7   -1    1     -1.53      0.00
    7   -1    2     -0.52      0.00
    7   -1    3     -3.23      0.00
    7   -1    4      1.18      0.00
    7   -1    5    -10.99      0.00
    7   -1    6    -11.26      0.00
    7   -1    7     -5.45      0.00
    7   -1    8    -10.82      0.00
    7   -1    9      0.54      0.00
    7   -1   10     -3.71      0.00
    7   -1   11      0.00      0.00
    7   -1   12      0.11      0.00
    7   -1   13      3.74      0.00
    7   -1   14     -1.88      0.00
    7   -1   15      2.46      0.00
    7   -1   16      0.73      0.00
    7   -1   17      0.65      0.00
    7   -1   18     -0.93      0.00
    7   -1   19      1.26      0.00
    7   -1   20     -0.14      0.00
    7   -1   21      1.31      0.00
    7   -1   22     -0.09      0.00
    7   -1   23     -0.23      0.00
   -7    0   16     -1.04      0.00
   -7    0   15      0.02      0.00
   -7    0   14     -0.13      0.00
   -7    0   13      0.50      0.00
   -7    0   12     -0.78      0.00
   -7    0   11     -0.01      0.00
   -7    0   10      1.12      0.00
   -7    0    9      0.25      0.00
   -7    0    8     -1.77      0.00
   -7    0    7     -1.45      0.00
   -7    0    6      4.10      0.00
   -7    0    5      3.34      0.00
   -7    0    4      4.11      0.00
   -7    0    3      2.05      0.00
   -7    0    2     -4.04      0.00
   -7    0    1      0.38      0.00
    7    0    0      0.43      0.00
    7    0    1     -9.67      0.00
    7    0    2    -20.57      0.00
    7    0    3     -9.50      0.00
    7    0    4    -13.22      0.00
    7    0    5      1.13      0.00
    7    0    6      3.96      0.00
    7    0    7     -0.07      0.00
    7    0    8     -9.87      0.00
    7    0    9      7.36      0.00
    7    0   10     -0.59      0.00
    7    0   11      3.40      0.00
    7    0   12      1.16      0.00
    7    0   13      2.10      0.00
    7    0   14      1.30      0.00
    7    0   15      0.95      0.00
    7    0   16     -0.65      0.00
    7    0   17     -0.41      0.00
    7    0   18      0.34      0.00
    7    0   19      1.52      0.00
    7    0   20     -0.88      0.00
    7    0   21      0.11      0.00
    7    0   22      0.77      0.00
    7    0   23      0.09      0.00
   -7   -1   16     -0.29      0.00
   -7   -1   15     -1.05      0.00
   -7   -1   14     -0.37      0.00
   -7   -1   13     -0.51      0.00
   -7   -1   12      1.64      0.00
   -7   -1   11      0.48      0.00
   -7   -1   10      0.00      0.00
   -7   -1    9     -0.42      0.00
   -7   -1    8     -1.45      0.00
   -7   -1    7      3.16      0.00
   -7   -1    6      0.06      0.00
   -7   -1    5     -0.08      0.00
   -7   -1    4     -3.69      0.00
   -7   -1    3      3.28      0.00
   -7   -1    2     -3.60      0.00
   -7   -1    1     -6.20      0.00
    7    1    0     -2.87      0.00
    7    1    1     -6.12      0.00
    7    1    2     -6.00      0.00
    7    1    3      5.09      0.00
    7    1    4    -10.90      0.00
    7    1    5      1.37      0.00
    7    1    6     -1.97      0.00
    7    1    7      6.56      0.00
    7    1    8      3.07      0.00
    7    1    9     10.16      0.00
    7    1   10     -3.09      0.00
    7    1   11      3.96      0.00
    7    1   12     -1.03      0.00
    7    1   13      0.49      0.00
    7    1   14     -1.96      0.00
    7    1   15     -0.08      0.00
    7    1   16     -0.70      0.00
    7    1   17     -0.09      0.00
    7    1   18      0.59      0.00
    7    1   19     -0.53      0.00
    7    1   20      0.30      0.00
    7    1   21     -0.66      0.00
    7    1   22      1.16      0.00
    7    1   23     -0.09      0.00
   -7   -2   17      0.11      0.00
   -7   -2   16     -0.71      0.00
   -7   -2   15     -0.92      0.00
   -7   -2   14     -0.08      0.00
   -7   -2   13      2.07      0.00
   -7   -2   12     -0.02      0.00
   -7   -2   11     -0.82      0.00
   -7   -2   10     -0.49      0.00
   -7   -2    9      1.60      0.00
   -7   -2    8     -0.48      0.00
   -7   -2    7     -2.06      0.00
   -7   -2    6     -6.63      0.00
   -7   -2    5     -4.73      0.00
   -7   -2    4      2.35      0.00
   -7   -2    3      5.72      0.00
   -7   -2    2      2.38      0.00
   -7   -2    1      2.94      0.00
    7    2    0     -3.50      0.00
    7    2    1      5.87      0.00
    7    2    2     12.21      0.00
    7    2    3      0.85      0.00
    7    2    4    -14.68      0.00
    7    2    5      1.55      0.00
    7    2    6     14.43      0.00
    7    2    7      5.38      0.00
    7    2    8      6.54      0.00
    7    2    9     -5.62      0.00
    7    2   10     -1.15      0.00
    7    2   11      1.77      0.00
    7    2   12      1.61      0.00
    7    2   13     -5.39      0.00
    7    2   14     -1.10      0.00
    7    2   15     -1.08      0.00
    7    2   16      0.63      0.00
    7    2   17     -0.33      0.00
    7    2   18     -1.78      0.00
    7    2   19     -1.86      0.00
    7    2   20      1.00      0.00
    7    2   21      0.62      0.00
    7    2   22     -1.73      0.00
    7    2   23     -1.80      0.00
    7    2   24     -0.93      0.00
   -7   -3   17     -0.48      0.00
   -7   -3   16      0.02      0.00
   -7   -3   15      1.19      0.00
   -7   -3   14     -2.03      0.00
   -7   -3   13      0.48      0.00
   -7   -3   12      0.13      0.00
   -7   -3   11     -0.72      0.00
   -7   -3   10     -0.55      0.00
   -7   -3    9      0.38      0.00
   -7   -3    8     -2.27      0.00
   -7   -3    7      1.56      0.00
   -7   -3    6     -1.90      0.00
   -7   -3    5     -0.05      0.00
   -7   -3    4     -0.96      0.00
   -7   -3    3     -3.93      0.00
   -7   -3    2     -4.52      0.00
   -7   -3    1      2.33      0.00
    7    3    0     11.23      0.00
    7    3    1      0.16      0.00
    7    3    2     19.23      0.00
    7    3    3     -5.86      0.00
    7    3    4     13.50      0.00
    7    3    5      3.01      0.00
    7    3    6     -0.71      0.00
    7    3    7     -6.28      0.00
    7    3    8      2.67      0.00
    7    3    9     -7.52      0.00
    7    3   10      1.14      0.00
    7    3   11     -4.43      0.00
    7    3   12     -2.34      0.00
    7    3   13     -4.00      0.00
    7    3   14      3.02      0.00
    7    3   15     -1.43      0.00
    7    3   16     -1.30      0.00
    7    3   17     -0.59      0.00
    7    3   18      1.34      0.00
    7    3   19      0.77      0.00
    7    3   20     -0.06      0.00
    7    3   21     -0.16      0.00
    7    3   22      1.00      0.00
    7    3   23      1.12      0.00
   -7   -4   17     -0.14      0.00
   -7   -4   16     -1.89      0.00
   -7   -4   15     -0.88      0.00
   -7   -4   14     -0.28      0.00
   -7   -4   13     -0.47      0.00
   -7   -4   12     -0.34      0.00
   -7   -4   11      0.56      0.00
   -7   -4   10     -0.73      0.00
   -7   -4    9     -0.91      0.00
   -7   -4    8     -0.62      0.00
   -7   -4    7      0.64      0.00
   -7   -4    6     -0.31      0.00
   -7   -4    5      0.30      0.00
   -7   -4    4      1.08      0.00
   -7   -4    3      0.34      0.00
   -7   -4    2     10.64      0.00
   -7   -4    1     -0.60      0.00
    7    4    0     -4.21      0.00
    7    4    1    -14.43      0.00
    7    4    2      6.71      0.00
    7    4    3    -11.86      0.00
    7    4    4      8.85      0.00
    7    4    5    -14.34      0.00
    7    4    6     -3.56      0.00
    7    4    7     -7.29      0.00
    7    4    8      9.07      0.00
    7    4    9     -2.87      0.00
    7    4   10     -3.02      0.00
    7    4   11     -2.58      0.00
    7    4   12     -0.77      0.00
    7    4   13      4.01      0.00
    7    4   14      1.08      0.00
    7    4   15     -1.90      0.00
    7    4   16      1.71      0.00
    7    4   17     -0.43      0.00
    7    4   18      0.22      0.00
    7    4   19     -0.43      0.00
    7    4   20     -0.82      0.00
    7    4   21     -0.30      0.00
    7    4   22      0.24      0.00
    7    4   23     -0.27      0.00
   -7   -5   17     -1.45      0.00
   -7   -5   16     -1.49      0.00
   -7   -5   15     -0.95      0.00
   -7   -5   14     -1.64      0.00
   -7   -5   13     -1.24      0.00
   -7   -5   12     -0.80      0.00
   -7   -5   11     -0.36      0.00
   -7   -5   10      1.47      0.00
   -7   -5    9     -0.93      0.00
   -7   -5    8      0.72      0.00
   -7   -5    7      0.46      0.00
   -7   -5    6      0.00      0.00
   -7   -5    5      0.53      0.00
   -7   -5    4      4.64      0.00
   -7   -5    3     -0.93      0.00
   -7   -5    2      6.85      0.00
   -7   -5    1     -3.93      0.00
    7    5    0      0.92      0.00
    7    5    1     -8.00      0.00
    7    5    2      0.55      0.00
    7    5    3    -13.14      0.00
    7    5    4      1.70      0.00
    7    5    5    -13.65      0.00
    7    5    6     -3.89      0.00
    7    5    7      5.08      0.00
    7    5    8     -1.24      0.00
    7    5    9     -5.82      0.00
    7    5   10      0.83      0.00
    7    5   11      1.19      0.00
    7    5   12      1.21      0.00
    7    5   13      1.98      0.00
    7    5   14     -0.20      0.00
    7    5   15      0.53      0.00
    7    5   16      0.16      0.00
    7    5   17      0.90      0.00
    7    5   18     -0.15      0.00
    7    5   19      2.01      0.00
    7    5   20      0.25      0.00
    7    5   21      0.04      0.00
    7    5   22     -0.83      0.00
    7    5   23      0.72      0.00
    7    5   24     -0.63      0.00
   -7   -6   17     -1.15      0.00
   -7   -6   16     -0.48      0.00
   -7   -6   15     -1.60      0.00
   -7   -6   14     -0.34      0.00
   -7   -6   13      0.64      0.00
   -7   -6   12      1.45      0.00
   -7   -6   11      1.24      0.00
   -7   -6   10      0.75      0.00
   -7   -6    9      0.68      0.00
   -7   -6    8      0.97      0.00
   -7   -6    7     -0.37      0.00
   -7   -6    6      0.70      0.00
   -7   -6    5      0.15      0.00
   -7   -6    4     -1.10      0.00
   -7   -6    3     -1.89      0.00
   -7   -6    2      1.18      0.00
   -7   -6    1     -5.02      0.00
    7    6    0      0.89      0.00
    7    6    1     -0.72      0.00
    7    6    2     -1.34      0.00
    7    6    3     -5.88      0.00
    7    6    4      7.62      0.00
    7    6    5     -2.15      0.00
    7    6    6      0.45      0.00
    7    6    7     -2.21      0.00
    7    6    8     -1.19      0.00
    7    6    9      6.92      0.00
    7    6   10      2.65      0.00
    7    6   11      0.80      0.00
    7    6   12     -0.30      0.00
    7    6   13      1.33      0.00
    7    6   14     -1.05      0.00
    7    6   15     -1.41      0.00
    7    6   16     -0.44      0.00
    7    6   17     -1.29      0.00
    7    6   18      0.51      0.00
    7    6   19      0.54      0.00
    7    6   20     -0.23      0.00
    7    6   21      1.02      0.00
    7    6   22     -1.95      0.00
    7    6   23     -0.24      0.00
    7    6   24     -1.50      0.00
   -7   -7   17     -1.40      0.00
   -7   -7   16     -0.78      0.00
   -7   -7   15     -0.91      0.00
   -7   -7   14     -0.84      0.00
   -7   -7   13      0.11      0.00
   -7   -7   12     -0.93      0.00
   -7   -7   11     -0.12      0.00
   -7   -7   10      0.60      0.00
   -7   -7    9     -0.57      0.00
   -7   -7    8      0.14      0.00
   -7   -7    7     -1.37      0.00
   -7   -7    6      0.44      0.00
   -7   -7    5      0.50      0.00
   -7   -7    4     -2.47      0.00
   -7   -7    3     -0.62      0.00
   -7   -7    2     -2.42      0.00
   -7   -7    1      0.98      0.00
    7    7    0      4.26      0.00
    7    7    1     -0.16      0.00
    7    7    2     -2.17      0.00
    7    7    3      4.33      0.00
    7    7    4      3.35      0.00
    7    7    5     -1.53      0.00
    7    7    6      2.62      0.00
    7    7    7     -0.51      0.00
    7    7    8     -4.60      0.00
    7    7    9      4.61      0.00
    7    7   10      0.61      0.00
    7    7   11     -1.07      0.00
    7    7   12     -2.28      0.00
    7    7   13      0.54      0.00
    7    7   14     -1.85      0.00
    7    7   15     -0.14      0.00
    7    7   16     -1.38      0.00
    7    7   17     -1.70      0.00
    7    7   18      0.59      0.00
    7    7   19     -0.11      0.00
    7    7   20      0.66      0.00
    7    7   21      0.50      0.00
    7    7   22      1.02      0.00
    7    7   23     -1.54      0.00
   -7   -8   17     -0.41      0.00
   -7   -8   16     -0.25      0.00
   -7   -8   15     -0.30      0.00
   -7   -8   14      0.61      0.00
   -7   -8   13     -0.96      0.00
   -7   -8   12      0.10      0.00
   -7   -8   11      1.45      0.00
   -7   -8   10     -1.14      0.00
   -7   -8    9      2.11      0.00
   -7   -8    8     -1.25      0.00
   -7   -8    7      2.12      0.00
   -7   -8    6      1.18      0.00
   -7   -8    5      1.63      0.00
   -7   -8    4     -1.95      0.00
   -7   -8    3      1.56      0.00
   -7   -8    2     -1.69      0.00
   -7   -8    1      1.40      0.00
    7    8    0      1.63      0.00
    7    8    1      0.75      0.00
    7    8    2     -4.07      0.00
    7    8    3      1.59      0.00
    7    8    4      0.09      0.00
    7    8    5      1.26      0.00
    7    8    6     -0.17      0.00
    7    8    7     -2.23      0.00
    7    8    8     -0.04      0.00
    7    8    9      2.21      0.00
    7    8   10     -3.23      0.00
    7    8   11     -0.83      0.00
    7    8   12     -0.63      0.00
    7    8   13     -0.89      0.00
    7    8   14      0.44      0.00
    7    8   15      0.09      0.00
    7    8   16      0.47      0.00
    7    8   17      2.35      0.00
    7    8   18      0.65      0.00
    7    8   19      1.02      0.00
    7    8   20     -0.30      0.00
    7    8   21     -0.26      0.00
    7    8   22     -0.79      0.00
    7    8   23      0.91      0.00
   -7   -9   16      0.21      0.00
   -7   -9   15      1.23      0.00
   -7   -9   14      0.69      0.00
   -7   -9   13      0.36      0.00
   -7   -9   12     -2.15      0.00
   -7   -9   11      0.47      0.00
   -7   -9   10     -0.66      0.00
   -7   -9    9      0.56      0.00
   -7   -9    8     -0.46      0.00
   -7   -9    7      1.35      0.00
   -7   -9    6      0.51      0.00
   -7   -9    5      1.81      0.00
   -7   -9    4      1.98      0.00
   -7   -9    3      4.14      0.00
   -7   -9    2     -0.07      0.00
   -7   -9    1      1.27      0.00
    7    9    0     -2.11      0.00
    7    9    1      0.16      0.00
    7    9    2      1.52      0.00
    7    9    3      1.00      0.00
    7    9    4     -4.75      0.00
    7    9    5     -1.03      0.00
    7    9    6      1.87      0.00
    7    9    7     -2.12      0.00
    7    9    8      0.50      0.00
    7    9    9     -0.13      0.00
    7    9   10     -0.07      0.00
    7    9   11      0.72      0.00
    7    9   12      1.20      0.00
    7    9   13     -0.54      0.00
    7    9   14      0.35      0.00
    7    9   15      0.09      0.00
    7    9   16      0.50      0.00
    7    9   17     -1.27      0.00
    7    9   18      0.03      0.00
    7    9   19     -0.86      0.00
    7    9   20     -0.04      0.00
    7    9   21      0.84      0.00
    7    9   22     -0.11      0.00
    7    9   23     -0.19      0.00
   -7  -10   16      0.71      0.00
   -7  -10   15     -2.03      0.00
   -7  -10   14      0.40      0.00
   -7  -10   13      0.27      0.00
   -7  -10   12     -0.78      0.00
   -7  -10   11     -1.55      0.00
   -7  -10   10     -0.87      0.00
   -7  -10    9      1.30      0.00
   -7  -10    8     -0.37      0.00
   -7  -10    7      0.68      0.00
   -7  -10    6     -0.87      0.00
   -7  -10    5      0.25      0.00
   -7  -10    4      0.60      0.00
   -7  -10    3      0.20      0.00
   -7  -10    2     -2.24      0.00
   -7  -10    1      1.77      0.00
    7   10    0      0.47      0.00
    7   10    1     -1.34      0.00
    7   10    2      1.98      0.00
    7   10    3     -4.81      0.00
    7   10    4     -0.17      0.00
    7   10    5     -1.82      0.00
    7   10    6      0.24      0.00
    7   10    7     -3.35      0.00
    7   10    8      1.14      0.00
    7   10    9     -2.46      0.00
    7   10   10      2.04      0.00
    7   10   11      1.96      0.00
    7   10   12     -0.10      0.00
    7   10   13     -1.40      0.00
    7   10   14      0.96      0.00
    7   10   15      0.09      0.00
    7   10   16     -1.08      0.00
    7   10   17      1.14      0.00
    7   10   18     -0.65      0.00
    7   10   19      0.85      0.00
    7   10   20      0.38      0.00
    7   10   21      0.22      0.00
    7   10   22     -0.02      0.00
   -7  -11   15     -1.36      0.00
   -7  -11   14     -0.02      0.00
   -7  -11   13     -1.54      0.00
   -7  -11   12      0.90      0.00
   -7  -11   11     -0.46      0.00
   -7  -11   10     -0.49      0.00
   -7  -11    9     -0.23      0.00
   -7  -11    8     -0.25      0.00
   -7  -11    7      1.64      0.00
   -7  -11    6      0.31      0.00
   -7  -11    5      0.88      0.00
   -7  -11    4     -1.40      0.00
   -7  -11    3     -0.95      0.00
   -7  -11    2      0.53      0.00
   -7  -11    1     -0.30      0.00
    7   11    0      0.30      0.00
    7   11    1     -2.92      0.00
    7   11    2     -0.08      0.00
    7   11    3     -2.14      0.00
    7   11    4      1.76      0.00
    7   11    5      0.51      0.00
    7   11    6     -1.24      0.00
    7   11    7     -0.57      0.00
    7   11    8      1.45      0.00
    7   11    9      0.12      0.00
    7   11   10      1.14      0.00
    7   11   11     -0.29      0.00
    7   11   12     -0.27      0.00
    7   11   13     -0.93      0.00
    7   11   14      0.11      0.00
    7   11   15     -1.54      0.00
    7   11   16     -0.60      0.00
    7   11   17     -1.96      0.00
    7   11   18     -0.41      0.00
    7   11   19      0.74      0.00
    7   11   20      0.47      0.00
    7   11   21     -0.27      0.00
   -7  -12   14     -0.52      0.00
   -7  -12   13     -1.04      0.00
   -7  -12   12     -0.71      0.00
   -7  -12   11     -1.54      0.00
   -7  -12   10     -1.49      0.00
   -7  -12    9      0.11      0.00
   -7  -12    8      0.38      0.00
   -7  -12    7     -1.12      0.00
   -7  -12    6     -0.55      0.00
   -7  -12    5     -0.45      0.00
   -7  -12    4      0.36      0.00
   -7  -12    3     -0.03      0.00
   -7  -12    2      1.20      0.00
   -7  -12    1     -0.02      0.00
    7   12    0     -0.91      0.00
    7   12    1     -0.43      0.00
    7   12    2      1.02      0.00
    7   12    3      0.05      0.00
    7   12    4      1.09      0.00
    7   12    5      0.29      0.00
    7   12    6      0.88      0.00
    7   12    7      2.12      0.00
    7   12    8      0.18      0.00
    7   12    9     -1.46      0.00
    7   12   10      0.04      0.00
    7   12   11     -0.24      0.00
    7   12   12     -0.59      0.00
    7   12   13     -0.28      0.00
    7   12   14     -1.04      0.00
    7   12   15     -0.14      0.00
    7   12   16     -0.02      0.00
    7   12   17      1.11      0.00
    7   12   18      0.92      0.00
    7   12   19     -1.06      0.00
    7   12   20     -0.45      0.00
    7   12   21     -1.75      0.00
    7   12   22      0.12      0.00
   -7  -13   13     -0.35      0.00
   -7  -13   12      0.07      0.00
   -7  -13   11     -0.34      0.00
   -7  -13   10      1.07      0.00
   -7  -13    9     -1.31      0.00
   -7  -13    8      1.57      0.00
   -7  -13    7     -0.54      0.00
   -7  -13    6     -0.20      0.00
   -7  -13    5      0.61      0.00
   -7  -13    4      0.20      0.00
   -7  -13    3      0.96      0.00
   -7  -13    2     -0.42      0.00
   -7  -13    1     -0.73      0.00
    7   13    0      1.03      0.00
    7   13    1      0.92      0.00
    7   13    2      0.47      0.00
    7   13    3     -0.87      0.00
    7   13    4     -0.02      0.00
    7   13    7      1.58      0.00
    7   13    8     -1.03      0.00
    7   13    9     -0.29      0.00
    7   13   10      0.76      0.00
    7   13   11     -0.06      0.00
    7   13   12     -0.98      0.00
    7   13   13      0.62      0.00
    7   13   14     -0.44      0.00
    7   13   15     -0.23      0.00
    7   13   16      1.19      0.00
    7   13   17     -0.14      0.00
    7   13   18     -0.31      0.00
    7   13   19     -0.23      0.00
    7   13   20     -0.28      0.00
    7   13   21      0.32      0.00
   -7  -14   12     -0.02      0.00
   -7  -14   11      0.39      0.00
   -7  -14   10      1.81      0.00
   -7  -14    9     -0.61      0.00
   -7  -14    8     -0.90      0.00
   -7  -14    7     -0.77      0.00
   -7  -14    6      0.73      0.00
   -7  -14    5      0.79      0.00
   -7  -14    4      0.49      0.00
   -7  -14    3     -0.29      0.00
   -7  -14    2      0.49      0.00
   -7  -14    1      0.17      0.00
    7   14    0      0.48      0.00
    7   14    1     -0.03      0.00
    7   14    2     -1.42      0.00
    7   14    3      1.14      0.00
    7   14    9     -0.07      0.00
    7   14   10     -0.99      0.00
    7   14   11      0.60      0.00
    7   14   12      0.28      0.00
    7   14   13      1.88      0.00
    7   14   14     -0.96      0.00
    7   14   15      0.30      0.00
    7   14   16      0.63      0.00
    7   14   17     -0.35      0.00
    7   14   18     -1.10      0.00
    7   14   19      0.23      0.00
   -7  -15   13     -1.82      0.00
   -7  -15   12     -0.70      0.00
   -7  -15   11     -1.72      0.00
   -7  -15   10      0.34      0.00
   -7  -15    9     -1.44      0.00
   -7  -15    8      1.16      0.00
   -7  -15    7     -0.10      0.00
   -7  -15    6      1.54      0.00
   -7  -15    5      0.69      0.00
   -7  -15    4      1.50      0.00
   -7  -15    3      0.00      0.00
   -7  -15    2     -0.95      0.00
   -7  -15    1     -0.14      0.00
    7   15    0     -0.38      0.00
    7   15    1      0.58      0.00
    7   15    2     -0.54      0.00
    7   15   10     -0.65      0.00
    7   15   11      0.13      0.00
    7   15   12      0.32      0.00
    7   15   13     -0.02      0.00
    7   15   14     -0.76      0.00
    7   15   15     -0.79      0.00
    7   15   16     -0.58      0.00
    7   15   17      1.21      0.00
    7   15   18      1.39      0.00
   -7  -16   12      0.87      0.00
   -7  -16   11     -1.05      0.00
   -7  -16   10      0.28      0.00
   -7  -16    9     -1.44      0.00
   -7  -16    8      0.91      0.00
   -7  -16    7      0.23      0.00
   -7  -16    6      0.16      0.00
   -7  -16    5      0.29      0.00
   -7  -16    4     -1.14      0.00
   -7  -16    3     -0.04      0.00
   -7  -16    2      0.17      0.00
   -7  -16    1      1.05      0.00
    7   16    0     -0.12      0.00
    7   16    1     -0.13      0.00
    7   16   11      0.31      0.00
    7   16   12     -0.78      0.00
    7   16   13     -0.22      0.00
    7   16   14      0.46      0.00
    7   16   15     -0.28      0.00
    7   16   16     -1.00      0.00
    7   16   17     -0.59      0.00
    7   16   18      1.50      0.00
   -7  -17   12     -0.33      0.00
   -7  -17   11      0.25      0.00
   -7  -17   10      2.83      0.00
   -7  -17    9     -0.13      0.00
   -7  -17    8      0.40      0.00
   -7  -17    6      0.01      0.00
   -7  -17    5     -0.54      0.00
   -7  -17    4      0.63      0.00
   -7  -17    3     -1.47      0.00
   -7  -17    2     -0.18      0.00
   -7  -17    1     -0.13      0.00
    7   17    0     -0.67      0.00
    7   17    1     -1.01      0.00
    7   17   13      0.38      0.00
   -7  -18   11     -0.21      0.00
   -7  -18   10     -1.28      0.00
   -7  -18    9     -1.28      0.00
   -7  -18    3      0.79      0.00
   -7  -18    2      0.02      0.00
   -7  -18    1     -1.12      0.00
    7   18    0      1.76      0.00
    8  -19    7     -0.31      0.00
    8  -18    1     -2.26      0.00
    8  -18    6     -1.07      0.00
    8  -18    7     -0.75      0.00
   -8   17    4     -0.49      0.00
   -8   17    0      0.00      0.00
    8  -17    1      1.56      0.00
    8  -17    2     -1.66      0.00
    8  -17    5      0.09      0.00
    8  -17    6     -0.91      0.00
    8  -17    7     -0.66      0.00
   -8   16    3     -0.38      0.00
   -8   16    2     -0.24      0.00
   -8   16    1      1.24      0.00
   -8   16    0     -0.62      0.00
    8  -16    1     -2.18      0.00
    8  -16    2      1.08      0.00
    8  -16    3     -0.18      0.00
    8  -16    4     -0.71      0.00
    8  -16    5     -1.93      0.00
    8  -16    6      0.87      0.00
    8  -16    7     -2.13      0.00
    8  -16    8     -0.65      0.00
    8  -16   16     -2.08      0.00
   -8   15    9      0.94      0.00
   -8   15    8     -0.26      0.00
   -8   15    4     -1.96      0.00
   -8   15    3      0.88      0.00
   -8   15    2     -1.07      0.00
   -8   15    1     -0.84      0.00
   -8   15    0      0.00      0.00
    8  -15    1     -0.66      0.00
    8  -15    2      0.03      0.00
    8  -15    3      0.77      0.00
    8  -15    4      1.93      0.00
    8  -15    5     -1.55      0.00
    8  -15    6     -1.26      0.00
    8  -15    7      1.17      0.00
    8  -15    9     -0.75      0.00
    8  -15   15      0.98      0.00
    8  -15   16     -0.66      0.00
    8  -15   17     -1.68      0.00
    8  -15   18     -0.88      0.00
   -8   14   10     -0.46      0.00
   -8   14    9      0.73      0.00
   -8   14    7     -1.12      0.00
   -8   14    6     -1.01      0.00
   -8   14    5     -1.62      0.00
   -8   14    4      0.99      0.00
   -8   14    3     -1.77      0.00
   -8   14    2      0.83      0.00
   -8   14    1     -0.96      0.00
   -8   14    0     -1.40      0.00
    8  -14    1     -0.21      0.00
    8  -14    2      1.80      0.00
    8  -14    3      0.00      0.00
    8  -14    4     -1.16      0.00
    8  -14    5      0.10      0.00
    8  -14    6     -0.63      0.00
    8  -14    7      0.74      0.00
    8  -14    8      0.93      0.00
    8  -14    9      1.47      0.00
    8  -14   10      0.58      0.00
    8  -14   11      1.72      0.00
    8  -14   12      0.30      0.00
   -8   13    9      2.19      0.00
   -8   13    8     -2.61      0.00
   -8   13    7      2.78      0.00
   -8   13    6      2.92      0.00
   -8   13    5     -1.70      0.00
   -8   13    4      1.91      0.00
   -8   13    3      0.92      0.00
   -8   13    2     -2.87      0.00
   -8   13    1     -0.13      0.00
   -8   13    0      0.80      0.00
    8  -13    1      0.78      0.00
    8  -13    2      0.17      0.00
    8  -13    3      0.58      0.00
    8  -13    4     -1.29      0.00
    8  -13    5      0.51      0.00
    8  -13    6      0.09      0.00
    8  -13    7      1.86      0.00
    8  -13    8     -0.27      0.00
    8  -13    9      0.69      0.00
    8  -13   10      0.38      0.00
    8  -13   11     -1.33      0.00
    8  -13   12     -0.59      0.00
    8  -13   13      0.10      0.00
    8  -13   14     -1.58      0.00
    8  -13   15     -0.87      0.00
    8  -13   16     -1.88      0.00
    8  -13   17     -0.12      0.00
    8  -13   19      0.96      0.00
   -8   12   10      1.34      0.00
   -8   12    9     -1.83      0.00
   -8   12    8     -0.23      0.00
   -8   12    7     -4.04      0.00
   -8   12    6      0.48      0.00
   -8   12    5     -0.44      0.00
   -8   12    4     -0.34      0.00
   -8   12    3      0.58      0.00
   -8   12    2     -0.11      0.00
   -8   12    1     -0.79      0.00
   -8   12    0     -0.06      0.00
    8  -12    1     -0.31      0.00
    8  -12    2      0.13      0.00
    8  -12    3     -0.23      0.00
    8  -12    4     -0.35      0.00
    8  -12    5      0.61      0.00
    8  -12    6      0.01      0.00
    8  -12    7      1.56      0.00
    8  -12    8      0.79      0.00
    8  -12    9      0.39      0.00
    8  -12   10     -0.34      0.00
    8  -12   11      0.89      0.00
    8  -12   12      0.97      0.00
    8  -12   13     -1.02      0.00
    8  -12   14      0.50      0.00
    8  -12   15     -0.19      0.00
    8  -12   16      0.03      0.00
    8  -12   17      0.84      0.00
    8  -12   18     -0.61      0.00
   -8   11   11     -0.67      0.00
   -8   11   10     -0.74      0.00
   -8   11    9      0.02      0.00
   -8   11    8      3.87      0.00
   -8   11    7     -2.04      0.00
   -8   11    6     -1.88      0.00
   -8   11    5     -2.03      0.00
   -8   11    4      1.25      0.00
   -8   11    3      0.12      0.00
   -8   11    2     -0.27      0.00
   -8   11    1      0.07      0.00
   -8   11    0     -0.27      0.00
    8  -11    1      1.24      0.00
    8  -11    2     -1.00      0.00
    8  -11    3      0.05      0.00
    8  -11    4     -2.31      0.00
    8  -11    5      0.69      0.00
    8  -11    6     -0.09      0.00
    8  -11    7     -1.52      0.00
    8  -11    8     -0.67      0.00
    8  -11    9     -1.03      0.00
    8  -11   10     -0.65      0.00
    8  -11   11      0.12      0.00
    8  -11   12      0.24      0.00
    8  -11   13     -1.05      0.00
    8  -11   14     -0.14      0.00
    8  -11   15     -0.43      0.00
    8  -11   16     -1.00      0.00
    8  -11   19     -0.12      0.00
    8  -11   20     -0.95      0.00
   -8   10   14      1.41      0.00
   -8   10   13     -0.38      0.00
   -8   10   12     -0.92      0.00
   -8   10   11     -0.23      0.00
   -8   10   10      1.00      0.00
   -8   10    9     -0.32      0.00
   -8   10    8      0.05      0.00
   -8   10    7     -0.98      0.00
   -8   10    6      0.68      0.00
   -8   10    5      1.56      0.00
   -8   10    4      0.03      0.00
   -8   10    3      1.85      0.00
   -8   10    2     -2.00      0.00
   -8   10    1      2.49      0.00
   -8   10    0     -0.95      0.00
    8  -10    1      0.37      0.00
    8  -10    2      0.31      0.00
    8  -10    3     -1.42      0.00
    8  -10    4      1.12      0.00
    8  -10    5      0.14      0.00
    8  -10    6     -2.23      0.00
    8  -10    7     -0.92      0.00
    8  -10    8     -0.43      0.00
    8  -10    9      0.70      0.00
    8  -10   10     -0.01      0.00
    8  -10   11     -0.41      0.00
    8  -10   12     -0.40      0.00
    8  -10   13      1.49      0.00
    8  -10   14      2.05      0.00
    8  -10   15      0.60      0.00
    8  -10   16      1.51      0.00
    8  -10   17      1.50      0.00
    8  -10   18      0.05      0.00
    8  -10   19     -1.20      0.00
    8  -10   20      0.62      0.00
   -8    9   15     -0.16      0.00
   -8    9   14      0.25      0.00
   -8    9   13      0.19      0.00
   -8    9   12      0.80      0.00
   -8    9   11     -0.65      0.00
   -8    9   10     -0.80      0.00
   -8    9    9     -1.03      0.00
   -8    9    8     -0.37      0.00
   -8    9    7     -0.06      0.00
   -8    9    6     -1.01      0.00
   -8    9    5     -0.22      0.00
   -8    9    4     -0.52      0.00
   -8    9    3     -0.18      0.00
   -8    9    2      2.10      0.00
   -8    9    1      1.73      0.00
   -8    9    0      0.21      0.00
    8   -9    1     -1.55      0.00
    8   -9    2      1.07      0.00
    8   -9    3     -0.77      0.00
    8   -9    4     -0.51      0.00
    8   -9    5     -0.04      0.00
    8   -9    6     -0.80      0.00
    8   -9    7     -0.22      0.00
    8   -9    8      2.01      0.00
    8   -9    9     -0.12      0.00
    8   -9   10     -0.53      0.00
    8   -9   11      0.40      0.00
    8   -9   12     -1.00      0.00
    8   -9   13      0.02      0.00
    8   -9   14     -0.13      0.00
    8   -9   15      0.95      0.00
    8   -9   16      1.05      0.00
    8   -9   17      0.12      0.00
    8   -9   18      0.89      0.00
    8   -9   19     -0.15      0.00
    8   -9   20     -2.48      0.00
    8   -9   21      0.96      0.00
   -8    8   15      0.36      0.00
   -8    8   14      0.91      0.00
   -8    8   13      1.03      0.00
   -8    8   12     -0.25      0.00
   -8    8   11      0.29      0.00
   -8    8   10     -1.41      0.00
   -8    8    9      0.19      0.00
   -8    8    8      1.71      0.00
   -8    8    7      0.46      0.00
   -8    8    6     -1.38      0.00
   -8    8    5      0.51      0.00
   -8    8    4      1.85      0.00
   -8    8    3      0.75      0.00
   -8    8    2     -0.55      0.00
   -8    8    1     -1.51      0.00
   -8    8    0     -1.66      0.00
    8   -8    1      0.88      0.00
    8   -8    2      0.40      0.00
    8   -8    3      0.07      0.00
    8   -8    4     -0.35      0.00
    8   -8    5     -0.17      0.00
    8   -8    6      0.18      0.00
    8   -8    7      2.04      0.00
    8   -8    8      0.56      0.00
    8   -8    9     -0.66      0.00
    8   -8   10      0.64      0.00
    8   -8   11      0.31      0.00
    8   -8   12      0.68      0.00
    8   -8   13      0.42      0.00
    8   -8   14     -1.61      0.00
    8   -8   15     -1.49      0.00
    8   -8   16     -1.48      0.00
    8   -8   17      0.96      0.00
    8   -8   18     -2.10      0.00
    8   -8   19      0.23      0.00
    8   -8   20      0.03      0.00
    8   -8   21     -0.75      0.00
   -8    7   15     -1.01      0.00
   -8    7   14      0.41      0.00
   -8    7   13      0.19      0.00
   -8    7   12      1.48      0.00
   -8    7   11     -0.25      0.00
   -8    7   10     -1.15      0.00
   -8    7    9      0.34      0.00
   -8    7    8     -1.22      0.00
   -8    7    7     -1.68      0.00
   -8    7    6      0.13      0.00
   -8    7    5     -0.03      0.00
   -8    7    4     -1.85      0.00
   -8    7    3     -2.17      0.00
   -8    7    2     -1.06      0.00
   -8    7    1     -0.77      0.00
   -8    7    0      0.57      0.00
    8   -7    1      0.52      0.00
    8   -7    2     -1.36      0.00
    8   -7    3     -2.15      0.00
    8   -7    4      1.57      0.00
    8   -7    5      1.72      0.00
    8   -7    6      3.20      0.00
    8   -7    7      0.33      0.00
    8   -7    8      0.36      0.00
    8   -7    9      0.50      0.00
    8   -7   10      3.32      0.00
    8   -7   11     -0.33      0.00
    8   -7   12      0.50      0.00
    8   -7   13     -1.30      0.00
    8   -7   14      0.95      0.00
    8   -7   15     -0.92      0.00
    8   -7   16     -1.65      0.00
    8   -7   17     -1.61      0.00
    8   -7   18     -0.18      0.00
    8   -7   19     -0.03      0.00
    8   -7   20     -0.44      0.00
    8   -7   21      2.27      0.00
    8   -7   22     -1.15      0.00
   -8    6   15      0.68      0.00
   -8    6   14      0.51      0.00
   -8    6   13     -0.40      0.00
   -8    6   12     -1.28      0.00
   -8    6   11     -0.59      0.00
   -8    6   10      0.05      0.00
   -8    6    9     -0.92      0.00
   -8    6    8      0.66      0.00
   -8    6    7      0.85      0.00
   -8    6    6      0.61      0.00
   -8    6    5     -0.36      0.00
   -8    6    4     -1.69      0.00
   -8    6    3      1.12      0.00
   -8    6    2      2.19      0.00
   -8    6    1     -1.61      0.00
   -8    6    0     -0.19      0.00
    8   -6    1      0.71      0.00
    8   -6    2      0.94      0.00
    8   -6    3      5.45      0.00
    8   -6    4      3.38      0.00
    8   -6    5     -3.51      0.00
    8   -6    6      0.42      0.00
    8   -6    7     -0.88      0.00
    8   -6    8     -0.11      0.00
    8   -6    9      1.37      0.00
    8   -6   10     -1.01      0.00
    8   -6   11     -1.34      0.00
    8   -6   12      0.00      0.00
    8   -6   13      0.22      0.00
    8   -6   14     -1.82      0.00
    8   -6   15     -0.76      0.00
    8   -6   16      0.03      0.00
    8   -6   17     -0.23      0.00
    8   -6   18      0.00      0.00
    8   -6   19      1.40      0.00
    8   -6   20     -0.32      0.00
    8   -6   21      0.13      0.00
    8   -6   22      1.33      0.00
   -8    5   15      1.85      0.00
   -8    5   14      1.47      0.00
   -8    5   13     -1.12      0.00
   -8    5   12     -0.96      0.00
   -8    5   11     -1.39      0.00
   -8    5   10      0.81      0.00
   -8    5    9      1.87      0.00
   -8    5    8     -0.56      0.00
   -8    5    7      0.81      0.00
   -8    5    6      0.68      0.00
   -8    5    5     -2.21      0.00
   -8    5    4      0.24      0.00
   -8    5    3      2.02      0.00
   -8    5    2      1.43      0.00
   -8    5    1      0.32      0.00
   -8    5    0      0.53      0.00
    8   -5    1      2.39      0.00
    8   -5    2      1.26      0.00
    8   -5    3      0.70      0.00
    8   -5    4     -3.58      0.00
    8   -5    5     -2.22      0.00
    8   -5    6     -0.02      0.00
    8   -5    7      0.36      0.00
    8   -5    8     -1.57      0.00
    8   -5    9     -0.69      0.00
    8   -5   10     -1.29      0.00
    8   -5   11      1.17      0.00
    8   -5   12      0.26      0.00
    8   -5   13     -0.81      0.00
    8   -5   14     -0.47      0.00
    8   -5   15      1.73      0.00
    8   -5   16     -0.70      0.00
    8   -5   17      2.61      0.00
    8   -5   18     -0.26      0.00
    8   -5   19      1.51      0.00
    8   -5   20      0.46      0.00
    8   -5   21      2.05      0.00
    8   -5   22     -0.15      0.00
   -8    4   16      0.14      0.00
   -8    4   15     -0.03      0.00
   -8    4   14      0.51      0.00
   -8    4   13     -0.33      0.00
   -8    4   12      0.30      0.00
   -8    4   11      1.43      0.00
   -8    4   10      0.28      0.00
   -8    4    9     -0.27      0.00
   -8    4    8      0.74      0.00
   -8    4    7     -0.67      0.00
   -8    4    6      2.57      0.00
   -8    4    5     -0.45      0.00
   -8    4    4     -0.20      0.00
   -8    4    3      2.62      0.00
   -8    4    2     -2.08      0.00
   -8    4    1      1.25      0.00
   -8    4    0      2.16      0.00
    8   -4    1     -4.42      0.00
    8   -4    2     -1.25      0.00
    8   -4    3      2.58      0.00
    8   -4    4     -4.75      0.00
    8   -4    5      4.60      0.00
    8   -4    6      0.23      0.00
    8   -4    7     -1.19      0.00
    8   -4    8     -1.57      0.00
    8   -4    9      2.64      0.00
    8   -4   10     -2.48      0.00
    8   -4   11      2.38      0.00
    8   -4   12      2.00      0.00
    8   -4   13     -0.32      0.00
    8   -4   14      1.82      0.00
    8   -4   15      1.82      0.00
    8   -4   16      0.46      0.00
    8   -4   17      0.38      0.00
    8   -4   18      1.18      0.00
    8   -4   19      0.80      0.00
    8   -4   20     -0.08      0.00
    8   -4   21      0.37      0.00
    8   -4   22      0.13      0.00
   -8    3   16      0.01      0.00
   -8    3   15     -2.40      0.00
   -8    3   14     -1.39      0.00
   -8    3   13     -1.33      0.00
   -8    3   12      0.33      0.00
   -8    3   11     -1.42      0.00
   -8    3   10      0.49      0.00
   -8    3    9     -0.47      0.00
   -8    3    8     -0.42      0.00
   -8    3    7      0.47      0.00
   -8    3    6     -2.16      0.00
   -8    3    5      0.90      0.00
   -8    3    4     -1.00      0.00
   -8    3    3      0.34      0.00
   -8    3    2     -0.33      0.00
   -8    3    1      5.59      0.00
   -8    3    0     -6.01      0.00
    8   -3    1     -0.80      0.00
    8   -3    2     -6.33      0.00
    8   -3    3      1.74      0.00
    8   -3    4     -4.60      0.00
    8   -3    5      1.56      0.00
    8   -3    6     -1.46      0.00
    8   -3    7      0.96      0.00
    8   -3    8      2.13      0.00
    8   -3    9      3.15      0.00
    8   -3   10      0.45      0.00
    8   -3   11      1.25      0.00
    8   -3   12     -0.47      0.00
    8   -3   13     -0.21      0.00
    8   -3   14      1.66      0.00
    8   -3   15     -0.85      0.00
    8   -3   16      2.05      0.00
    8   -3   17     -0.69      0.00
    8   -3   18     -0.48      0.00
    8   -3   19     -0.90      0.00
    8   -3   20      1.77      0.00
    8   -3   21      0.41      0.00
    8   -3   22      0.52      0.00
   -8    2   15      0.14      0.00
   -8    2   14     -1.26      0.00
   -8    2   13      0.24      0.00
   -8    2   12     -0.87      0.00
   -8    2   11      0.17      0.00
   -8    2   10      0.94      0.00
   -8    2    9      1.80      0.00
   -8    2    8     -1.80      0.00
   -8    2    7      2.32      0.00
   -8    2    6      0.16      0.00
   -8    2    5      1.82      0.00
   -8    2    4     -2.15      0.00
   -8    2    3     -3.00      0.00
   -8    2    2     -4.05      0.00
   -8    2    1      5.03      0.00
   -8    2    0     -2.49      0.00
    8   -2    1      1.56      0.00
    8   -2    2     -0.32      0.00
    8   -2    3     -2.03      0.00
    8   -2    4      3.27      0.00
    8   -2    5      9.38      0.00
    8   -2    6      1.34      0.00
    8   -2    7     -0.06      0.00
    8   -2    8      3.90      0.00
    8   -2    9     -5.19      0.00
    8   -2   10      3.45      0.00
    8   -2   11     -0.73      0.00
    8   -2   12     -1.69      0.00
    8   -2   13     -1.72      0.00
    8   -2   14      1.37      0.00
    8   -2   15     -1.35      0.00
    8   -2   16     -1.00      0.00
    8   -2   17     -2.53      0.00
    8   -2   18      0.53      0.00
    8   -2   19     -0.56      0.00
    8   -2   20      0.81      0.00
    8   -2   21      0.42      0.00
    8   -2   22      0.18      0.00
    8   -2   23     -0.53      0.00
   -8    1   16      0.02      0.00
   -8    1   15      0.83      0.00
   -8    1   14      0.30      0.00
   -8    1   13     -0.92      0.00
   -8    1   12      0.80      0.00
   -8    1   11      1.05      0.00
   -8    1   10     -0.33      0.00
   -8    1    9     -0.58      0.00
   -8    1    8      1.92      0.00
   -8    1    7     -0.44      0.00
   -8    1    6     -1.91      0.00
   -8    1    5     -1.50      0.00
   -8    1    4     -1.44      0.00
   -8    1    3      0.15      0.00
   -8    1    2      4.14      0.00
   -8    1    1      1.14      0.00
   -8    1    0      3.65      0.00
    8   -1    1     -0.74      0.00
    8   -1    2      7.53      0.00
    8   -1    3     -0.13      0.00
    8   -1    4      8.61      0.00
    8   -1    5     -1.36      0.00
    8   -1    6     -3.94      0.00
    8   -1    7     -7.95      0.00
    8   -1    8      1.65      0.00
    8   -1    9     -7.13      0.00
    8   -1   10      0.60      0.00
    8   -1   11     -4.22      0.00
    8   -1   12      1.02      0.00
    8   -1   13     -2.12      0.00
    8   -1   14     -0.10      0.00
    8   -1   15     -1.21      0.00
    8   -1   16      0.01      0.00
    8   -1   17     -0.81      0.00
    8   -1   18     -0.32      0.00
    8   -1   19      0.73      0.00
    8   -1   20      0.98      0.00
    8   -1   21     -0.23      0.00
    8   -1   22      0.35      0.00
    8   -1   23      0.38      0.00
   -8    0   15      0.33      0.00
   -8    0   14      0.10      0.00
   -8    0   13      0.15      0.00
   -8    0   12     -1.38      0.00
   -8    0   11      0.75      0.00
   -8    0   10     -0.07      0.00
   -8    0    9     -0.13      0.00
   -8    0    8     -0.78      0.00
   -8    0    7     -2.15      0.00
   -8    0    6      0.15      0.00
   -8    0    5      2.24      0.00
   -8    0    4      4.05      0.00
   -8    0    3      0.53      0.00
   -8    0    2     -0.55      0.00
   -8    0    1     -2.83      0.00
    8    0    0     -2.04      0.00
    8    0    1      2.08      0.00
    8    0    2     -4.20      0.00
    8    0    3    -10.74      0.00
    8    0    4      6.72      0.00
    8    0    5     -5.88      0.00
    8    0    6      6.13      0.00
    8    0    7     -0.57      0.00
    8    0    8     -4.97      0.00
    8    0    9     -6.97      0.00
    8    0   10      2.93      0.00
    8    0   11     -2.78      0.00
    8    0   12      1.12      0.00
    8    0   13     -0.23      0.00
    8    0   14      0.20      0.00
    8    0   15     -2.02      0.00
    8    0   16      1.52      0.00
    8    0   17     -0.38      0.00
    8    0   18      0.79      0.00
    8    0   19     -0.37      0.00
    8    0   20      0.15      0.00
    8    0   21      0.58      0.00
    8    0   22     -0.73      0.00
    8    0   23      0.42      0.00
   -8   -1   15     -1.25      0.00
   -8   -1   14     -0.62      0.00
   -8   -1   13     -1.07      0.00
   -8   -1   12      0.36      0.00
   -8   -1   11      0.71      0.00
   -8   -1   10     -0.66      0.00
   -8   -1    9     -1.14      0.00
   -8   -1    8     -0.20      0.00
   -8   -1    7     -0.70      0.00
   -8   -1    6      3.33      0.00
   -8   -1    5      3.09      0.00
   -8   -1    4     -1.24      0.00
   -8   -1    3     -1.13      0.00
   -8   -1    2      0.92      0.00
   -8   -1    1     -3.85      0.00
    8    1    0      2.99      0.00
    8    1    1     -0.50      0.00
    8    1    2     -4.33      0.00
    8    1    3     -5.00      0.00
    8    1    4     -0.28      0.00
    8    1    5     -1.41      0.00
    8    1    6      3.37      0.00
    8    1    7      0.21      0.00
    8    1    8      0.32      0.00
    8    1    9      3.77      0.00
    8    1   10      3.11      0.00
    8    1   11     -0.41      0.00
    8    1   12     -2.31      0.00
    8    1   13      1.66      0.00
    8    1   14     -0.98      0.00
    8    1   15      1.85      0.00
    8    1   16     -0.69      0.00
    8    1   17     -0.19      0.00
    8    1   18      1.80      0.00
    8    1   19      1.64      0.00
    8    1   20     -1.04      0.00
    8    1   21     -0.19      0.00
    8    1   22      0.58      0.00
    8    1   23      0.16      0.00
   -8   -2   16     -0.65      0.00
   -8   -2   15     -1.09      0.00
   -8   -2   14      0.56      0.00
   -8   -2   13      1.31      0.00
   -8   -2   12      0.16      0.00
   -8   -2   11     -0.19      0.00
   -8   -2   10     -0.53      0.00
   -8   -2    9      0.20      0.00
   -8   -2    8      2.22      0.00
   -8   -2    7     -0.76      0.00
   -8   -2    6     -1.53      0.00
   -8   -2    5     -4.17      0.00
   -8   -2    4     -0.56      0.00
   -8   -2    3      3.21      0.00
   -8   -2    2      2.35      0.00
   -8   -2    1     -1.34      0.00
    8    2    0     -4.86      0.00
    8    2    1      0.67      0.00
    8    2    2     -5.00      0.00
    8    2    3      9.17      0.00
    8    2    4     -7.28      0.00
    8    2    5     -6.52      0.00
    8    2    6      7.78      0.00
    8    2    7     13.49      0.00
    8    2    8      2.83      0.00
    8    2    9      5.83      0.00
    8    2   10     -2.53      0.00
    8    2   11      1.56      0.00
    8    2   12      2.65      0.00
    8    2   13      0.36      0.00
    8    2   14     -3.62      0.00
    8    2   15      1.73      0.00
    8    2   16      0.55      0.00
    8    2   17      1.69      0.00
    8    2   18     -2.04      0.00
    8    2   19     -1.01      0.00
    8    2   20      0.30      0.00
    8    2   21      1.30      0.00
    8    2   22     -2.17      0.00
    8    2   23     -0.86      0.00
   -8   -3   16      1.15      0.00
   -8   -3   15     -0.38      0.00
   -8   -3   14     -0.52      0.00
   -8   -3   13     -0.26      0.00
   -8   -3   12      0.00      0.00
   -8   -3   11     -0.55      0.00
   -8   -3   10     -0.67      0.00
   -8   -3    9      0.78      0.00
   -8   -3    8      0.36      0.00
   -8   -3    7     -0.91      0.00
   -8   -3    6     -0.14      0.00
   -8   -3    5     -1.86      0.00
   -8   -3    4     -3.63      0.00
   -8   -3    3      0.59      0.00
   -8   -3    2     -8.02      0.00
   -8   -3    1      0.23      0.00
    8    3    0     -0.89      0.00
    8    3    1      8.64      0.00
    8    3    2      4.43      0.00
    8    3    3      9.57      0.00
    8    3    4     -3.03      0.00
    8    3    5     12.54      0.00
    8    3    6      2.59      0.00
    8    3    7      8.04      0.00
    8    3    8     -0.55      0.00
    8    3    9      1.74      0.00
    8    3   10     -3.81      0.00
    8    3   11      1.17      0.00
    8    3   12     -0.47      0.00
    8    3   13     -3.12      0.00
    8    3   14     -0.76      0.00
    8    3   15      0.97      0.00
    8    3   16     -1.88      0.00
    8    3   17     -1.10      0.00
    8    3   18      0.85      0.00
    8    3   19      0.97      0.00
    8    3   20     -0.30      0.00
    8    3   21      1.34      0.00
    8    3   22      0.89      0.00
    8    3   23      0.86      0.00
   -8   -4   16     -1.58      0.00
   -8   -4   15     -2.75      0.00
   -8   -4   14      0.13      0.00
   -8   -4   13     -1.61      0.00
   -8   -4   12      1.55      0.00
   -8   -4   11      0.92      0.00
   -8   -4   10     -1.08      0.00
   -8   -4    9     -0.71      0.00
   -8   -4    8     -0.93      0.00
   -8   -4    7     -0.64      0.00
   -8   -4    6     -1.35      0.00
   -8   -4    5     -0.27      0.00
   -8   -4    4     -1.78      0.00
   -8   -4    3      2.38      0.00
   -8   -4    2     -1.37      0.00
   -8   -4    1      7.45      0.00
    8    4    0     -5.51      0.00
    8    4    1     -2.49      0.00
    8    4    2     -5.24      0.00
    8    4    3     14.72      0.00
    8    4    4     -4.83      0.00
    8    4    5      8.74      0.00
    8    4    6      0.88      0.00
    8    4    7     -7.44      0.00
    8    4    8      0.41      0.00
    8    4    9      2.24      0.00
    8    4   10     -5.01      0.00
    8    4   11     -2.37      0.00
    8    4   12     -2.02      0.00
    8    4   13      0.16      0.00
    8    4   14     -0.31      0.00
    8    4   15     -0.01      0.00
    8    4   16     -0.32      0.00
    8    4   17      0.40      0.00
    8    4   18      0.71      0.00
    8    4   19     -1.44      0.00
    8    4   20      0.14      0.00
    8    4   21     -1.75      0.00
    8    4   22      0.95      0.00
    8    4   23     -0.91      0.00
    8    4   24     -0.33      0.00
   -8   -5   16     -1.34      0.00
   -8   -5   15     -1.32      0.00
   -8   -5   14     -0.24      0.00
   -8   -5   13     -0.75      0.00
   -8   -5   12     -1.97      0.00
   -8   -5   11     -0.11      0.00
   -8   -5   10     -0.04      0.00
   -8   -5    9      0.50      0.00
   -8   -5    8     -1.59      0.00
   -8   -5    7      1.80      0.00
   -8   -5    6     -0.45      0.00
   -8   -5    5      0.47      0.00
   -8   -5    4      2.43      0.00
   -8   -5    3      2.96      0.00
   -8   -5    2      0.48      0.00
   -8   -5    1      5.50      0.00
    8    5    0     -2.58      0.00
    8    5    1      3.46      0.00
    8    5    2     -3.98      0.00
    8    5    3      3.32      0.00
    8    5    4     -2.85      0.00
    8    5    5     -2.05      0.00
    8    5    6    -10.75      0.00
    8    5    7      0.96      0.00
    8    5    8      3.32      0.00
    8    5    9     -6.76      0.00
    8    5   10     -1.09      0.00
    8    5   11     -2.97      0.00
    8    5   12      1.59      0.00
    8    5   13     -1.46      0.00
    8    5   14      1.79      0.00
    8    5   15     -0.06      0.00
    8    5   16      0.07      0.00
    8    5   17      1.52      0.00
    8    5   18     -0.73      0.00
    8    5   19      1.12      0.00
    8    5   20      1.28      0.00
    8    5   21      0.51      0.00
    8    5   22      0.50      0.00
    8    5   23      0.19      0.00
    8    5   24      0.30      0.00
   -8   -6   16     -0.83      0.00
   -8   -6   15     -0.52      0.00
   -8   -6   14     -1.21      0.00
   -8   -6   13     -0.25      0.00
   -8   -6   12      0.41      0.00
   -8   -6   11      0.94      0.00
   -8   -6   10      0.72      0.00
   -8   -6    9      0.76      0.00
   -8   -6    8      0.27      0.00
   -8   -6    7      1.26      0.00
   -8   -6    6      0.79      0.00
   -8   -6    5      0.39      0.00
   -8   -6    4     -0.32      0.00
   -8   -6    3     -1.10      0.00
   -8   -6    2      0.80      0.00
   -8   -6    1      2.92      0.00
    8    6    0     -3.65      0.00
    8    6    1      0.57      0.00
    8    6    2      2.25      0.00
    8    6    3     -6.17      0.00
    8    6    4     -1.72      0.00
    8    6    5      0.96      0.00
    8    6    6     -3.03      0.00
    8    6    7     -6.19      0.00
    8    6    8      4.06      0.00
    8    6    9     -0.79      0.00
    8    6   10      4.14      0.00
    8    6   11     -0.77      0.00
    8    6   12      2.41      0.00
    8    6   13     -0.07      0.00
    8    6   14      1.73      0.00
    8    6   15     -0.81      0.00
    8    6   16     -0.67      0.00
    8    6   17     -0.41      0.00
    8    6   18      0.67      0.00
    8    6   19      1.11      0.00
    8    6   20      0.74      0.00
    8    6   21     -0.75      0.00
    8    6   22     -1.25      0.00
    8    6   23     -0.23      0.00
    8    6   24     -0.34      0.00
   -8   -7   16      0.04      0.00
   -8   -7   15     -1.54      0.00
   -8   -7   14     -0.94      0.00
   -8   -7   13      0.05      0.00
   -8   -7   12      0.53      0.00
   -8   -7   11     -0.24      0.00
   -8   -7   10      1.07      0.00
   -8   -7    9     -1.43      0.00
   -8   -7    8      1.60      0.00
   -8   -7    7     -0.61      0.00
   -8   -7    6     -0.90      0.00
   -8   -7    5     -0.92      0.00
   -8   -7    4      0.22      0.00
   -8   -7    3     -2.16      0.00
   -8   -7    2      0.09      0.00
   -8   -7    1     -0.13      0.00
    8    7    0      0.65      0.00
    8    7    1     -1.12      0.00
    8    7    2     -2.17      0.00
    8    7    3     -1.54      0.00
    8    7    4      2.87      0.00
    8    7    5     -3.26      0.00
    8    7    6      0.46      0.00
    8    7    7      0.79      0.00
    8    7    8     -0.28      0.00
    8    7    9     -1.09      0.00
    8    7   10      5.71      0.00
    8    7   11     -0.52      0.00
    8    7   12     -0.25      0.00
    8    7   13      1.42      0.00
    8    7   14     -0.80      0.00
    8    7   15     -0.46      0.00
    8    7   16     -1.67      0.00
    8    7   17     -0.04      0.00
    8    7   18     -0.69      0.00
    8    7   19      0.05      0.00
    8    7   20      0.89      0.00
    8    7   21      0.30      0.00
    8    7   22      1.84      0.00
    8    7   23     -1.22      0.00
    8    7   24     -1.50      0.00
   -8   -8   16     -0.54      0.00
   -8   -8   15     -1.23      0.00
   -8   -8   14     -0.33      0.00
   -8   -8   13     -2.55      0.00
   -8   -8   12      0.93      0.00
   -8   -8   11     -1.50      0.00
   -8   -8   10      0.80      0.00
   -8   -8    9      0.53      0.00
   -8   -8    8      0.42      0.00
   -8   -8    7      0.25      0.00
   -8   -8    6      1.11      0.00
   -8   -8    5      0.93      0.00
   -8   -8    4     -1.07      0.00
   -8   -8    3     -2.46      0.00
   -8   -8    2      0.40      0.00
   -8   -8    1     -4.37      0.00
    8    8    0      1.01      0.00
    8    8    1      1.65      0.00
    8    8    2     -3.82      0.00
    8    8    3     -1.56      0.00
    8    8    4      3.42      0.00
    8    8    5      3.51      0.00
    8    8    6      0.00      0.00
    8    8    7      0.65      0.00
    8    8    8     -1.16      0.00
    8    8    9      0.77      0.00
    8    8   10      0.17      0.00
    8    8   11     -1.08      0.00
    8    8   12     -2.12      0.00
    8    8   13     -0.04      0.00
    8    8   14     -0.59      0.00
    8    8   15      0.08      0.00
    8    8   16      0.02      0.00
    8    8   17      1.83      0.00
    8    8   18      0.77      0.00
    8    8   19      0.31      0.00
    8    8   20     -0.88      0.00
    8    8   21     -0.95      0.00
    8    8   22     -0.59      0.00
    8    8   23     -0.34      0.00
   -8   -9   16     -0.19      0.00
   -8   -9   15      0.46      0.00
   -8   -9   14      1.06      0.00
   -8   -9   13      0.19      0.00
   -8   -9   12     -1.89      0.00
   -8   -9   11      0.03      0.00
   -8   -9   10      0.60      0.00
   -8   -9    9     -2.39      0.00
   -8   -9    8      1.08      0.00
   -8   -9    7     -1.35      0.00
   -8   -9    6      1.24      0.00
   -8   -9    5      0.55      0.00
   -8   -9    4      1.47      0.00
   -8   -9    3      1.59      0.00
   -8   -9    2      2.67      0.00
   -8   -9    1     -0.31      0.00
    8    9    0     -0.23      0.00
    8    9    1      1.16      0.00
    8    9    2     -1.31      0.00
    8    9    3      4.81      0.00
    8    9    4     -3.02      0.00
    8    9    5      0.99      0.00
    8    9    6     -0.37      0.00
    8    9    7      1.02      0.00
    8    9    8     -2.26      0.00
    8    9    9      2.77      0.00
    8    9   10     -0.24      0.00
    8    9   11     -1.10      0.00
    8    9   12      0.63      0.00
    8    9   13      0.65      0.00
    8    9   14     -0.57      0.00
    8    9   15      0.94      0.00
    8    9   16     -0.33      0.00
    8    9   17     -1.32      0.00
    8    9   18      0.48      0.00
    8    9   19     -1.23      0.00
    8    9   20      0.69      0.00
    8    9   21     -0.23      0.00
    8    9   22      0.48      0.00
    8    9   23     -0.30      0.00
   -8  -10   15     -0.93      0.00
   -8  -10   14      0.39      0.00
   -8  -10   13      0.89      0.00
   -8  -10   12     -1.15      0.00
   -8  -10   11     -2.20      0.00
   -8  -10   10     -0.55      0.00
   -8  -10    9      1.44      0.00
   -8  -10    8      0.36      0.00
   -8  -10    7     -0.66      0.00
   -8  -10    6      0.39      0.00
   -8  -10    5     -0.03      0.00
   -8  -10    4      0.85      0.00
   -8  -10    3      0.84      0.00
   -8  -10    2     -0.61      0.00
   -8  -10    1      0.85      0.00
    8   10    0      0.43      0.00
    8   10    1      2.04      0.00
    8   10    2     -0.58      0.00
    8   10    3      1.60      0.00
    8   10    4     -3.23      0.00
    8   10    5     -2.02      0.00
    8   10    6     -1.22      0.00
    8   10    7      0.46      0.00
    8   10    8     -1.25      0.00
    8   10    9     -0.16      0.00
    8   10   10     -0.74      0.00
    8   10   11      1.87      0.00
    8   10   12      0.70      0.00
    8   10   13     -0.56      0.00
    8   10   14     -0.20      0.00
    8   10   15     -0.46      0.00
    8   10   16     -1.37      0.00
    8   10   17      0.84      0.00
    8   10   18     -0.09      0.00
    8   10   19     -0.52      0.00
    8   10   20     -0.10      0.00
    8   10   21      0.08      0.00
    8   10   22     -0.18      0.00
   -8  -11   14     -1.27      0.00
   -8  -11   13     -1.50      0.00
   -8  -11   12      0.98      0.00
   -8  -11   11      0.71      0.00
   -8  -11   10     -0.12      0.00
   -8  -11    9      0.25      0.00
   -8  -11    8      0.64      0.00
   -8  -11    7      1.49      0.00
   -8  -11    6      1.28      0.00
   -8  -11    5      0.30      0.00
   -8  -11    4     -0.68      0.00
   -8  -11    3      0.18      0.00
   -8  -11    2     -0.88      0.00
   -8  -11    1      1.07      0.00
    8   11    0     -0.21      0.00
    8   11    1     -0.05      0.00
    8   11    2     -1.96      0.00
    8   11    3     -0.17      0.00
    8   11    4     -1.51      0.00
    8   11    5      1.50      0.00
    8   11    6     -0.64      0.00
    8   11    7     -1.75      0.00
    8   11    8     -1.36      0.00
    8   11    9      0.75      0.00
    8   11   10      0.04      0.00
    8   11   11      0.79      0.00
    8   11   12      0.24      0.00
    8   11   13     -1.05      0.00
    8   11   14     -0.13      0.00
    8   11   15     -0.01      0.00
    8   11   16     -0.62      0.00
    8   11   17     -1.93      0.00
    8   11   18     -0.09      0.00
    8   11   19      0.52      0.00
    8   11   20      0.12      0.00
    8   11   21      2.23      0.00
    8   11   22      1.26      0.00
    8   11   23      1.23      0.00
   -8  -12   14     -0.54      0.00
   -8  -12   13     -0.21      0.00
   -8  -12   12     -0.80      0.00
   -8  -12   11     -0.07      0.00
   -8  -12   10     -2.40      0.00
   -8  -12    9      1.05      0.00
   -8  -12    8     -0.61      0.00
   -8  -12    7      0.28      0.00
   -8  -12    6      0.97      0.00
   -8  -12    5     -0.81      0.00
   -8  -12    4      0.88      0.00
   -8  -12    3     -0.03      0.00
   -8  -12    2      0.79      0.00
   -8  -12    1      2.08      0.00
    8   12    0     -0.65      0.00
    8   12    1     -0.53      0.00
    8   12    2     -0.42      0.00
    8   12    3      1.04      0.00
    8   12    4     -0.11      0.00
    8   12    5      1.75      0.00
    8   12    6      0.04      0.00
    8   12    7     -0.56      0.00
    8   12    8      1.01      0.00
    8   12    9      0.26      0.00
    8   12   10     -1.20      0.00
    8   12   11      0.31      0.00
    8   12   12      0.54      0.00
    8   12   13     -1.62      0.00
    8   12   14      0.22      0.00
    8   12   15     -0.08      0.00
    8   12   16     -0.30      0.00
    8   12   17      1.57      0.00
    8   12   18     -0.20      0.00
    8   12   19     -0.35      0.00
    8   12   20     -0.20      0.00
    8   12   21     -1.00      0.00
    8   12   22     -1.05      0.00
   -8  -13   13     -1.11      0.00
   -8  -13   12      0.33      0.00
   -8  -13   11     -1.01      0.00
   -8  -13   10     -0.01      0.00
   -8  -13    9      0.21      0.00
   -8  -13    8      1.20      0.00
   -8  -13    7      0.19      0.00
   -8  -13    6     -0.88      0.00
   -8  -13    5     -0.44      0.00
   -8  -13    4     -0.24      0.00
   -8  -13    3     -0.42      0.00
   -8  -13    2     -0.57      0.00
   -8  -13    1      0.01      0.00
    8   13    0      0.45      0.00
    8   13    1      1.67      0.00
    8   13    2      1.01      0.00
    8   13    3     -0.45      0.00
    8   13    4      0.57      0.00
    8   13    5     -1.18      0.00
    8   13    6      0.10      0.00
    8   13    7      0.83      0.00
    8   13    8      0.60      0.00
    8   13    9     -1.15      0.00
    8   13   10      1.14      0.00
    8   13   11     -0.74      0.00
    8   13   12     -0.54      0.00
    8   13   13     -0.28      0.00
    8   13   14      0.00      0.00
    8   13   15      0.04      0.00
    8   13   16      0.30      0.00
    8   13   17     -0.04      0.00
    8   13   18     -0.73      0.00
    8   13   19      0.19      0.00
   -8  -14   12      0.25      0.00
   -8  -14   11      1.12      0.00
   -8  -14   10     -0.97      0.00
   -8  -14    9      1.21      0.00
   -8  -14    8     -2.89      0.00
   -8  -14    7      0.07      0.00
   -8  -14    6     -0.99      0.00
   -8  -14    5     -0.45      0.00
   -8  -14    4      0.69      0.00
   -8  -14    3     -1.00      0.00
   -8  -14    2      1.32      0.00
   -8  -14    1     -0.21      0.00
    8   14    0      0.93      0.00
    8   14    1      1.14      0.00
    8   14    2     -1.06      0.00
    8   14    3     -0.25      0.00
    8   14    4      0.25      0.00
    8   14    8      0.46      0.00
    8   14    9     -1.80      0.00
    8   14   10     -0.42      0.00
    8   14   11      0.29      0.00
    8   14   12      0.18      0.00
    8   14   13      0.33      0.00
    8   14   14      0.66      0.00
    8   14   15     -0.10      0.00
    8   14   16      0.04      0.00
    8   14   17      0.71      0.00
    8   14   18     -0.59      0.00
    8   14   19      0.02      0.00
    8   14   20      0.09      0.00
    8   14   21     -0.46      0.00
   -8  -15   12     -1.83      0.00
   -8  -15   11     -1.12      0.00
   -8  -15   10     -0.16      0.00
   -8  -15    9      0.37      0.00
   -8  -15    8     -1.94      0.00
   -8  -15    7     -0.24      0.00
   -8  -15    6      0.56      0.00
   -8  -15    5      0.54      0.00
   -8  -15    4      1.12      0.00
   -8  -15    3      0.30      0.00
   -8  -15    2      0.14      0.00
   -8  -15    1      0.02      0.00
    8   15    0     -0.38      0.00
    8   15    1      1.24      0.00
    8   15    2     -0.04      0.00
    8   15    3     -0.47      0.00
    8   15   10      0.01      0.00
    8   15   11     -0.24      0.00
    8   15   12      0.55      0.00
    8   15   13      0.37      0.00
    8   15   14     -1.16      0.00
    8   15   15     -1.91      0.00
    8   15   16      0.33      0.00
    8   15   17      2.11      0.00
    8   15   18      0.10      0.00
   -8  -16   12      0.08      0.00
   -8  -16   11      1.24      0.00
   -8  -16   10     -2.33      0.00
   -8  -16    6     -0.55      0.00
   -8  -16    5      0.72      0.00
   -8  -16    4      0.05      0.00
   -8  -16    3      0.14      0.00
   -8  -16    2     -0.05      0.00
   -8  -16    1      0.83      0.00
    8   16    0     -0.12      0.00
    8   16    1     -0.45      0.00
    8   16    2      0.36      0.00
    8   16   11      0.40      0.00
    8   16   12     -0.20      0.00
    8   16   13     -0.20      0.00
    8   16   14      0.43      0.00
    8   16   15      0.68      0.00
    8   16   16     -1.69      0.00
   -8  -17   11     -0.38      0.00
   -8  -17   10      1.48      0.00
   -8  -17    9     -0.01      0.00
   -8  -17    5      0.06      0.00
   -8  -17    4      1.52      0.00
   -8  -17    3     -1.42      0.00
   -8  -17    2     -1.38      0.00
   -8  -17    1     -1.08      0.00
    8   17    0     -1.26      0.00
    8   17    1     -1.41      0.00
    8   17    2     -1.38      0.00
    8   17   13      0.60      0.00
    8   17   14     -0.97      0.00
    8   17   15      0.59      0.00
    8   17   16     -0.96      0.00
   -8  -18   11     -0.66      0.00
   -8  -18   10     -1.64      0.00
   -8  -18    9      0.22      0.00
   -8  -18    7      0.58      0.00
   -8  -18    2      0.60      0.00
   -8  -18    1     -0.98      0.00
    8   18    0      0.35      0.00
    8   18    1     -0.55      0.00
   -8  -20    5      0.08      0.00
    9  -18    1     -2.25      0.00
    9  -18    7     -1.29      0.00
    9  -18    8     -0.68      0.00
   -9   17    0      0.59      0.00
    9  -17    1      1.94      0.00
    9  -17    2     -1.85      0.00
    9  -17    3      1.47      0.00
    9  -17    6     -2.13      0.00
    9  -17    7     -1.71      0.00
   -9   16    3     -1.92      0.00
   -9   16    2     -0.45      0.00
   -9   16    0     -1.37      0.00
    9  -16    1     -0.11      0.00
    9  -16    2      0.86      0.00
    9  -16    3     -0.54      0.00
    9  -16    6     -0.72      0.00
    9  -16    7     -0.35      0.00
    9  -16    8      0.28      0.00
    9  -16    9     -0.67      0.00
   -9   15    8      0.71      0.00
   -9   15    5      0.99      0.00
   -9   15    4     -1.62      0.00
   -9   15    2     -0.70      0.00
   -9   15    1     -0.40      0.00
   -9   15    0      0.19      0.00
    9  -15    1      0.03      0.00
    9  -15    3      2.62      0.00
    9  -15    4      0.26      0.00
    9  -15    5     -0.95      0.00
    9  -15    6      0.22      0.00
    9  -15    7     -0.08      0.00
    9  -15    8      0.08      0.00
    9  -15    9      0.75      0.00
    9  -15   16      0.51      0.00
    9  -15   17     -1.14      0.00
   -9   14    8      2.95      0.00
   -9   14    7     -1.96      0.00
   -9   14    6     -3.02      0.00
   -9   14    5      1.25      0.00
   -9   14    4     -0.20      0.00
   -9   14    3     -0.48      0.00
   -9   14    2      0.68      0.00
   -9   14    1      0.16      0.00
   -9   14    0     -1.75      0.00
    9  -14    1      0.16      0.00
    9  -14    2      0.18      0.00
    9  -14    3      0.15      0.00
    9  -14    4      0.31      0.00
    9  -14    5     -0.02      0.00
    9  -14    6      0.23      0.00
    9  -14    7      0.60      0.00
    9  -14    8      3.02      0.00
    9  -14    9      0.48      0.00
    9  -14   17     -2.29      0.00
    9  -14   18     -0.58      0.00
   -9   13   10      0.47      0.00
   -9   13    9      5.41      0.00
   -9   13    8     -7.88      0.00
   -9   13    7      4.62      0.00
   -9   13    6     -2.25      0.00
   -9   13    5     -0.98      0.00
   -9   13    4      0.66      0.00
   -9   13    3      1.23      0.00
   -9   13    2     -2.08      0.00
   -9   13    1     -0.37      0.00
   -9   13    0     -0.30      0.00
    9  -13    1      0.72      0.00
    9  -13    2     -0.62      0.00
    9  -13    3     -0.59      0.00
    9  -13    4     -0.17      0.00
    9  -13    5     -1.64      0.00
    9  -13    6      1.96      0.00
    9  -13    7     -0.38      0.00
    9  -13    8      0.50      0.00
    9  -13    9     -0.60      0.00
    9  -13   10      0.81      0.00
    9  -13   11     -0.71      0.00
    9  -13   12     -0.33      0.00
    9  -13   13      1.48      0.00
   -9   12    9     -0.82      0.00
   -9   12    8     -7.37      0.00
   -9   12    7    -11.93      0.00
   -9   12    6     -3.29      0.00
   -9   12    5      2.20      0.00
   -9   12    4     -1.78      0.00
   -9   12    3      0.93      0.00
   -9   12    2      0.83      0.00
   -9   12    1     -0.68      0.00
   -9   12    0      1.13      0.00
    9  -12    1     -1.72      0.00
    9  -12    2      0.63      0.00
    9  -12    3     -1.01      0.00
    9  -12    4      0.44      0.00
    9  -12    5     -0.79      0.00
    9  -12    6     -0.07      0.00
    9  -12    7     -0.25      0.00
    9  -12    8      1.43      0.00
    9  -12    9      0.35      0.00
    9  -12   10     -0.09      0.00
    9  -12   11      0.62      0.00
    9  -12   12      0.18      0.00
    9  -12   13      0.43      0.00
    9  -12   14     -0.12      0.00
    9  -12   15     -0.67      0.00
    9  -12   16      0.37      0.00
    9  -12   17     -0.06      0.00
    9  -12   18     -0.43      0.00
   -9   11   10     -1.71      0.00
   -9   11    9     -0.71      0.00
   -9   11    8     -4.04      0.00
   -9   11    7      6.90      0.00
   -9   11    6     -6.13      0.00
   -9   11    5     -0.12      0.00
   -9   11    4      0.84      0.00
   -9   11    3      0.56      0.00
   -9   11    2      2.01      0.00
   -9   11    1     -0.57      0.00
   -9   11    0      1.52      0.00
    9  -11    1      0.52      0.00
    9  -11    2     -1.27      0.00
    9  -11    3      0.75      0.00
    9  -11    4     -1.94      0.00
    9  -11    5     -0.45      0.00
    9  -11    6      0.96      0.00
    9  -11    7      0.14      0.00
    9  -11    8     -0.63      0.00
    9  -11    9     -0.77      0.00
    9  -11   10     -0.38      0.00
    9  -11   11     -0.83      0.00
    9  -11   12      0.33      0.00
    9  -11   13     -0.82      0.00
    9  -11   14     -2.11      0.00
    9  -11   15      0.21      0.00
    9  -11   16     -1.95      0.00
    9  -11   17     -0.99      0.00
    9  -11   18     -0.12      0.00
   -9   10   13      1.08      0.00
   -9   10   12     -0.55      0.00
   -9   10   11     -0.43      0.00
   -9   10   10     -0.35      0.00
   -9   10    9      2.46      0.00
   -9   10    8     -1.33      0.00
   -9   10    7      1.50      0.00
   -9   10    6     -1.84      0.00
   -9   10    5      0.95      0.00
   -9   10    4      0.96      0.00
   -9   10    3     -0.39      0.00
   -9   10    2      0.62      0.00
   -9   10    1     -0.61      0.00
   -9   10    0     -0.99      0.00
    9  -10    1      1.70      0.00
    9  -10    2     -0.02      0.00
    9  -10    3     -1.20      0.00
    9  -10    4      0.83      0.00
    9  -10    5     -0.23      0.00
    9  -10    6     -0.57      0.00
    9  -10    7     -0.42      0.00
    9  -10    8     -1.09      0.00
    9  -10    9      0.04      0.00
    9  -10   10      0.16      0.00
    9  -10   11     -0.16      0.00
    9  -10   12     -0.45      0.00
    9  -10   13      0.50      0.00
    9  -10   14      0.71      0.00
    9  -10   15      0.07      0.00
    9  -10   16      0.35      0.00
    9  -10   17      0.03      0.00
    9  -10   18      0.33      0.00
    9  -10   19      0.04      0.00
   -9    9   15     -0.18      0.00
   -9    9   14     -0.51      0.00
   -9    9   13     -0.73      0.00
   -9    9   12      0.08      0.00
   -9    9   11     -1.78      0.00
   -9    9   10      0.33      0.00
   -9    9    9     -1.62      0.00
   -9    9    8     -0.61      0.00
   -9    9    7     -0.10      0.00
   -9    9    6     -0.42      0.00
   -9    9    5     -0.47      0.00
   -9    9    4      0.14      0.00
   -9    9    3     -1.48      0.00
   -9    9    2      1.24      0.00
   -9    9    1      1.70      0.00
   -9    9    0      1.78      0.00
    9   -9    1     -0.92      0.00
    9   -9    2      0.99      0.00
    9   -9    3      0.90      0.00
    9   -9    4     -0.48      0.00
    9   -9    5      0.81      0.00
    9   -9    6     -0.74      0.00
    9   -9    7     -1.62      0.00
    9   -9    8      1.66      0.00
    9   -9    9      0.33      0.00
    9   -9   10     -0.65      0.00
    9   -9   11     -0.76      0.00
    9   -9   12     -1.03      0.00
    9   -9   13      0.00      0.00
    9   -9   14      1.17      0.00
    9   -9   15      0.29      0.00
    9   -9   16      1.41      0.00
    9   -9   17      0.91      0.00
    9   -9   18      1.71      0.00
    9   -9   19     -0.34      0.00
    9   -9   20     -0.73      0.00
    9   -9   21      0.98      0.00
   -9    8   15     -0.31      0.00
   -9    8   14      0.74      0.00
   -9    8   13      0.40      0.00
   -9    8   12     -0.06      0.00
   -9    8   11      0.61      0.00
   -9    8   10     -1.04      0.00
   -9    8    9     -1.01      0.00
   -9    8    8      1.98      0.00
   -9    8    7      1.22      0.00
   -9    8    6      1.01      0.00
   -9    8    5     -1.19      0.00
   -9    8    4      1.14      0.00
   -9    8    3      0.86      0.00
   -9    8    2      0.08      0.00
   -9    8    1     -0.32      0.00
   -9    8    0     -0.66      0.00
    9   -8    1     -0.51      0.00
    9   -8    2      0.96      0.00
    9   -8    3      1.28      0.00
    9   -8    4     -0.93      0.00
    9   -8    5     -1.32      0.00
    9   -8    6     -1.80      0.00
    9   -8    7      0.83      0.00
    9   -8    8      0.15      0.00
    9   -8    9      2.15      0.00
    9   -8   10     -0.02      0.00
    9   -8   11      0.41      0.00
    9   -8   12      1.79      0.00
    9   -8   13      0.97      0.00
    9   -8   14     -0.64      0.00
    9   -8   15     -1.22      0.00
    9   -8   16     -0.13      0.00
    9   -8   17     -0.04      0.00
    9   -8   18     -0.80      0.00
    9   -8   19      0.27      0.00
    9   -8   20     -0.66      0.00
    9   -8   21     -0.73      0.00
   -9    7   15     -1.59      0.00
   -9    7   14     -1.07      0.00
   -9    7   13     -0.20      0.00
   -9    7   12      0.78      0.00
   -9    7   11     -0.39      0.00
   -9    7   10     -0.98      0.00
   -9    7    9     -1.20      0.00
   -9    7    8      0.65      0.00
   -9    7    7      0.65      0.00
   -9    7    6      0.61      0.00
   -9    7    5     -0.80      0.00
   -9    7    4      1.32      0.00
   -9    7    3     -1.29      0.00
   -9    7    2     -1.72      0.00
   -9    7    1      0.56      0.00
   -9    7    0     -1.19      0.00
    9   -7    1      1.28      0.00
    9   -7    2     -0.44      0.00
    9   -7    3     -2.84      0.00
    9   -7    4     -1.92      0.00
    9   -7    5      1.10      0.00
    9   -7    6      1.44      0.00
    9   -7    7      3.49      0.00
    9   -7    8      1.07      0.00
    9   -7    9     -0.55      0.00
    9   -7   10      1.78      0.00
    9   -7   11      1.71      0.00
    9   -7   12     -0.52      0.00
    9   -7   13      0.23      0.00
    9   -7   14      1.37      0.00
    9   -7   15     -0.95      0.00
    9   -7   16      0.15      0.00
    9   -7   17     -2.25      0.00
    9   -7   18      2.30      0.00
    9   -7   19     -0.70      0.00
    9   -7   20      1.93      0.00
    9   -7   21      0.90      0.00
   -9    6   15      1.13      0.00
   -9    6   14      0.06      0.00
   -9    6   13      0.37      0.00
   -9    6   12     -0.52      0.00
   -9    6   11      0.51      0.00
   -9    6   10     -0.63      0.00
   -9    6    9     -1.22      0.00
   -9    6    8      1.84      0.00
   -9    6    7      0.23      0.00
   -9    6    6     -0.71      0.00
   -9    6    5      1.93      0.00
   -9    6    4     -1.92      0.00
   -9    6    3      0.27      0.00
   -9    6    2      0.66      0.00
   -9    6    1     -0.16      0.00
   -9    6    0     -1.54      0.00
    9   -6    1      0.86      0.00
    9   -6    2     -0.51      0.00
    9   -6    3      0.90      0.00
    9   -6    4      1.21      0.00
    9   -6    5      0.94      0.00
    9   -6    6     -0.58      0.00
    9   -6    7      1.14      0.00
    9   -6    8      0.71      0.00
    9   -6    9      0.03      0.00
    9   -6   10      0.26      0.00
    9   -6   11      0.20      0.00
    9   -6   12     -0.94      0.00
    9   -6   13      0.63      0.00
    9   -6   14     -1.43      0.00
    9   -6   15     -1.61      0.00
    9   -6   16      1.00      0.00
    9   -6   17     -1.08      0.00
    9   -6   18      1.69      0.00
    9   -6   19     -1.04      0.00
    9   -6   20      1.29      0.00
    9   -6   21     -0.39      0.00
    9   -6   22      1.47      0.00
   -9    5   15      0.56      0.00
   -9    5   14      1.02      0.00
   -9    5   13     -0.23      0.00
   -9    5   12     -1.19      0.00
   -9    5   11     -0.87      0.00
   -9    5   10     -0.01      0.00
   -9    5    9      2.35      0.00
   -9    5    8     -0.48      0.00
   -9    5    7      0.70      0.00
   -9    5    6     -1.18      0.00
   -9    5    5     -0.14      0.00
   -9    5    4     -1.21      0.00
   -9    5    3      0.01      0.00
   -9    5    2      2.81      0.00
   -9    5    1     -1.21      0.00
   -9    5    0     -1.01      0.00
    9   -5    1     -0.21      0.00
    9   -5    2      0.36      0.00
    9   -5    3     -1.51      0.00
    9   -5    4      2.00      0.00
    9   -5    5     -2.93      0.00
    9   -5    6      0.37      0.00
    9   -5    7      0.36      0.00
    9   -5    8     -0.37      0.00
    9   -5    9     -1.36      0.00
    9   -5   10      1.89      0.00
    9   -5   11     -3.19      0.00
    9   -5   12     -0.87      0.00
    9   -5   13     -2.74      0.00
    9   -5   14     -1.24      0.00
    9   -5   15      0.42      0.00
    9   -5   16      0.21      0.00
    9   -5   17      1.25      0.00
    9   -5   18      0.27      0.00
    9   -5   19      0.66      0.00
    9   -5   20      1.55      0.00
    9   -5   21      1.19      0.00
    9   -5   22      0.59      0.00
   -9    4   15      0.46      0.00
   -9    4   14      1.25      0.00
   -9    4   13      1.18      0.00
   -9    4   12     -0.17      0.00
   -9    4   11      1.94      0.00
   -9    4   10     -0.04      0.00
   -9    4    9     -0.08      0.00
   -9    4    8     -0.02      0.00
   -9    4    7     -1.84      0.00
   -9    4    6      3.77      0.00
   -9    4    5      0.07      0.00
   -9    4    4     -0.47      0.00
   -9    4    3      0.30      0.00
   -9    4    2      1.86      0.00
   -9    4    1     -0.82      0.00
   -9    4    0      3.34      0.00
    9   -4    1     -2.54      0.00
    9   -4    2      1.54      0.00
    9   -4    3     -0.42      0.00
    9   -4    4      1.70      0.00
    9   -4    5     -2.49      0.00
    9   -4    6      0.80      0.00
    9   -4    7     -1.29      0.00
    9   -4    8     -1.94      0.00
    9   -4    9     -2.23      0.00
    9   -4   10     -0.73      0.00
    9   -4   11     -1.06      0.00
    9   -4   12      1.42      0.00
    9   -4   13      0.46      0.00
    9   -4   14     -0.43      0.00
    9   -4   15      1.19      0.00
    9   -4   16      0.86      0.00
    9   -4   17     -0.13      0.00
    9   -4   18      1.81      0.00
    9   -4   19     -0.19      0.00
    9   -4   20      0.51      0.00
    9   -4   21     -0.57      0.00
    9   -4   22     -0.07      0.00
   -9    3   15     -1.50      0.00
   -9    3   14     -0.27      0.00
   -9    3   13     -0.59      0.00
   -9    3   12     -0.47      0.00
   -9    3   11     -1.00      0.00
   -9    3   10     -1.47      0.00
   -9    3    9     -0.54      0.00
   -9    3    8      0.07      0.00
   -9    3    7      0.42      0.00
   -9    3    6     -0.67      0.00
   -9    3    5     -1.23      0.00
   -9    3    4     -0.04      0.00
   -9    3    3      1.76      0.00
   -9    3    2      3.48      0.00
   -9    3    1      1.00      0.00
   -9    3    0     -0.61      0.00
    9   -3    1     -2.04      0.00
    9   -3    2     -7.19      0.00
    9   -3    3      0.90      0.00
    9   -3    4     -1.97      0.00
    9   -3    5     -4.60      0.00
    9   -3    6      0.10      0.00
    9   -3    7     -2.28      0.00
    9   -3    8     -1.39      0.00
    9   -3    9      3.23      0.00
    9   -3   10     -1.56      0.00
    9   -3   11      1.13      0.00
    9   -3   12      0.47      0.00
    9   -3   13      1.10      0.00
    9   -3   14      0.46      0.00
    9   -3   15      1.27      0.00
    9   -3   16      0.01      0.00
    9   -3   17      1.18      0.00
    9   -3   18     -0.64      0.00
    9   -3   19      0.57      0.00
    9   -3   20      0.81      0.00
    9   -3   21      0.45      0.00
    9   -3   22     -0.79      0.00
   -9    2   15      0.05      0.00
   -9    2   14     -1.95      0.00
   -9    2   13     -0.70      0.00
   -9    2   12     -1.80      0.00
   -9    2   11     -0.81      0.00
   -9    2   10     -0.17      0.00
   -9    2    9      1.63      0.00
   -9    2    8     -0.52      0.00
   -9    2    7      0.98      0.00
   -9    2    6      1.46      0.00
   -9    2    5      1.35      0.00
   -9    2    4      0.98      0.00
   -9    2    3     -1.08      0.00
   -9    2    2     -3.15      0.00
   -9    2    1      0.25      0.00
   -9    2    0     -0.20      0.00
    9   -2    1     -4.06      0.00
    9   -2    2     -2.19      0.00
    9   -2    3     -1.78      0.00
    9   -2    4     -4.07      0.00
    9   -2    5      4.58      0.00
    9   -2    6     -0.25      0.00
    9   -2    7      2.27      0.00
    9   -2    8     -1.54      0.00
    9   -2    9      4.04      0.00
    9   -2   10      1.10      0.00
    9   -2   11      4.11      0.00
    9   -2   12     -0.77      0.00
    9   -2   13      1.63      0.00
    9   -2   14     -0.86      0.00
    9   -2   15      1.57      0.00
    9   -2   16     -2.14      0.00
    9   -2   17     -0.46      0.00
    9   -2   18     -0.72      0.00
    9   -2   19     -0.11      0.00
    9   -2   20      0.83      0.00
    9   -2   21      0.31      0.00
    9   -2   22      0.46      0.00
   -9    1   15     -0.36      0.00
   -9    1   14     -0.81      0.00
   -9    1   13     -1.49      0.00
   -9    1   12      0.18      0.00
   -9    1   11     -0.36      0.00
   -9    1   10      0.85      0.00
   -9    1    9      0.67      0.00
   -9    1    8      0.53      0.00
   -9    1    7      0.09      0.00
   -9    1    6      0.46      0.00
   -9    1    5     -2.07      0.00
   -9    1    4     -1.94      0.00
   -9    1    3     -0.02      0.00
   -9    1    2     -2.48      0.00
   -9    1    1      3.76      0.00
   -9    1    0      2.27      0.00
    9   -1    1     -1.65      0.00
    9   -1    2      1.38      0.00
    9   -1    3      5.62      0.00
    9   -1    4     -1.68      0.00
    9   -1    5      8.69      0.00
    9   -1    6     -2.97      0.00
    9   -1    7     -0.75      0.00
    9   -1    8      0.83      0.00
    9   -1    9      4.40      0.00
    9   -1   10     -2.70      0.00
    9   -1   11      3.67      0.00
    9   -1   12     -2.14      0.00
    9   -1   13     -0.94      0.00
    9   -1   14      0.23      0.00
    9   -1   15     -0.31      0.00
    9   -1   16     -2.58      0.00
    9   -1   17      0.48      0.00
    9   -1   18     -1.80      0.00
    9   -1   19      1.32      0.00
    9   -1   20      0.05      0.00
    9   -1   21     -0.47      0.00
    9   -1   22      0.80      0.00
   -9    0   15      0.12      0.00
   -9    0   14      0.89      0.00
   -9    0   13     -0.90      0.00
   -9    0   12     -0.63      0.00
   -9    0   11     -0.33      0.00
   -9    0   10      1.12      0.00
   -9    0    9      0.25      0.00
   -9    0    8     -0.42      0.00
   -9    0    7      0.44      0.00
   -9    0    6     -2.24      0.00
   -9    0    5      0.06      0.00
   -9    0    4      0.82      0.00
   -9    0    3     -0.80      0.00
   -9    0    2     -3.11      0.00
   -9    0    1     -2.70      0.00
    9    0    0     -6.00      0.00
    9    0    1      2.78      0.00
    9    0    2     -1.09      0.00
    9    0    3      3.17      0.00
    9    0    4      3.23      0.00
    9    0    5      8.20      0.00
    9    0    6      1.46      0.00
    9    0    7      5.35      0.00
    9    0    8     -0.46      0.00
    9    0    9     -1.22      0.00
    9    0   10     -3.97      0.00
    9    0   11     -0.07      0.00
    9    0   12     -0.20      0.00
    9    0   13     -1.67      0.00
    9    0   14     -1.66      0.00
    9    0   15     -2.54      0.00
    9    0   16      0.06      0.00
    9    0   17     -0.47      0.00
    9    0   18      0.24      0.00
    9    0   19     -2.14      0.00
    9    0   20      0.83      0.00
    9    0   21     -1.24      0.00
    9    0   22     -0.63      0.00
   -9   -1   14     -0.67      0.00
   -9   -1   13     -0.64      0.00
   -9   -1   12     -0.07      0.00
   -9   -1   11     -0.51      0.00
   -9   -1   10      0.29      0.00
   -9   -1    9     -1.16      0.00
   -9   -1    8     -1.73      0.00
   -9   -1    7      0.10      0.00
   -9   -1    6     -0.04      0.00
   -9   -1    5      2.92      0.00
   -9   -1    4      0.64      0.00
   -9   -1    3     -1.40      0.00
   -9   -1    2     -0.96      0.00
   -9   -1    1      1.24      0.00
    9    1    0      1.44      0.00
    9    1    1      5.87      0.00
    9    1    2      5.11      0.00
    9    1    3     -3.89      0.00
    9    1    4      0.21      0.00
    9    1    5      6.71      0.00
    9    1    6      4.20      0.00
    9    1    7      2.71      0.00
    9    1    8      1.32      0.00
    9    1    9     -5.98      0.00
    9    1   10      4.40      0.00
    9    1   11     -1.89      0.00
    9    1   12     -3.50      0.00
    9    1   13     -1.50      0.00
    9    1   14      1.14      0.00
    9    1   15     -0.88      0.00
    9    1   16     -0.06      0.00
    9    1   17     -1.03      0.00
    9    1   18      1.36      0.00
    9    1   19      0.98      0.00
    9    1   20      0.42      0.00
    9    1   21     -0.80      0.00
    9    1   22      0.74      0.00
    9    1   23     -0.27      0.00
   -9   -2   15      0.81      0.00
   -9   -2   14     -1.26      0.00
   -9   -2   13      1.50      0.00
   -9   -2   12      0.76      0.00
   -9   -2   11     -0.31      0.00
   -9   -2   10     -0.95      0.00
   -9   -2    9      0.64      0.00
   -9   -2    8      0.09      0.00
   -9   -2    7      0.25      0.00
   -9   -2    6     -0.70      0.00
   -9   -2    5     -0.43      0.00
   -9   -2    4      0.83      0.00
   -9   -2    3     -0.03      0.00
   -9   -2    2      4.56      0.00
   -9   -2    1     -2.54      0.00
    9    2    0      0.07      0.00
    9    2    1     -4.10      0.00
    9    2    2     -0.30      0.00
    9    2    3     -5.04      0.00
    9    2    4      5.65      0.00
    9    2    5     -8.16      0.00
    9    2    6      2.75      0.00
    9    2    7      4.91      0.00
    9    2    8      5.01      0.00
    9    2    9     -1.00      0.00
    9    2   10      2.55      0.00
    9    2   11     -0.99      0.00
    9    2   12      0.92      0.00
    9    2   13     -0.09      0.00
    9    2   14      1.06      0.00
    9    2   15     -0.54      0.00
    9    2   16      1.80      0.00
    9    2   17      2.42      0.00
    9    2   18     -0.85      0.00
    9    2   19      0.26      0.00
    9    2   20      1.07      0.00
    9    2   21     -0.08      0.00
    9    2   22     -0.12      0.00
    9    2   23     -1.09      0.00
   -9   -3   15      1.00      0.00
   -9   -3   14     -0.36      0.00
   -9   -3   13      0.66      0.00
   -9   -3   12     -1.21      0.00
   -9   -3   11     -0.38      0.00
   -9   -3   10     -0.57      0.00
   -9   -3    9     -1.05      0.00
   -9   -3    8      1.02      0.00
   -9   -3    7     -1.40      0.00
   -9   -3    6      0.69      0.00
   -9   -3    5     -0.45      0.00
   -9   -3    4      0.29      0.00
   -9   -3    3     -1.89      0.00
   -9   -3    2      0.26      0.00
   -9   -3    1     -6.71      0.00
    9    3    0     -1.02      0.00
    9    3    1     -1.36      0.00
    9    3    2      6.54      0.00
    9    3    3     -2.89      0.00
    9    3    4      6.29      0.00
    9    3    5     -4.35      0.00
    9    3    6      4.93      0.00
    9    3    7      6.14      0.00
    9    3    8      5.47      0.00
    9    3    9      1.91      0.00
    9    3   10      0.11      0.00
    9    3   11     -0.20      0.00
    9    3   12      2.37      0.00
    9    3   13      0.31      0.00
    9    3   14     -0.73      0.00
    9    3   15      0.58      0.00
    9    3   16      0.55      0.00
    9    3   17     -0.94      0.00
    9    3   18      0.29      0.00
    9    3   19      1.12      0.00
    9    3   20     -0.59      0.00
    9    3   21      1.81      0.00
    9    3   22     -0.18      0.00
    9    3   23     -0.02      0.00
    9    3   24     -0.16      0.00
   -9   -4   15     -1.21      0.00
   -9   -4   14     -2.22      0.00
   -9   -4   13     -1.51      0.00
   -9   -4   12      1.61      0.00
   -9   -4   11     -0.18      0.00
   -9   -4   10      0.91      0.00
   -9   -4    9     -1.44      0.00
   -9   -4    8      0.72      0.00
   -9   -4    7     -0.68      0.00
   -9   -4    6      0.32      0.00
   -9   -4    5     -1.50      0.00
   -9   -4    4     -1.20      0.00
   -9   -4    3     -2.03      0.00
   -9   -4    2      1.09      0.00
   -9   -4    1     -4.05      0.00
    9    4    0      1.54      0.00
    9    4    1     -6.79      0.00
    9    4    2     -0.05      0.00
    9    4    3      6.42      0.00
    9    4    4      4.29      0.00
    9    4    5      1.78      0.00
    9    4    6      7.99      0.00
    9    4    7      0.68      0.00
    9    4    8     -2.66      0.00
    9    4    9      4.03      0.00
    9    4   10     -2.22      0.00
    9    4   11      1.55      0.00
    9    4   12     -2.20      0.00
    9    4   13      2.20      0.00
    9    4   14     -2.81      0.00
    9    4   15      0.00      0.00
    9    4   16     -0.39      0.00
    9    4   17      0.19      0.00
    9    4   18     -0.30      0.00
    9    4   19     -0.74      0.00
    9    4   20     -0.27      0.00
    9    4   21     -1.98      0.00
    9    4   22      0.25      0.00
    9    4   23     -0.06      0.00
    9    4   24     -0.53      0.00
   -9   -5   15     -1.22      0.00
   -9   -5   14     -0.43      0.00
   -9   -5   13     -0.10      0.00
   -9   -5   12     -0.66      0.00
   -9   -5   11      0.27      0.00
   -9   -5   10     -0.24      0.00
   -9   -5    9      0.29      0.00
   -9   -5    8      1.10      0.00
   -9   -5    7     -0.15      0.00
   -9   -5    6      0.26      0.00
   -9   -5    5     -0.06      0.00
   -9   -5    4      0.40      0.00
   -9   -5    3      1.18      0.00
   -9   -5    2      1.78      0.00
   -9   -5    1     -0.63      0.00
    9    5    0      4.17      0.00
    9    5    1      1.37      0.00
    9    5    2     -0.47      0.00
    9    5    3      5.59      0.00
    9    5    4      3.18      0.00
    9    5    5      2.54      0.00
    9    5    6     -3.11      0.00
    9    5    7      3.11      0.00
    9    5    8     -0.58      0.00
    9    5    9      3.72      0.00
    9    5   10     -4.75      0.00
    9    5   11     -0.49      0.00
    9    5   12     -2.33      0.00
    9    5   13     -0.74      0.00
    9    5   14     -1.26      0.00
    9    5   15     -0.38      0.00
    9    5   16      0.18      0.00
    9    5   17      0.22      0.00
    9    5   18     -0.18      0.00
    9    5   19      0.16      0.00
    9    5   20     -0.15      0.00
    9    5   21      2.68      0.00
    9    5   22      0.42      0.00
    9    5   23      0.00      0.00
    9    5   24      0.17      0.00
   -9   -6   15      0.08      0.00
   -9   -6   14     -0.47      0.00
   -9   -6   13     -0.24      0.00
   -9   -6   12     -1.84      0.00
   -9   -6   11     -0.82      0.00
   -9   -6   10      0.83      0.00
   -9   -6    9      0.31      0.00
   -9   -6    8     -0.76      0.00
   -9   -6    7     -0.07      0.00
   -9   -6    6      1.59      0.00
   -9   -6    5     -0.29      0.00
   -9   -6    4     -0.06      0.00
   -9   -6    3      0.78      0.00
   -9   -6    2     -1.23      0.00
   -9   -6    1      3.62      0.00
    9    6    0      0.79      0.00
    9    6    1     -1.87      0.00
    9    6    2      2.52      0.00
    9    6    3     -1.00      0.00
    9    6    4     -4.01      0.00
    9    6    5      4.36      0.00
    9    6    6     -3.41      0.00
    9    6    7     -2.57      0.00
    9    6    8     -2.18      0.00
    9    6    9      4.23      0.00
    9    6   10     -2.72      0.00
    9    6   11      1.17      0.00
    9    6   12     -0.96      0.00
    9    6   13     -0.39      0.00
    9    6   14      1.49      0.00
    9    6   15      0.08      0.00
    9    6   16      0.26      0.00
    9    6   17     -0.91      0.00
    9    6   18      1.64      0.00
    9    6   19      1.66      0.00
    9    6   20      1.23      0.00
    9    6   21     -1.17      0.00
    9    6   22     -1.39      0.00
    9    6   23     -0.22      0.00
    9    6   24      0.51      0.00
   -9   -7   15      0.10      0.00
   -9   -7   14     -1.35      0.00
   -9   -7   13     -0.60      0.00
   -9   -7   12      0.66      0.00
   -9   -7   11      1.39      0.00
   -9   -7   10     -1.02      0.00
   -9   -7    9     -0.24      0.00
   -9   -7    8     -0.56      0.00
   -9   -7    7      0.46      0.00
   -9   -7    6     -0.77      0.00
   -9   -7    5     -0.78      0.00
   -9   -7    4     -0.60      0.00
   -9   -7    3      1.20      0.00
   -9   -7    2     -0.74      0.00
   -9   -7    1      2.58      0.00
    9    7    0     -0.69      0.00
    9    7    1     -3.14      0.00
    9    7    2     -1.48      0.00
    9    7    3     -0.52      0.00
    9    7    4     -1.09      0.00
    9    7    5     -0.89      0.00
    9    7    6     -3.18      0.00
    9    7    7     -1.08      0.00
    9    7    8      0.58      0.00
    9    7    9      0.00      0.00
    9    7   10      0.58      0.00
    9    7   11      1.80      0.00
    9    7   12     -0.10      0.00
    9    7   13      2.24      0.00
    9    7   14      1.29      0.00
    9    7   15     -1.30      0.00
    9    7   16      1.09      0.00
    9    7   17     -0.27      0.00
    9    7   18      0.18      0.00
    9    7   19      0.54      0.00
    9    7   20      0.30      0.00
    9    7   21      0.71      0.00
    9    7   22      0.58      0.00
    9    7   23     -0.34      0.00
    9    7   24     -0.77      0.00
   -9   -8   14     -3.04      0.00
   -9   -8   13     -1.51      0.00
   -9   -8   12      0.08      0.00
   -9   -8   11     -1.69      0.00
   -9   -8   10     -0.60      0.00
   -9   -8    9      1.10      0.00
   -9   -8    8     -0.87      0.00
   -9   -8    7      1.68      0.00
   -9   -8    6     -0.56      0.00
   -9   -8    5      0.48      0.00
   -9   -8    4      0.52      0.00
   -9   -8    3     -1.33      0.00
   -9   -8    2     -1.75      0.00
   -9   -8    1     -2.44      0.00
    9    8    0     -1.41      0.00
    9    8    1     -0.71      0.00
    9    8    2      1.57      0.00
    9    8    3     -4.04      0.00
    9    8    4      2.20      0.00
    9    8    5      1.29      0.00
    9    8    6      0.92      0.00
    9    8    7     -0.25      0.00
    9    8    8      0.10      0.00
    9    8    9     -1.12      0.00
    9    8   10      0.13      0.00
    9    8   11      0.29      0.00
    9    8   12     -1.85      0.00
    9    8   13     -0.86      0.00
    9    8   14      0.90      0.00
    9    8   15     -1.43      0.00
    9    8   16      0.98      0.00
    9    8   17      0.91      0.00
    9    8   18      0.86      0.00
    9    8   19      0.49      0.00
    9    8   20     -1.74      0.00
    9    8   21      0.00      0.00
    9    8   22     -1.23      0.00
    9    8   23      0.21      0.00
   -9   -9   14      0.07      0.00
   -9   -9   13      0.86      0.00
   -9   -9   12     -2.11      0.00
   -9   -9   11      1.10      0.00
   -9   -9   10      0.00      0.00
   -9   -9    9     -1.27      0.00
   -9   -9    8      0.05      0.00
   -9   -9    7     -0.93      0.00
   -9   -9    6      0.45      0.00
   -9   -9    5      0.30      0.00
   -9   -9    4      1.06      0.00
   -9   -9    3      0.42      0.00
   -9   -9    2      1.77      0.00
   -9   -9    1     -0.02      0.00
    9    9    0     -0.32      0.00
    9    9    1     -0.62      0.00
    9    9    2      1.38      0.00
    9    9    3     -2.93      0.00
    9    9    4      2.26      0.00
    9    9    5      0.13      0.00
    9    9    6      2.05      0.00
    9    9    7      0.88      0.00
    9    9    8     -0.47      0.00
    9    9    9      0.28      0.00
    9    9   10      2.27      0.00
    9    9   11     -1.11      0.00
    9    9   12     -0.75      0.00
    9    9   13     -0.27      0.00
    9    9   14      0.43      0.00
    9    9   15      0.43      0.00
    9    9   16     -0.02      0.00
    9    9   17     -1.47      0.00
    9    9   18     -0.25      0.00
    9    9   19      0.43      0.00
    9    9   20     -0.54      0.00
    9    9   21      0.09      0.00
    9    9   22      0.22      0.00
    9    9   23      0.78      0.00
   -9  -10   14      0.45      0.00
   -9  -10   13      1.54      0.00
   -9  -10   12     -1.19      0.00
   -9  -10   11     -3.49      0.00
   -9  -10   10      0.39      0.00
   -9  -10    9      0.46      0.00
   -9  -10    8      0.65      0.00
   -9  -10    7     -0.78      0.00
   -9  -10    6     -0.42      0.00
   -9  -10    5      0.01      0.00
   -9  -10    4      0.72      0.00
   -9  -10    3     -0.06      0.00
   -9  -10    2      1.10      0.00
   -9  -10    1     -0.51      0.00
    9   10    0      0.80      0.00
    9   10    1     -0.02      0.00
    9   10    2      1.26      0.00
    9   10    3     -0.76      0.00
    9   10    4      2.23      0.00
    9   10    5     -3.74      0.00
    9   10    6      0.47      0.00
    9   10    7      0.33      0.00
    9   10    8      1.25      0.00
    9   10    9     -0.21      0.00
    9   10   10     -0.33      0.00
    9   10   11     -0.22      0.00
    9   10   12     -0.13      0.00
    9   10   13      1.11      0.00
    9   10   14     -1.01      0.00
    9   10   15     -1.71      0.00
    9   10   16     -1.05      0.00
    9   10   17     -0.06      0.00
    9   10   18     -0.77      0.00
    9   10   19     -0.21      0.00
    9   10   20     -1.37      0.00
    9   10   21     -0.60      0.00
    9   10   22     -0.70      0.00
    9   10   23     -0.30      0.00
   -9  -11   13     -1.41      0.00
   -9  -11   12      0.51      0.00
   -9  -11   11     -0.16      0.00
   -9  -11   10      1.40      0.00
   -9  -11    9     -0.33      0.00
   -9  -11    8      1.88      0.00
   -9  -11    7      0.58      0.00
   -9  -11    6      0.26      0.00
   -9  -11    5      0.58      0.00
   -9  -11    4     -0.90      0.00
   -9  -11    3     -0.18      0.00
   -9  -11    2     -0.23      0.00
   -9  -11    1     -0.81      0.00
    9   11    0      0.77      0.00
    9   11    1     -0.56      0.00
    9   11    2      0.69      0.00
    9   11    3     -0.36      0.00
    9   11    4      0.76      0.00
    9   11    5     -0.92      0.00
    9   11    6      0.96      0.00
    9   11    7     -1.14      0.00
    9   11    8     -1.09      0.00
    9   11    9     -0.37      0.00
    9   11   10      0.19      0.00
    9   11   11      1.04      0.00
    9   11   12      0.07      0.00
    9   11   13      0.88      0.00
    9   11   14     -1.06      0.00
    9   11   15      2.13      0.00
    9   11   16     -0.02      0.00
    9   11   17     -1.45      0.00
    9   11   18      0.71      0.00
    9   11   19     -0.97      0.00
    9   11   20     -0.78      0.00
    9   11   21      0.86      0.00
    9   11   22      2.12      0.00
    9   11   23      0.95      0.00
   -9  -12   13      0.66      0.00
   -9  -12   12     -1.38      0.00
   -9  -12   11      1.39      0.00
   -9  -12   10     -1.12      0.00
   -9  -12    9     -0.24      0.00
   -9  -12    8      0.14      0.00
   -9  -12    7      0.33      0.00
   -9  -12    6      1.02      0.00
   -9  -12    5      0.78      0.00
   -9  -12    4      0.04      0.00
   -9  -12    3      1.34      0.00
   -9  -12    2      0.89      0.00
   -9  -12    1      2.25      0.00
    9   12    0      1.66      0.00
    9   12    1     -1.07      0.00
    9   12    2      0.19      0.00
    9   12    3      0.60      0.00
    9   12    4     -0.42      0.00
    9   12    5      1.33      0.00
    9   12    6      0.30      0.00
    9   12    7     -0.81      0.00
    9   12    8     -0.52      0.00
    9   12    9      0.14      0.00
    9   12   10     -0.71      0.00
    9   12   11      0.63      0.00
    9   12   12     -0.29      0.00
    9   12   13     -0.25      0.00
    9   12   14      0.60      0.00
    9   12   15      0.18      0.00
    9   12   16      0.95      0.00
    9   12   17      0.53      0.00
    9   12   18      0.02      0.00
    9   12   19     -1.11      0.00
    9   12   20     -0.17      0.00
   -9  -13   12     -1.07      0.00
   -9  -13   11     -0.69      0.00
   -9  -13   10      0.54      0.00
   -9  -13    9     -0.88      0.00
   -9  -13    8      2.22      0.00
   -9  -13    7      0.02      0.00
   -9  -13    6     -0.35      0.00
   -9  -13    5      0.55      0.00
   -9  -13    4     -1.75      0.00
   -9  -13    3      0.56      0.00
   -9  -13    2     -1.31      0.00
   -9  -13    1      0.23      0.00
    9   13    0      1.57      0.00
    9   13    1     -0.43      0.00
    9   13    2      1.33      0.00
    9   13    3     -0.24      0.00
    9   13    4      0.14      0.00
    9   13    5      0.18      0.00
    9   13    6     -0.66      0.00
    9   13    7     -0.19      0.00
    9   13    8     -0.80      0.00
    9   13    9      0.48      0.00
    9   13   10     -0.17      0.00
    9   13   11     -1.11      0.00
    9   13   12      0.54      0.00
    9   13   13      0.26      0.00
    9   13   14     -1.45      0.00
    9   13   15      0.29      0.00
    9   13   16     -0.23      0.00
    9   13   17     -1.10      0.00
    9   13   18     -0.45      0.00
    9   13   19     -0.62      0.00
    9   13   20     -0.45      0.00
    9   13   21      0.40      0.00
    9   13   22     -0.37      0.00
   -9  -14   11      1.30      0.00
   -9  -14   10     -1.09      0.00
   -9  -14    9     -0.13      0.00
   -9  -14    8     -0.44      0.00
   -9  -14    7     -0.44      0.00
   -9  -14    6     -0.34      0.00
   -9  -14    5     -0.51      0.00
   -9  -14    4     -0.72      0.00
   -9  -14    3      0.21      0.00
   -9  -14    2      0.08      0.00
   -9  -14    1     -0.34      0.00
    9   14    0      0.82      0.00
    9   14    1      0.62      0.00
    9   14    2     -0.04      0.00
    9   14    3      0.04      0.00
    9   14    4     -0.24      0.00
    9   14    5      0.89      0.00
    9   14    6     -0.71      0.00
    9   14    7      0.17      0.00
    9   14    8      1.18      0.00
    9   14    9     -0.47      0.00
    9   14   10     -0.47      0.00
    9   14   11      1.24      0.00
    9   14   12     -0.31      0.00
    9   14   13     -0.93      0.00
    9   14   14      1.09      0.00
    9   14   15     -0.23      0.00
    9   14   16     -0.18      0.00
    9   14   17      0.04      0.00
    9   14   18      0.47      0.00
    9   14   19     -0.75      0.00
   -9  -15   12     -0.97      0.00
   -9  -15   11     -1.20      0.00
   -9  -15   10      1.79      0.00
   -9  -15    8     -0.15      0.00
   -9  -15    6      0.10      0.00
   -9  -15    5      0.41      0.00
   -9  -15    4      0.20      0.00
   -9  -15    3      0.49      0.00
   -9  -15    2     -0.12      0.00
   -9  -15    1      0.40      0.00
    9   15    0     -0.84      0.00
    9   15    1      0.33      0.00
    9   15    2      1.35      0.00
    9   15    3     -0.81      0.00
    9   15    4      0.52      0.00
    9   15    5     -0.16      0.00
    9   15    9     -0.36      0.00
    9   15   10     -0.92      0.00
    9   15   11      0.08      0.00
    9   15   12      0.57      0.00
    9   15   13     -0.25      0.00
    9   15   14     -0.40      0.00
    9   15   15     -2.67      0.00
    9   15   16      0.99      0.00
    9   15   17      0.47      0.00
    9   15   18      1.66      0.00
   -9  -16   11      1.19      0.00
   -9  -16   10     -0.77      0.00
   -9  -16    9     -0.09      0.00
   -9  -16    5     -0.20      0.00
   -9  -16    4     -0.64      0.00
   -9  -16    3      0.18      0.00
   -9  -16    2     -0.67      0.00
   -9  -16    1      0.97      0.00
    9   16    0     -0.30      0.00
    9   16    1     -1.00      0.00
    9   16    2     -0.42      0.00
    9   16    3     -0.50      0.00
    9   16   11      0.66      0.00
    9   16   12      0.65      0.00
    9   16   13     -0.17      0.00
    9   16   14      1.44      0.00
    9   16   15     -0.42      0.00
    9   16   17     -1.33      0.00
   -9  -17   11     -0.41      0.00
   -9  -17   10      0.81      0.00
   -9  -17    9     -1.49      0.00
   -9  -17    8      0.84      0.00
   -9  -17    6      0.84      0.00
   -9  -17    5      0.04      0.00
   -9  -17    1     -1.71      0.00
    9   17    0     -1.27      0.00
    9   17    1     -1.83      0.00
    9   17    2     -1.23      0.00
    9   17   13      0.27      0.00
    9   17   15      0.33      0.00
    9   17   16      0.53      0.00
   -9  -18   10     -2.01      0.00
   -9  -18    9      1.14      0.00
   -9  -18    8     -0.74      0.00
   -9  -18    7      0.99      0.00
    9   18    0      0.52      0.00
    9   18    1     -1.79      0.00
    9   18    2     -0.57      0.00
   -9  -20    5      0.09      0.00
   10  -18    8     -1.01      0.00
   10  -18    9     -0.38      0.00
   10  -17    1      0.15      0.00
   10  -17    3      1.74      0.00
   10  -17    7     -3.46      0.00
   10  -17    8     -2.02      0.00
  -10   16    3     -1.55      0.00
  -10   16    2     -0.94      0.00
  -10   16    0     -1.95      0.00
   10  -16    2      4.34      0.00
   10  -16    6     -1.19      0.00
   10  -16    7     -0.06      0.00
  -10   15    5      0.00      0.00
  -10   15    4      0.04      0.00
  -10   15    3     -0.01      0.00
  -10   15    2     -0.30      0.00
  -10   15    1     -1.75      0.00
   10  -15    1     -2.88      0.00
   10  -15    3     -1.24      0.00
   10  -15    4      0.12      0.00
   10  -15    5      0.64      0.00
   10  -15    6     -0.30      0.00
   10  -15    8     -0.28      0.00
   10  -15    9      1.56      0.00
  -10   14    8      5.14      0.00
  -10   14    7     -3.00      0.00
  -10   14    6     -1.11      0.00
  -10   14    4      0.45      0.00
  -10   14    3      0.05      0.00
  -10   14    2      1.71      0.00
  -10   14    1      0.64      0.00
  -10   14    0     -0.05      0.00
   10  -14    1      0.61      0.00
   10  -14    2     -0.71      0.00
   10  -14    3     -1.85      0.00
   10  -14    4      1.39      0.00
   10  -14    5      1.92      0.00
   10  -14    6     -1.56      0.00
   10  -14    7      3.10      0.00
   10  -14    8      0.64      0.00
   10  -14    9      1.81      0.00
   10  -14   16     -0.59      0.00
   10  -14   17     -0.75      0.00
  -10   13    6     -1.42      0.00
  -10   13    5     -6.30      0.00
  -10   13    4      2.36      0.00
  -10   13    3     -1.60      0.00
  -10   13    2     -0.26      0.00
  -10   13    1      0.07      0.00
  -10   13    0     -0.52      0.00
   10  -13    1      1.38      0.00
   10  -13    2     -0.75      0.00
   10  -13    3      1.17      0.00
   10  -13    4     -0.83      0.00
   10  -13    5      0.11      0.00
   10  -13    6      0.63      0.00
   10  -13    7      0.32      0.00
   10  -13    8      0.21      0.00
   10  -13    9     -0.02      0.00
   10  -13   10     -0.10      0.00
   10  -13   11     -0.04      0.00
   10  -13   12      0.47      0.00
   10  -13   13      1.30      0.00
   10  -13   14      1.84      0.00
  -10   12    9     -3.02      0.00
  -10   12    8     -0.61      0.00
  -10   12    7    -27.80      0.00
  -10   12    6      0.04      0.00
  -10   12    5     -3.89      0.00
  -10   12    4     -0.52      0.00
  -10   12    3      2.24      0.00
  -10   12    2     -1.14      0.00
  -10   12    1      0.25      0.00
  -10   12    0      0.84      0.00
   10  -12    1     -0.43      0.00
   10  -12    2      0.25      0.00
   10  -12    3     -0.25      0.00
   10  -12    4      0.15      0.00
   10  -12    5      0.78      0.00
   10  -12    6     -1.14      0.00
   10  -12    7     -0.65      0.00
   10  -12    8      0.07      0.00
   10  -12    9     -0.04      0.00
   10  -12   10     -0.61      0.00
   10  -12   11      0.48      0.00
   10  -12   12      0.12      0.00
   10  -12   13     -0.37      0.00
   10  -12   14      0.95      0.00
   10  -12   15     -1.24      0.00
  -10   11    9     -4.81      0.00
  -10   11    8     -1.79      0.00
  -10   11    7     -0.72      0.00
  -10   11    6     -1.68      0.00
  -10   11    5     -0.11      0.00
  -10   11    4      1.92      0.00
  -10   11    3     -0.82      0.00
  -10   11    2      0.71      0.00
  -10   11    1      1.38      0.00
  -10   11    0      1.07      0.00
   10  -11    1      0.60      0.00
   10  -11    2     -1.05      0.00
   10  -11    3      1.22      0.00
   10  -11    4      0.61      0.00
   10  -11    5     -1.07      0.00
   10  -11    6      0.52      0.00
   10  -11    7      0.99      0.00
   10  -11    8     -0.18      0.00
   10  -11    9      0.68      0.00
   10  -11   10     -0.04      0.00
   10  -11   11     -1.10      0.00
   10  -11   12      0.36      0.00
   10  -11   13      0.28      0.00
   10  -11   14     -2.05      0.00
   10  -11   15     -0.45      0.00
   10  -11   16     -1.02      0.00
   10  -11   17     -0.20      0.00
   10  -11   18     -0.40      0.00
  -10   10   10      0.11      0.00
  -10   10    9      0.97      0.00
  -10   10    8      0.62      0.00
  -10   10    7     -1.00      0.00
  -10   10    6      2.56      0.00
  -10   10    5     -2.67      0.00
  -10   10    4     -0.38      0.00
  -10   10    3      1.00      0.00
  -10   10    2     -0.60      0.00
  -10   10    1     -0.75      0.00
  -10   10    0     -1.62      0.00
   10  -10    1      2.09      0.00
   10  -10    2      1.32      0.00
   10  -10    3     -0.95      0.00
   10  -10    4      0.40      0.00
   10  -10    5     -0.05      0.00
   10  -10    6     -0.26      0.00
   10  -10    7      0.47      0.00
   10  -10    8     -0.29      0.00
   10  -10    9     -0.11      0.00
   10  -10   10     -0.78      0.00
   10  -10   11      1.43      0.00
   10  -10   12     -0.20      0.00
   10  -10   13     -0.07      0.00
   10  -10   14     -0.56      0.00
   10  -10   15     -0.20      0.00
   10  -10   16     -1.12      0.00
   10  -10   17     -1.33      0.00
  -10    9   12     -0.25      0.00
  -10    9   11     -1.38      0.00
  -10    9   10     -0.86      0.00
  -10    9    9     -0.82      0.00
  -10    9    8      0.45      0.00
  -10    9    7     -0.03      0.00
  -10    9    6     -0.82      0.00
  -10    9    5      0.51      0.00
  -10    9    4     -0.73      0.00
  -10    9    3      0.13      0.00
  -10    9    2     -1.06      0.00
  -10    9    1      2.27      0.00
  -10    9    0      1.29      0.00
   10   -9    1     -0.23      0.00
   10   -9    2      1.77      0.00
   10   -9    3      1.00      0.00
   10   -9    4     -1.30      0.00
   10   -9    5     -0.23      0.00
   10   -9    6     -0.08      0.00
   10   -9    7     -0.91      0.00
   10   -9    8      1.36      0.00
   10   -9    9      0.59      0.00
   10   -9   10     -0.43      0.00
   10   -9   11     -0.94      0.00
   10   -9   12     -0.22      0.00
   10   -9   13      0.34      0.00
   10   -9   14      0.97      0.00
   10   -9   15      1.54      0.00
   10   -9   16     -0.86      0.00
   10   -9   17      1.14      0.00
   10   -9   18      0.91      0.00
  -10    8   12     -0.64      0.00
  -10    8   11      0.21      0.00
  -10    8   10     -0.97      0.00
  -10    8    9      0.49      0.00
  -10    8    8     -0.86      0.00
  -10    8    7      1.34      0.00
  -10    8    6      0.98      0.00
  -10    8    5      0.19      0.00
  -10    8    4     -0.57      0.00
  -10    8    3      0.93      0.00
  -10    8    2      0.80      0.00
  -10    8    1     -0.16      0.00
  -10    8    0      1.40      0.00
   10   -8    1     -0.79      0.00
   10   -8    2      0.07      0.00
   10   -8    3      0.00      0.00
   10   -8    4      0.42      0.00
   10   -8    5     -2.11      0.00
   10   -8    6     -0.44      0.00
   10   -8    7     -1.48      0.00
   10   -8    8      0.35      0.00
   10   -8    9      2.53      0.00
   10   -8   10      0.91      0.00
   10   -8   11      0.37      0.00
   10   -8   12      2.06      0.00
   10   -8   13      0.62      0.00
   10   -8   14     -0.27      0.00
   10   -8   15     -0.69      0.00
   10   -8   16     -0.91      0.00
   10   -8   17      1.47      0.00
   10   -8   18     -2.14      0.00
   10   -8   19      1.64      0.00
   10   -8   20     -1.30      0.00
   10   -8   21      0.62      0.00
  -10    7   14     -2.96      0.00
  -10    7   13     -0.33      0.00
  -10    7   12      0.01      0.00
  -10    7   11     -0.56      0.00
  -10    7   10     -0.35      0.00
  -10    7    9     -1.76      0.00
  -10    7    8     -0.77      0.00
  -10    7    7      1.98      0.00
  -10    7    6      1.71      0.00
  -10    7    5     -0.02      0.00
  -10    7    4      1.94      0.00
  -10    7    3      0.88      0.00
  -10    7    2     -0.99      0.00
  -10    7    1      0.08      0.00
  -10    7    0      0.08      0.00
   10   -7    1      0.32      0.00
   10   -7    2      0.19      0.00
   10   -7    3     -1.13      0.00
   10   -7    4     -2.37      0.00
   10   -7    5     -0.87      0.00
   10   -7    6      1.77      0.00
   10   -7    7      0.41      0.00
   10   -7    8      1.91      0.00
   10   -7    9     -0.64      0.00
   10   -7   10      1.31      0.00
   10   -7   11      0.26      0.00
   10   -7   12     -0.93      0.00
   10   -7   13      0.10      0.00
   10   -7   14      0.24      0.00
   10   -7   15      0.42      0.00
   10   -7   16     -0.65      0.00
   10   -7   17      0.16      0.00
   10   -7   18      1.41      0.00
   10   -7   19      2.55      0.00
   10   -7   20      2.80      0.00
   10   -7   21      1.37      0.00
  -10    6   14     -0.89      0.00
  -10    6   13      0.11      0.00
  -10    6   12      0.56      0.00
  -10    6   11      0.57      0.00
  -10    6   10     -0.08      0.00
  -10    6    9     -2.06      0.00
  -10    6    8      0.33      0.00
  -10    6    7      0.89      0.00
  -10    6    6      0.62      0.00
  -10    6    5      0.51      0.00
  -10    6    4     -0.26      0.00
  -10    6    3      1.09      0.00
  -10    6    2     -0.30      0.00
  -10    6    1      0.36      0.00
  -10    6    0      0.13      0.00
   10   -6    1     -1.20      0.00
   10   -6    2      0.61      0.00
   10   -6    3     -0.46      0.00
   10   -6    4     -1.09      0.00
   10   -6    5     -0.87      0.00
   10   -6    6     -0.39      0.00
   10   -6    7      0.08      0.00
   10   -6    8      0.52      0.00
   10   -6    9     -0.24      0.00
   10   -6   10     -2.93      0.00
   10   -6   11      1.68      0.00
   10   -6   12     -0.57      0.00
   10   -6   13      0.37      0.00
   10   -6   14     -0.93      0.00
   10   -6   15      0.01      0.00
   10   -6   16     -0.71      0.00
   10   -6   17      0.88      0.00
   10   -6   18      0.14      0.00
   10   -6   19      1.97      0.00
   10   -6   20     -1.82      0.00
   10   -6   21      0.51      0.00
   10   -6   22      0.34      0.00
  -10    5   14      0.12      0.00
  -10    5   13     -0.57      0.00
  -10    5   12      0.10      0.00
  -10    5   11     -1.42      0.00
  -10    5   10      0.35      0.00
  -10    5    9      0.14      0.00
  -10    5    8      0.66      0.00
  -10    5    7      0.89      0.00
  -10    5    6     -1.06      0.00
  -10    5    5     -0.65      0.00
  -10    5    4      0.93      0.00
  -10    5    3     -0.23      0.00
  -10    5    2      0.88      0.00
  -10    5    1     -0.40      0.00
  -10    5    0     -2.95      0.00
   10   -5    1     -2.06      0.00
   10   -5    2     -0.12      0.00
   10   -5    3     -2.63      0.00
   10   -5    4     -0.44      0.00
   10   -5    5      0.38      0.00
   10   -5    6     -0.55      0.00
   10   -5    7      1.01      0.00
   10   -5    8     -0.99      0.00
   10   -5    9      1.09      0.00
   10   -5   10      0.72      0.00
   10   -5   11      0.62      0.00
   10   -5   12     -1.83      0.00
   10   -5   13     -2.69      0.00
   10   -5   14     -1.24      0.00
   10   -5   15      0.31      0.00
   10   -5   16      0.06      0.00
   10   -5   17      1.80      0.00
   10   -5   18     -1.42      0.00
   10   -5   19      1.72      0.00
   10   -5   20      0.74      0.00
   10   -5   21      1.91      0.00
   10   -5   22      0.34      0.00
  -10    4   14     -0.05      0.00
  -10    4   13      1.15      0.00
  -10    4   12      0.51      0.00
  -10    4   11      0.10      0.00
  -10    4   10      1.02      0.00
  -10    4    9     -0.16      0.00
  -10    4    8     -0.05      0.00
  -10    4    7     -1.62      0.00
  -10    4    6      1.66      0.00
  -10    4    5      1.28      0.00
  -10    4    4      0.60      0.00
  -10    4    3     -2.64      0.00
  -10    4    2     -0.14      0.00
  -10    4    1      1.15      0.00
  -10    4    0     -1.15      0.00
   10   -4    1     -0.03      0.00
   10   -4    2      0.10      0.00
   10   -4    3     -0.42      0.00
   10   -4    4      1.66      0.00
   10   -4    5      0.83      0.00
   10   -4    6     -3.33      0.00
   10   -4    7      0.24      0.00
   10   -4    8     -1.86      0.00
   10   -4    9     -1.55      0.00
   10   -4   10      0.79      0.00
   10   -4   11     -0.38      0.00
   10   -4   12     -0.40      0.00
   10   -4   13      0.64      0.00
   10   -4   14     -1.23      0.00
   10   -4   15     -0.76      0.00
   10   -4   16      0.38      0.00
   10   -4   17     -0.89      0.00
   10   -4   18      0.44      0.00
   10   -4   19     -0.12      0.00
   10   -4   20     -0.30      0.00
   10   -4   21     -0.54      0.00
   10   -4   22      0.03      0.00
  -10    3   14      0.40      0.00
  -10    3   13      0.22      0.00
  -10    3   12      0.81      0.00
  -10    3   11     -1.12      0.00
  -10    3   10     -1.08      0.00
  -10    3    9     -1.55      0.00
  -10    3    8      0.04      0.00
  -10    3    7      0.31      0.00
  -10    3    6     -1.22      0.00
  -10    3    5     -0.24      0.00
  -10    3    4     -1.83      0.00
  -10    3    3      0.57      0.00
  -10    3    2      3.94      0.00
  -10    3    1      1.86      0.00
  -10    3    0     -0.96      0.00
   10   -3    1     -0.71      0.00
   10   -3    2     -3.79      0.00
   10   -3    3      1.04      0.00
   10   -3    4      0.72      0.00
   10   -3    5     -3.58      0.00
   10   -3    6     -1.83      0.00
   10   -3    7     -2.36      0.00
   10   -3    8      0.90      0.00
   10   -3    9     -1.12      0.00
   10   -3   10      0.31      0.00
   10   -3   11     -2.47      0.00
   10   -3   12      0.57      0.00
   10   -3   13     -0.47      0.00
   10   -3   14      0.95      0.00
   10   -3   15     -1.57      0.00
   10   -3   16     -0.43      0.00
   10   -3   17     -0.04      0.00
   10   -3   18      0.81      0.00
   10   -3   19      1.29      0.00
   10   -3   20      0.20      0.00
   10   -3   21      0.53      0.00
   10   -3   22     -0.97      0.00
  -10    2   14     -0.87      0.00
  -10    2   13     -0.28      0.00
  -10    2   12     -1.74      0.00
  -10    2   11     -1.56      0.00
  -10    2   10     -1.17      0.00
  -10    2    9     -0.82      0.00
  -10    2    8      0.30      0.00
  -10    2    7     -0.11      0.00
  -10    2    6      0.38      0.00
  -10    2    5      1.37      0.00
  -10    2    4      0.96      0.00
  -10    2    3      0.17      0.00
  -10    2    2      1.37      0.00
  -10    2    1     -1.86      0.00
  -10    2    0      1.09      0.00
   10   -2    1     -1.78      0.00
   10   -2    2     -0.04      0.00
   10   -2    3     -4.37      0.00
   10   -2    4      2.05      0.00
   10   -2    5     -5.46      0.00
   10   -2    6      1.34      0.00
   10   -2    7     -1.43      0.00
   10   -2    8     -0.36      0.00
   10   -2    9     -0.43      0.00
   10   -2   10      4.10      0.00
   10   -2   11     -0.64      0.00
   10   -2   12      3.48      0.00
   10   -2   13      0.02      0.00
   10   -2   14     -0.11      0.00
   10   -2   15      0.81      0.00
   10   -2   16      0.32      0.00
   10   -2   17      0.16      0.00
   10   -2   18      0.51      0.00
   10   -2   19      1.56      0.00
   10   -2   20      0.92      0.00
   10   -2   21      1.03      0.00
   10   -2   22     -0.20      0.00
  -10    1   14     -0.98      0.00
  -10    1   13     -1.80      0.00
  -10    1   12     -0.43      0.00
  -10    1   11     -0.46      0.00
  -10    1   10     -0.09      0.00
  -10    1    9      0.77      0.00
  -10    1    8      0.20      0.00
  -10    1    7     -0.26      0.00
  -10    1    6      2.24      0.00
  -10    1    5     -0.51      0.00
  -10    1    4      0.22      0.00
  -10    1    3     -0.38      0.00
  -10    1    2     -1.52      0.00
  -10    1    1      0.57      0.00
  -10    1    0      4.24      0.00
   10   -1    1     -1.60      0.00
   10   -1    2      0.39      0.00
   10   -1    3     -1.29      0.00
   10   -1    4     -0.02      0.00
   10   -1    5     -1.90      0.00
   10   -1    6      4.13      0.00
   10   -1    7     -2.40      0.00
   10   -1    8      2.42      0.00
   10   -1    9      3.52      0.00
   10   -1   10      4.49      0.00
   10   -1   11      2.36      0.00
   10   -1   12      1.04      0.00
   10   -1   13      0.34      0.00
   10   -1   14      1.46      0.00
   10   -1   15      0.30      0.00
   10   -1   16     -0.35      0.00
   10   -1   17      1.23      0.00
   10   -1   18     -1.66      0.00
   10   -1   19      1.64      0.00
   10   -1   20     -0.88      0.00
   10   -1   21      1.24      0.00
   10   -1   22      0.32      0.00
  -10    0   14      0.77      0.00
  -10    0   13     -1.16      0.00
  -10    0   12     -0.85      0.00
  -10    0   11     -0.48      0.00
  -10    0   10      0.46      0.00
  -10    0    9      0.90      0.00
  -10    0    8      1.42      0.00
  -10    0    7      0.42      0.00
  -10    0    6      0.32      0.00
  -10    0    5     -1.31      0.00
  -10    0    4     -0.38      0.00
  -10    0    3     -2.25      0.00
  -10    0    2     -1.65      0.00
  -10    0    1     -6.25      0.00
   10    0    0     -1.57      0.00
   10    0    1     -3.12      0.00
   10    0    2     -2.96      0.00
   10    0    3      4.33      0.00
   10    0    4      3.83      0.00
   10    0    5      5.44      0.00
   10    0    6      5.88      0.00
   10    0    7      2.05      0.00
   10    0    8      2.21      0.00
   10    0    9      4.86      0.00
   10    0   10     -2.68      0.00
   10    0   11      1.33      0.00
   10    0   12      1.37      0.00
   10    0   13     -0.19      0.00
   10    0   14     -1.62      0.00
   10    0   15      0.43      0.00
   10    0   16     -0.84      0.00
   10    0   17     -0.60      0.00
   10    0   18     -0.43      0.00
   10    0   19     -1.20      0.00
   10    0   20     -1.65      0.00
   10    0   21     -1.03      0.00
   10    0   22     -1.08      0.00
  -10   -1   13      0.13      0.00
  -10   -1   12     -1.05      0.00
  -10   -1   11     -0.50      0.00
  -10   -1   10      0.86      0.00
  -10   -1    9     -0.53      0.00
  -10   -1    8     -0.61      0.00
  -10   -1    7     -0.15      0.00
  -10   -1    6     -0.99      0.00
  -10   -1    5      0.35      0.00
  -10   -1    4      0.01      0.00
  -10   -1    3     -0.32      0.00
  -10   -1    2     -4.07      0.00
  -10   -1    1      1.57      0.00
   10    1    0     -1.20      0.00
   10    1    1      4.58      0.00
   10    1    2      5.22      0.00
   10    1    3      3.95      0.00
   10    1    4     -2.59      0.00
   10    1    5      9.64      0.00
   10    1    6      4.26      0.00
   10    1    7      6.35      0.00
   10    1    8      0.76      0.00
   10    1    9     -0.36      0.00
   10    1   10     -0.95      0.00
   10    1   11      0.66      0.00
   10    1   12     -2.34      0.00
   10    1   13     -0.13      0.00
   10    1   14     -2.06      0.00
   10    1   15      0.60      0.00
   10    1   16     -1.05      0.00
   10    1   17     -1.94      0.00
   10    1   18     -0.66      0.00
   10    1   19      0.54      0.00
   10    1   20      0.38      0.00
   10    1   21      0.02      0.00
   10    1   22     -1.20      0.00
  -10   -2   14     -0.22      0.00
  -10   -2   13      0.01      0.00
  -10   -2   12      1.04      0.00
  -10   -2   11      0.11      0.00
  -10   -2   10     -0.33      0.00
  -10   -2    9      0.99      0.00
  -10   -2    8     -0.94      0.00
  -10   -2    7      0.05      0.00
  -10   -2    6     -0.85      0.00
  -10   -2    5      0.19      0.00
  -10   -2    4      0.37      0.00
  -10   -2    3      2.48      0.00
  -10   -2    2     -0.09      0.00
  -10   -2    1      1.97      0.00
   10    2    0     -0.56      0.00
   10    2    1     -0.08      0.00
   10    2    2      0.01      0.00
   10    2    3      0.47      0.00
   10    2    4     -1.86      0.00
   10    2    5      4.89      0.00
   10    2    6     -1.53      0.00
   10    2    7      4.60      0.00
   10    2    8      1.51      0.00
   10    2    9     -1.62      0.00
   10    2   10     -1.54      0.00
   10    2   11      1.11      0.00
   10    2   12     -3.11      0.00
   10    2   13     -1.64      0.00
   10    2   14      1.31      0.00
   10    2   15     -0.94      0.00
   10    2   16     -0.02      0.00
   10    2   17      0.70      0.00
   10    2   18      0.99      0.00
   10    2   19      0.49      0.00
   10    2   20      0.44      0.00
   10    2   21      0.14      0.00
   10    2   22      0.73      0.00
   10    2   23     -0.97      0.00
   10    2   24      0.63      0.00
  -10   -3   14      1.76      0.00
  -10   -3   13     -0.50      0.00
  -10   -3   12      0.36      0.00
  -10   -3   11     -0.07      0.00
  -10   -3   10     -0.95      0.00
  -10   -3    9     -0.99      0.00
  -10   -3    8     -0.17      0.00
  -10   -3    7     -1.14      0.00
  -10   -3    6     -1.26      0.00
  -10   -3    5      2.42      0.00
  -10   -3    4      0.65      0.00
  -10   -3    3      1.28      0.00
  -10   -3    2     -1.14      0.00
  -10   -3    1      0.75      0.00
   10    3    0     -6.16      0.00
   10    3    1      0.62      0.00
   10    3    2      1.08      0.00
   10    3    3      0.32      0.00
   10    3    4      0.01      0.00
   10    3    5     -0.48      0.00
   10    3    6     -2.63      0.00
   10    3    7      1.62      0.00
   10    3    8      5.43      0.00
   10    3    9      0.42      0.00
   10    3   10      0.00      0.00
   10    3   11     -2.29      0.00
   10    3   12      2.84      0.00
   10    3   13     -0.63      0.00
   10    3   14      0.99      0.00
   10    3   15      0.07      0.00
   10    3   16      0.97      0.00
   10    3   17     -0.10      0.00
   10    3   18      1.02      0.00
   10    3   19     -0.16      0.00
   10    3   20      0.18      0.00
   10    3   21      0.84      0.00
   10    3   22     -0.71      0.00
   10    3   23     -0.66      0.00
   10    3   24     -2.40      0.00
  -10   -4   14     -0.91      0.00
  -10   -4   13     -1.30      0.00
  -10   -4   12     -0.28      0.00
  -10   -4   11     -0.76      0.00
  -10   -4   10      0.61      0.00
  -10   -4    9      0.22      0.00
  -10   -4    8     -1.20      0.00
  -10   -4    7      2.35      0.00
  -10   -4    6     -0.57      0.00
  -10   -4    5     -0.02      0.00
  -10   -4    4     -0.71      0.00
  -10   -4    3     -0.87      0.00
  -10   -4    2     -0.93      0.00
  -10   -4    1     -1.78      0.00
   10    4    0     -2.54      0.00
   10    4    1     -2.61      0.00
   10    4    2     -1.61      0.00
   10    4    3      1.96      0.00
   10    4    4      3.79      0.00
   10    4    5     -2.97      0.00
   10    4    6      1.73      0.00
   10    4    7      2.04      0.00
   10    4    8      1.98      0.00
   10    4    9     -2.29      0.00
   10    4   10      4.75      0.00
   10    4   11     -0.71      0.00
   10    4   12      3.02      0.00
   10    4   13      1.88      0.00
   10    4   14     -0.76      0.00
   10    4   15     -1.38      0.00
   10    4   16      0.70      0.00
   10    4   17     -0.98      0.00
   10    4   18     -0.61      0.00
   10    4   19     -1.94      0.00
   10    4   20      0.40      0.00
   10    4   21     -2.01      0.00
   10    4   22     -0.12      0.00
   10    4   23     -0.59      0.00
   10    4   24      0.21      0.00
  -10   -5   14     -1.38      0.00
  -10   -5   13     -0.48      0.00
  -10   -5   12     -0.04      0.00
  -10   -5   11      1.93      0.00
  -10   -5   10     -1.36      0.00
  -10   -5    9      1.08      0.00
  -10   -5    8      1.25      0.00
  -10   -5    7      1.43      0.00
  -10   -5    6     -0.66      0.00
  -10   -5    5      0.37      0.00
  -10   -5    4     -1.19      0.00
  -10   -5    3      0.05      0.00
  -10   -5    2      2.02      0.00
  -10   -5    1     -1.58      0.00
   10    5    0     -0.32      0.00
   10    5    1      0.93      0.00
   10    5    2     -0.42      0.00
   10    5    3     -1.10      0.00
   10    5    4      7.99      0.00
   10    5    5     -0.97      0.00
   10    5    6      4.96      0.00
   10    5    7     -0.02      0.00
   10    5    8      5.35      0.00
   10    5    9      0.23      0.00
   10    5   10      3.75      0.00
   10    5   11     -3.24      0.00
   10    5   12      1.46      0.00
   10    5   13     -2.15      0.00
   10    5   14     -1.21      0.00
   10    5   15     -1.25      0.00
   10    5   16     -0.67      0.00
   10    5   17     -0.32      0.00
   10    5   18      0.11      0.00
   10    5   19     -0.84      0.00
   10    5   20     -0.38      0.00
   10    5   21      2.60      0.00
   10    5   22      0.38      0.00
   10    5   23      0.03      0.00
   10    5   24     -0.17      0.00
  -10   -6   14      0.19      0.00
  -10   -6   13      0.96      0.00
  -10   -6   12     -3.28      0.00
  -10   -6   11     -1.99      0.00
  -10   -6   10     -0.37      0.00
  -10   -6    9     -0.68      0.00
  -10   -6    8     -0.43      0.00
  -10   -6    7     -1.70      0.00
  -10   -6    6      0.76      0.00
  -10   -6    5     -0.32      0.00
  -10   -6    4      1.40      0.00
  -10   -6    3     -0.04      0.00
  -10   -6    2      0.11      0.00
  -10   -6    1      0.19      0.00
   10    6    0      0.64      0.00
   10    6    1     -1.72      0.00
   10    6    2      0.07      0.00
   10    6    3     -0.72      0.00
   10    6    4      1.32      0.00
   10    6    5     -0.32      0.00
   10    6    6      4.84      0.00
   10    6    7     -1.70      0.00
   10    6    8     -0.48      0.00
   10    6    9      2.06      0.00
   10    6   10      2.19      0.00
   10    6   11     -2.52      0.00
   10    6   12     -0.68      0.00
   10    6   13     -2.68      0.00
   10    6   14     -0.28      0.00
   10    6   15      1.31      0.00
   10    6   16     -1.50      0.00
   10    6   17      0.70      0.00
   10    6   18      0.72      0.00
   10    6   19      2.18      0.00
   10    6   20      1.78      0.00
   10    6   21     -1.42      0.00
   10    6   22     -1.20      0.00
   10    6   23     -0.18      0.00
   10    6   24     -0.07      0.00
  -10   -7   14      0.23      0.00
  -10   -7   13     -1.23      0.00
  -10   -7   12      0.41      0.00
  -10   -7   11      0.93      0.00
  -10   -7   10     -0.69      0.00
  -10   -7    9     -0.53      0.00
  -10   -7    8     -0.56      0.00
  -10   -7    7     -1.66      0.00
  -10   -7    6      0.51      0.00
  -10   -7    5     -0.21      0.00
  -10   -7    4     -1.22      0.00
  -10   -7    3      1.71      0.00
  -10   -7    2      0.84      0.00
  -10   -7    1      0.04      0.00
   10    7    0      1.23      0.00
   10    7    1     -0.87      0.00
   10    7    2     -4.10      0.00
   10    7    3      1.90      0.00
   10    7    4      0.07      0.00
   10    7    5     -0.44      0.00
   10    7    6     -0.04      0.00
   10    7    7     -3.48      0.00
   10    7    8      1.78      0.00
   10    7    9      0.20      0.00
   10    7   10     -0.44      0.00
   10    7   11     -1.08      0.00
   10    7   12     -0.47      0.00
   10    7   13      2.15      0.00
   10    7   14     -0.12      0.00
   10    7   15      1.30      0.00
   10    7   16     -0.57      0.00
   10    7   17      1.35      0.00
   10    7   18      0.99      0.00
   10    7   19      0.28      0.00
   10    7   20      0.33      0.00
   10    7   21     -0.53      0.00
   10    7   22      0.09      0.00
   10    7   23     -0.69      0.00
  -10   -8   13     -1.87      0.00
  -10   -8   12      0.56      0.00
  -10   -8   11     -0.85      0.00
  -10   -8   10     -0.68      0.00
  -10   -8    9     -1.03      0.00
  -10   -8    8     -0.03      0.00
  -10   -8    7      1.23      0.00
  -10   -8    6     -0.64      0.00
  -10   -8    5     -0.20      0.00
  -10   -8    4      0.53      0.00
  -10   -8    3      0.52      0.00
  -10   -8    2     -0.90      0.00
  -10   -8    1     -0.77      0.00
   10    8    0     -0.88      0.00
   10    8    1      0.52      0.00
   10    8    2      0.70      0.00
   10    8    3      2.50      0.00
   10    8    4     -2.36      0.00
   10    8    5      1.92      0.00
   10    8    6     -1.01      0.00
   10    8    7     -0.69      0.00
   10    8    8     -0.24      0.00
   10    8    9      0.07      0.00
   10    8   10     -1.77      0.00
   10    8   11     -0.45      0.00
   10    8   12     -0.41      0.00
   10    8   13     -0.46      0.00
   10    8   14      0.30      0.00
   10    8   15      0.15      0.00
   10    8   16     -0.57      0.00
   10    8   17      2.36      0.00
   10    8   18      0.30      0.00
   10    8   19     -1.28      0.00
   10    8   20      0.58      0.00
   10    8   21     -0.97      0.00
   10    8   22     -0.24      0.00
  -10   -9   13     -0.01      0.00
  -10   -9   12     -1.70      0.00
  -10   -9   11      1.79      0.00
  -10   -9   10     -1.94      0.00
  -10   -9    9      1.64      0.00
  -10   -9    8     -1.01      0.00
  -10   -9    7      0.31      0.00
  -10   -9    6      0.19      0.00
  -10   -9    5      0.75      0.00
  -10   -9    4      0.26      0.00
  -10   -9    3      1.55      0.00
  -10   -9    2     -0.40      0.00
  -10   -9    1      1.32      0.00
   10    9    0     -1.56      0.00
   10    9    1      0.14      0.00
   10    9    2     -1.36      0.00
   10    9    3     -0.82      0.00
   10    9    4     -2.73      0.00
   10    9    5      2.69      0.00
   10    9    6      0.82      0.00
   10    9    7      3.32      0.00
   10    9    8     -0.70      0.00
   10    9    9     -0.87      0.00
   10    9   10      1.50      0.00
   10    9   11      0.65      0.00
   10    9   12     -0.36      0.00
   10    9   13     -2.01      0.00
   10    9   14      1.08      0.00
   10    9   15      0.88      0.00
   10    9   16     -0.04      0.00
   10    9   17     -1.27      0.00
   10    9   18     -0.01      0.00
   10    9   19     -0.45      0.00
   10    9   20      0.56      0.00
   10    9   21     -1.09      0.00
   10    9   22      1.17      0.00
   10    9   23      0.69      0.00
  -10  -10   13      0.80      0.00
  -10  -10   12     -1.15      0.00
  -10  -10   11     -2.89      0.00
  -10  -10   10     -1.13      0.00
  -10  -10    9      1.66      0.00
  -10  -10    8     -0.60      0.00
  -10  -10    7      0.20      0.00
  -10  -10    6     -1.62      0.00
  -10  -10    5     -0.25      0.00
  -10  -10    4      0.09      0.00
  -10  -10    3      0.34      0.00
  -10  -10    2      0.94      0.00
  -10  -10    1      0.93      0.00
   10   10    0     -0.99      0.00
   10   10    1      0.36      0.00
   10   10    2     -1.75      0.00
   10   10    3      0.31      0.00
   10   10    4     -0.05      0.00
   10   10    5      0.51      0.00
   10   10    6     -0.57      0.00
   10   10    7      0.56      0.00
   10   10    8      0.91      0.00
   10   10    9      0.25      0.00
   10   10   10      0.48      0.00
   10   10   11     -1.30      0.00
   10   10   12     -0.16      0.00
   10   10   13     -0.18      0.00
   10   10   14      0.83      0.00
   10   10   15     -2.08      0.00
   10   10   16     -0.44      0.00
   10   10   17     -0.64      0.00
   10   10   18     -0.99      0.00
   10   10   19     -0.03      0.00
   10   10   20     -0.84      0.00
   10   10   21     -1.33      0.00
   10   10   22     -0.71      0.00
  -10  -11   12      0.45      0.00
  -10  -11   11     -0.60      0.00
  -10  -11   10      0.43      0.00
  -10  -11    9      1.31      0.00
  -10  -11    8      0.56      0.00
  -10  -11    7      0.70      0.00
  -10  -11    6     -1.22      0.00
  -10  -11    5     -0.80      0.00
  -10  -11    4     -0.04      0.00
  -10  -11    3     -1.27      0.00
  -10  -11    2      0.48      0.00
  -10  -11    1     -0.91      0.00
   10   11    0     -1.50      0.00
   10   11    1      0.25      0.00
   10   11    2      0.46      0.00
   10   11    3      0.63      0.00
   10   11    4      1.16      0.00
   10   11    5      0.51      0.00
   10   11    6     -0.74      0.00
   10   11    7     -0.36      0.00
   10   11    8      0.67      0.00
   10   11    9     -0.09      0.00
   10   11   10      0.60      0.00
   10   11   11      0.47      0.00
   10   11   12      1.10      0.00
   10   11   13      0.82      0.00
   10   11   14      0.71      0.00
   10   11   15      1.75      0.00
   10   11   16      0.37      0.00
   10   11   17      0.02      0.00
   10   11   18      0.26      0.00
   10   11   19     -1.19      0.00
   10   11   20     -1.25      0.00
   10   11   21     -1.35      0.00
   10   11   22      0.27      0.00
  -10  -12   11      0.48      0.00
  -10  -12   10      0.20      0.00
  -10  -12    9      0.38      0.00
  -10  -12    8     -0.38      0.00
  -10  -12    7      0.31      0.00
  -10  -12    6      0.61      0.00
  -10  -12    5     -0.42      0.00
  -10  -12    4      1.45      0.00
  -10  -12    3      0.46      0.00
  -10  -12    2      1.23      0.00
  -10  -12    1      2.00      0.00
   10   12    0      0.98      0.00
   10   12    1      0.51      0.00
   10   12    2     -0.27      0.00
   10   12    3      1.20      0.00
   10   12    4      0.33      0.00
   10   12    5     -0.33      0.00
   10   12    6      0.24      0.00
   10   12    7      0.25      0.00
   10   12    8     -0.48      0.00
   10   12    9     -0.52      0.00
   10   12   10      0.54      0.00
   10   12   11     -0.38      0.00
   10   12   12      0.38      0.00
   10   12   13     -0.35      0.00
   10   12   14      0.79      0.00
   10   12   15     -0.10      0.00
   10   12   16      2.32      0.00
   10   12   17      0.25      0.00
   10   12   18     -0.40      0.00
   10   12   19     -0.13      0.00
   10   12   20     -2.32      0.00
   10   12   21     -1.09      0.00
   10   12   22      0.53      0.00
   10   12   23      0.45      0.00
  -10  -13   10      1.51      0.00
  -10  -13    9     -0.58      0.00
  -10  -13    8      1.25      0.00
  -10  -13    7     -0.52      0.00
  -10  -13    6     -0.11      0.00
  -10  -13    5     -0.24      0.00
  -10  -13    4      0.25      0.00
  -10  -13    3     -1.03      0.00
  -10  -13    2     -0.06      0.00
  -10  -13    1     -0.92      0.00
   10   13    0      1.19      0.00
   10   13    1     -0.40      0.00
   10   13    2     -1.09      0.00
   10   13    3     -0.09      0.00
   10   13    4      0.41      0.00
   10   13    5     -0.41      0.00
   10   13    6     -0.05      0.00
   10   13    7     -0.43      0.00
   10   13    8     -1.34      0.00
   10   13    9     -0.23      0.00
   10   13   10     -0.32      0.00
   10   13   11     -0.78      0.00
   10   13   12      0.30      0.00
   10   13   13      0.17      0.00
   10   13   14     -1.06      0.00
   10   13   15      0.31      0.00
   10   13   16     -1.53      0.00
   10   13   17     -0.21      0.00
   10   13   18     -1.40      0.00
   10   13   19     -0.17      0.00
   10   13   20     -0.20      0.00
  -10  -14   11      0.69      0.00
  -10  -14   10     -0.26      0.00
  -10  -14    8     -1.05      0.00
  -10  -14    7      0.80      0.00
  -10  -14    6      0.85      0.00
  -10  -14    5      0.18      0.00
  -10  -14    4     -0.14      0.00
  -10  -14    3     -0.45      0.00
  -10  -14    2      0.35      0.00
  -10  -14    1     -0.24      0.00
   10   14    0     -0.02      0.00
   10   14    1      1.21      0.00
   10   14    2     -0.49      0.00
   10   14    3      1.09      0.00
   10   14    4     -1.05      0.00
   10   14    5      0.99      0.00
   10   14    6      0.97      0.00
   10   14    7     -1.03      0.00
   10   14    8      0.50      0.00
   10   14    9      0.25      0.00
   10   14   10      0.53      0.00
   10   14   11      0.72      0.00
   10   14   12     -0.74      0.00
   10   14   13      0.07      0.00
   10   14   14     -0.91      0.00
   10   14   15      0.73      0.00
   10   14   16     -0.51      0.00
   10   14   17      1.00      0.00
   10   14   18     -0.83      0.00
   10   14   19     -0.41      0.00
  -10  -15   11      0.23      0.00
  -10  -15   10      1.26      0.00
  -10  -15    9     -0.15      0.00
  -10  -15    8     -0.36      0.00
  -10  -15    7     -0.75      0.00
  -10  -15    6     -0.81      0.00
  -10  -15    5      0.75      0.00
  -10  -15    4      0.72      0.00
  -10  -15    3      0.21      0.00
  -10  -15    2      0.91      0.00
  -10  -15    1     -0.11      0.00
   10   15    0     -0.53      0.00
   10   15    1     -0.15      0.00
   10   15    2      0.36      0.00
   10   15    3     -0.60      0.00
   10   15    4     -0.12      0.00
   10   15    5     -0.29      0.00
   10   15    6     -1.79      0.00
   10   15    7     -0.60      0.00
   10   15    8      0.25      0.00
   10   15    9      0.74      0.00
   10   15   10     -0.94      0.00
   10   15   11      0.38      0.00
   10   15   12     -0.69      0.00
   10   15   13      0.59      0.00
   10   15   14     -1.00      0.00
   10   15   15      0.17      0.00
   10   15   16     -0.27      0.00
   10   15   17      0.37      0.00
   10   15   18      0.57      0.00
   10   15   19      0.40      0.00
  -10  -16   11      0.80      0.00
  -10  -16   10     -0.39      0.00
  -10  -16    9      1.01      0.00
  -10  -16    8     -0.75      0.00
  -10  -16    5     -0.33      0.00
  -10  -16    4     -0.86      0.00
  -10  -16    3     -1.73      0.00
  -10  -16    2     -0.64      0.00
  -10  -16    1      1.36      0.00
   10   16    0     -0.39      0.00
   10   16    1     -0.45      0.00
   10   16    2     -1.30      0.00
   10   16    3     -0.79      0.00
   10   16    4     -1.13      0.00
   10   16    5     -0.33      0.00
   10   16   11      0.53      0.00
   10   16   12      0.43      0.00
   10   16   13      0.95      0.00
   10   16   14      0.63      0.00
   10   16   15      0.64      0.00
   10   16   16     -2.28      0.00
   10   16   17      0.36      0.00
  -10  -17   10      0.92      0.00
  -10  -17    9     -1.23      0.00
  -10  -17    7      0.15      0.00
   10   17    0     -0.77      0.00
   10   17    3     -0.56      0.00
   10   17    4     -0.18      0.00
   10   17   16      0.34      0.00
   10   18    0     -0.03      0.00
   10   18    1     -0.84      0.00
   10   18    2     -1.41      0.00
   11  -17    8     -1.65      0.00
   11  -17    9     -0.99      0.00
  -11   16    0     -1.72      0.00
   11  -16    1     -0.45      0.00
   11  -16    2     -0.45      0.00
   11  -16    3      4.91      0.00
   11  -16    7     -1.48      0.00
   11  -16    8      0.41      0.00
  -11   15    4      0.47      0.00
  -11   15    2     -1.09      0.00
  -11   15    1     -0.25      0.00
   11  -15    1     -3.05      0.00
   11  -15    2      2.04      0.00
   11  -15    5      0.26      0.00
   11  -15    6      0.76      0.00
   11  -15    7     -0.78      0.00
   11  -15    8      0.76      0.00
  -11   14    7      1.33      0.00
  -11   14    4     -1.75      0.00
  -11   14    3      2.09      0.00
  -11   14    2      0.78      0.00
  -11   14    1      0.58      0.00
  -11   14    0      0.11      0.00
   11  -14    1      2.01      0.00
   11  -14    4      0.14      0.00
   11  -14    6      0.71      0.00
   11  -14    7      0.28      0.00
   11  -14    8      0.20      0.00
   11  -14    9      0.64      0.00
   11  -14   14     -0.19      0.00
  -11   13    6     -5.87      0.00
  -11   13    5     -1.09      0.00
  -11   13    4     -1.29      0.00
  -11   13    3     -3.21      0.00
  -11   13    2     -0.37      0.00
  -11   13    1      0.20      0.00
  -11   13    0      0.58      0.00
   11  -13    1     -0.25      0.00
   11  -13    2      2.10      0.00
   11  -13    3      0.71      0.00
   11  -13    4      2.26      0.00
   11  -13    5      0.00      0.00
   11  -13    6      0.88      0.00
   11  -13    7     -0.42      0.00
   11  -13    8      2.11      0.00
   11  -13    9      0.23      0.00
   11  -13   13      1.21      0.00
   11  -13   14      2.53      0.00
   11  -13   15      0.53      0.00
  -11   12    8     -4.15      0.00
  -11   12    6     -8.10      0.00
  -11   12    5     -2.30      0.00
  -11   12    4     -2.55      0.00
  -11   12    3      3.77      0.00
  -11   12    2     -2.37      0.00
  -11   12    1     -1.62      0.00
  -11   12    0      1.44      0.00
   11  -12    1     -0.25      0.00
   11  -12    2      1.40      0.00
   11  -12    3     -0.42      0.00
   11  -12    4      1.56      0.00
   11  -12    5      0.78      0.00
   11  -12    6      0.08      0.00
   11  -12    7      0.01      0.00
   11  -12    8     -1.27      0.00
   11  -12    9     -0.78      0.00
   11  -12   11     -0.51      0.00
   11  -12   14      1.01      0.00
   11  -12   15     -0.48      0.00
   11  -12   16     -0.25      0.00
  -11   11    9     -0.12      0.00
  -11   11    8     -2.58      0.00
  -11   11    7      0.66      0.00
  -11   11    5      5.19      0.00
  -11   11    4      0.35      0.00
  -11   11    3     -2.33      0.00
  -11   11    2      1.71      0.00
  -11   11    1     -0.40      0.00
  -11   11    0      0.75      0.00
   11  -11    1      1.22      0.00
   11  -11    2     -0.77      0.00
   11  -11    3      0.74      0.00
   11  -11    4      2.31      0.00
   11  -11    5     -0.32      0.00
   11  -11    6      0.05      0.00
   11  -11    7      1.01      0.00
   11  -11    8      0.41      0.00
   11  -11    9      0.83      0.00
   11  -11   10      0.97      0.00
   11  -11   11     -0.79      0.00
   11  -11   12      0.65      0.00
   11  -11   15     -1.77      0.00
   11  -11   16      0.10      0.00
  -11   10    9      1.53      0.00
  -11   10    8     -0.71      0.00
  -11   10    7     -1.08      0.00
  -11   10    6     -0.45      0.00
  -11   10    5     -1.52      0.00
  -11   10    4     -0.20      0.00
  -11   10    3      0.85      0.00
  -11   10    2     -0.69      0.00
  -11   10    1     -0.49      0.00
  -11   10    0      0.46      0.00
   11  -10    1      0.59      0.00
   11  -10    2      0.97      0.00
   11  -10    3      0.15      0.00
   11  -10    4     -0.32      0.00
   11  -10    5      0.81      0.00
   11  -10    6     -0.52      0.00
   11  -10    7      1.08      0.00
   11  -10    8      0.80      0.00
   11  -10    9     -0.72      0.00
   11  -10   10     -0.18      0.00
   11  -10   11      0.90      0.00
   11  -10   12      0.92      0.00
   11  -10   13     -0.36      0.00
   11  -10   14     -0.12      0.00
   11  -10   15     -2.07      0.00
   11  -10   16      0.50      0.00
   11  -10   17     -1.31      0.00
  -11    9    9     -0.96      0.00
  -11    9    8     -0.22      0.00
  -11    9    7     -0.35      0.00
  -11    9    6      1.28      0.00
  -11    9    5     -1.84      0.00
  -11    9    4      0.50      0.00
  -11    9    3      0.20      0.00
  -11    9    2      0.59      0.00
  -11    9    1      0.41      0.00
  -11    9    0      0.55      0.00
   11   -9    1      0.58      0.00
   11   -9    2      2.05      0.00
   11   -9    3      0.64      0.00
   11   -9    4     -0.81      0.00
   11   -9    5     -1.11      0.00
   11   -9    6     -0.83      0.00
   11   -9    7      0.61      0.00
   11   -9    8      0.35      0.00
   11   -9    9      1.27      0.00
   11   -9   10     -0.06      0.00
   11   -9   11     -1.67      0.00
   11   -9   12      1.29      0.00
   11   -9   13      0.57      0.00
   11   -9   14      1.49      0.00
   11   -9   15      1.26      0.00
   11   -9   16      0.08      0.00
   11   -9   17     -0.87      0.00
   11   -9   18      0.87      0.00
  -11    8   10     -1.14      0.00
  -11    8    9      0.38      0.00
  -11    8    8     -0.17      0.00
  -11    8    7     -0.24      0.00
  -11    8    6      0.56      0.00
  -11    8    5      0.65      0.00
  -11    8    4      0.63      0.00
  -11    8    3     -1.61      0.00
  -11    8    2      1.84      0.00
  -11    8    1      0.43      0.00
  -11    8    0      1.40      0.00
   11   -8    1     -0.52      0.00
   11   -8    2     -0.34      0.00
   11   -8    3     -0.48      0.00
   11   -8    4     -0.44      0.00
   11   -8    5     -0.68      0.00
   11   -8    6     -1.22      0.00
   11   -8    7      0.09      0.00
   11   -8    8     -0.68      0.00
   11   -8    9      1.67      0.00
   11   -8   10      0.07      0.00
   11   -8   11      1.79      0.00
   11   -8   12      1.13      0.00
   11   -8   13      0.54      0.00
   11   -8   14      0.66      0.00
   11   -8   15     -1.18      0.00
   11   -8   16     -0.17      0.00
   11   -8   17     -0.55      0.00
   11   -8   18     -0.59      0.00
   11   -8   19     -0.30      0.00
  -11    7   10     -0.63      0.00
  -11    7    9     -0.65      0.00
  -11    7    8     -1.54      0.00
  -11    7    7      0.53      0.00
  -11    7    6      0.62      0.00
  -11    7    5      1.88      0.00
  -11    7    4      1.08      0.00
  -11    7    3      1.74      0.00
  -11    7    2     -0.13      0.00
  -11    7    1     -0.88      0.00
  -11    7    0      0.06      0.00
   11   -7    1      1.45      0.00
   11   -7    2     -0.98      0.00
   11   -7    3      1.22      0.00
   11   -7    4     -2.68      0.00
   11   -7    5      0.99      0.00
   11   -7    6     -1.04      0.00
   11   -7    7      0.68      0.00
   11   -7    8     -1.69      0.00
   11   -7    9      0.12      0.00
   11   -7   10      2.35      0.00
   11   -7   11     -0.25      0.00
   11   -7   12     -0.51      0.00
   11   -7   13     -0.69      0.00
   11   -7   14     -0.68      0.00
   11   -7   15     -0.93      0.00
   11   -7   16     -0.40      0.00
   11   -7   17     -0.15      0.00
   11   -7   18      1.68      0.00
   11   -7   19      0.48      0.00
   11   -7   20      5.95      0.00
   11   -7   21      1.19      0.00
  -11    6   12     -0.01      0.00
  -11    6   10     -0.56      0.00
  -11    6    9     -1.08      0.00
  -11    6    8     -2.59      0.00
  -11    6    7      0.79      0.00
  -11    6    6      0.44      0.00
  -11    6    5      1.62      0.00
  -11    6    4     -1.51      0.00
  -11    6    3      1.65      0.00
  -11    6    2     -0.46      0.00
  -11    6    1     -0.40      0.00
  -11    6    0      0.58      0.00
   11   -6    1      0.44      0.00
   11   -6    2     -0.90      0.00
   11   -6    3      0.23      0.00
   11   -6    4     -0.71      0.00
   11   -6    5     -1.79      0.00
   11   -6    6     -1.19      0.00
   11   -6    7     -1.97      0.00
   11   -6    8     -0.43      0.00
   11   -6    9     -1.25      0.00
   11   -6   10     -1.87      0.00
   11   -6   11     -0.76      0.00
   11   -6   12     -0.81      0.00
   11   -6   13     -0.98      0.00
   11   -6   14      0.53      0.00
   11   -6   15     -0.56      0.00
   11   -6   16     -0.40      0.00
   11   -6   17     -0.71      0.00
   11   -6   18      0.66      0.00
   11   -6   19      1.57      0.00
   11   -6   20     -1.04      0.00
   11   -6   21     -0.31      0.00
  -11    5   12     -0.33      0.00
  -11    5   11     -0.28      0.00
  -11    5   10     -0.55      0.00
  -11    5    9     -0.77      0.00
  -11    5    8     -0.66      0.00
  -11    5    7      1.19      0.00
  -11    5    6      0.09      0.00
  -11    5    5      0.19      0.00
  -11    5    4     -0.17      0.00
  -11    5    3      1.36      0.00
  -11    5    2      0.54      0.00
  -11    5    1     -0.50      0.00
  -11    5    0     -2.43      0.00
   11   -5    1     -3.28      0.00
   11   -5    2     -0.56      0.00
   11   -5    3     -0.05      0.00
   11   -5    4     -0.96      0.00
   11   -5    5     -1.34      0.00
   11   -5    6     -0.22      0.00
   11   -5    7     -0.36      0.00
   11   -5    8      0.84      0.00
   11   -5    9     -0.14      0.00
   11   -5   10      0.28      0.00
   11   -5   11      0.63      0.00
   11   -5   12      0.70      0.00
   11   -5   13     -1.58      0.00
   11   -5   14     -0.84      0.00
   11   -5   15      0.23      0.00
   11   -5   16      1.58      0.00
   11   -5   17      0.06      0.00
   11   -5   18     -0.22      0.00
   11   -5   19      0.79      0.00
   11   -5   20      1.89      0.00
   11   -5   21      0.82      0.00
   11   -5   22     -0.04      0.00
  -11    4   12     -0.96      0.00
  -11    4   11      0.26      0.00
  -11    4   10     -0.34      0.00
  -11    4    9      1.13      0.00
  -11    4    8     -0.44      0.00
  -11    4    7      0.18      0.00
  -11    4    6     -0.08      0.00
  -11    4    5      0.08      0.00
  -11    4    4      1.38      0.00
  -11    4    3     -1.50      0.00
  -11    4    2     -1.83      0.00
  -11    4    1      0.36      0.00
  -11    4    0     -0.93      0.00
   11   -4    1      0.47      0.00
   11   -4    2     -0.18      0.00
   11   -4    3     -0.46      0.00
   11   -4    4     -0.99      0.00
   11   -4    5      1.27      0.00
   11   -4    6     -1.25      0.00
   11   -4    7     -1.16      0.00
   11   -4    8     -0.12      0.00
   11   -4    9     -0.71      0.00
   11   -4   10      1.80      0.00
   11   -4   11      2.33      0.00
   11   -4   12     -0.30      0.00
   11   -4   13      0.25      0.00
   11   -4   14     -1.32      0.00
   11   -4   15     -0.94      0.00
   11   -4   16      0.07      0.00
   11   -4   17     -0.46      0.00
   11   -4   18      0.30      0.00
   11   -4   19     -1.27      0.00
   11   -4   20     -0.32      0.00
   11   -4   21     -0.20      0.00
   11   -4   22      0.21      0.00
  -11    3   12      0.67      0.00
  -11    3   11      0.49      0.00
  -11    3   10     -1.05      0.00
  -11    3    9     -0.35      0.00
  -11    3    8     -0.12      0.00
  -11    3    7     -0.02      0.00
  -11    3    6     -0.96      0.00
  -11    3    5      0.21      0.00
  -11    3    4     -0.95      0.00
  -11    3    3      0.83      0.00
  -11    3    2      0.88      0.00
  -11    3    1      2.84      0.00
  -11    3    0      0.10      0.00
   11   -3    1     -2.10      0.00
   11   -3    2     -1.47      0.00
   11   -3    3      1.68      0.00
   11   -3    4     -0.46      0.00
   11   -3    5      1.86      0.00
   11   -3    6     -3.17      0.00
   11   -3    7     -1.14      0.00
   11   -3    8      1.18      0.00
   11   -3    9      1.15      0.00
   11   -3   10     -0.95      0.00
   11   -3   11      0.52      0.00
   11   -3   12     -2.43      0.00
   11   -3   13      0.73      0.00
   11   -3   14     -0.44      0.00
   11   -3   15     -2.02      0.00
   11   -3   16     -1.05      0.00
   11   -3   17     -1.97      0.00
   11   -3   18      2.03      0.00
   11   -3   19     -0.34      0.00
   11   -3   20      1.12      0.00
   11   -3   21     -0.56      0.00
   11   -3   22     -0.20      0.00
  -11    2   13      1.46      0.00
  -11    2   12     -0.91      0.00
  -11    2   11     -0.63      0.00
  -11    2   10     -2.06      0.00
  -11    2    9     -2.04      0.00
  -11    2    8     -0.43      0.00
  -11    2    7     -0.18      0.00
  -11    2    6     -0.68      0.00
  -11    2    5      0.89      0.00
  -11    2    4      0.47      0.00
  -11    2    3      0.36      0.00
  -11    2    2      0.99      0.00
  -11    2    1      1.88      0.00
  -11    2    0     -0.71      0.00
   11   -2    1      1.54      0.00
   11   -2    2     -0.20      0.00
   11   -2    3      0.17      0.00
   11   -2    4      1.48      0.00
   11   -2    5     -1.47      0.00
   11   -2    6     -3.27      0.00
   11   -2    7      0.58      0.00
   11   -2    8     -1.80      0.00
   11   -2    9      0.18      0.00
   11   -2   10     -0.33      0.00
   11   -2   11      0.35      0.00
   11   -2   12      0.06      0.00
   11   -2   13      0.59      0.00
   11   -2   14     -0.15      0.00
   11   -2   15      0.22      0.00
   11   -2   16      0.44      0.00
   11   -2   17     -0.62      0.00
   11   -2   18      2.62      0.00
   11   -2   19      1.30      0.00
   11   -2   20      1.93      0.00
   11   -2   21      0.91      0.00
   11   -2   22     -0.07      0.00
   11   -2   23     -0.04      0.00
  -11    1   13     -0.68      0.00
  -11    1   12     -0.02      0.00
  -11    1   11     -0.21      0.00
  -11    1   10     -0.44      0.00
  -11    1    9      0.34      0.00
  -11    1    8     -0.53      0.00
  -11    1    7     -0.46      0.00
  -11    1    6      1.21      0.00
  -11    1    5      1.63      0.00
  -11    1    4      0.48      0.00
  -11    1    3      0.21      0.00
  -11    1    2     -0.61      0.00
  -11    1    1      1.50      0.00
  -11    1    0      0.95      0.00
   11   -1    1      2.89      0.00
   11   -1    2     -0.15      0.00
   11   -1    3     -2.08      0.00
   11   -1    4     -1.95      0.00
   11   -1    5     -1.30      0.00
   11   -1    6     -1.75      0.00
   11   -1    7      1.55      0.00
   11   -1    8      0.08      0.00
   11   -1    9      0.48      0.00
   11   -1   10      4.64      0.00
   11   -1   11      1.30      0.00
   11   -1   12      1.45      0.00
   11   -1   13      0.99      0.00
   11   -1   14      1.05      0.00
   11   -1   15      0.46      0.00
   11   -1   16      1.45      0.00
   11   -1   17      0.14      0.00
   11   -1   18      1.20      0.00
   11   -1   19     -0.73      0.00
   11   -1   20      1.59      0.00
   11   -1   21      0.75      0.00
   11   -1   22      1.34      0.00
  -11    0   13     -0.93      0.00
  -11    0   12     -0.83      0.00
  -11    0   11      0.17      0.00
  -11    0   10     -0.04      0.00
  -11    0    9      0.37      0.00
  -11    0    8      1.31      0.00
  -11    0    7      0.59      0.00
  -11    0    6      1.14      0.00
  -11    0    5     -0.59      0.00
  -11    0    4     -1.35      0.00
  -11    0    3     -1.87      0.00
  -11    0    2      0.16      0.00
  -11    0    1     -4.46      0.00
   11    0    0     -0.03      0.00
   11    0    1     -1.47      0.00
   11    0    2     -3.82      0.00
   11    0    3      0.02      0.00
   11    0    4      3.36      0.00
   11    0    5      0.12      0.00
   11    0    6      4.81      0.00
   11    0    7     -0.88      0.00
   11    0    8      0.97      0.00
   11    0    9      1.40      0.00
   11    0   10      2.69      0.00
   11    0   11     -0.42      0.00
   11    0   12      2.96      0.00
   11    0   13     -0.25      0.00
   11    0   14      3.08      0.00
   11    0   15     -0.36      0.00
   11    0   16      1.46      0.00
   11    0   17     -0.30      0.00
   11    0   18      1.11      0.00
   11    0   19     -1.85      0.00
   11    0   20     -0.93      0.00
   11    0   21     -1.53      0.00
   11    0   22     -0.66      0.00
   11    0   23      0.16      0.00
  -11   -1   13      1.61      0.00
  -11   -1   12     -0.87      0.00
  -11   -1   11     -0.21      0.00
  -11   -1   10     -0.44      0.00
  -11   -1    9      1.82      0.00
  -11   -1    8      0.23      0.00
  -11   -1    7     -0.04      0.00
  -11   -1    6     -0.08      0.00
  -11   -1    5     -0.95      0.00
  -11   -1    4     -0.56      0.00
  -11   -1    3     -1.61      0.00
  -11   -1    2     -2.15      0.00
  -11   -1    1     -3.11      0.00
   11    1    0     -1.01      0.00
   11    1    1      0.43      0.00
   11    1    2      2.84      0.00
   11    1    3      0.17      0.00
   11    1    4      3.22      0.00
   11    1    5     -0.16      0.00
   11    1    6      6.51      0.00
   11    1    7      2.27      0.00
   11    1    8      2.10      0.00
   11    1    9      0.77      0.00
   11    1   10      1.80      0.00
   11    1   11     -0.83      0.00
   11    1   12      2.64      0.00
   11    1   13      0.55      0.00
   11    1   14     -0.99      0.00
   11    1   15      0.66      0.00
   11    1   16     -0.22      0.00
   11    1   17     -1.31      0.00
   11    1   18     -1.78      0.00
   11    1   19     -0.09      0.00
   11    1   20      0.95      0.00
   11    1   21     -0.61      0.00
   11    1   22     -1.10      0.00
  -11   -2   13      0.80      0.00
  -11   -2   12     -1.07      0.00
  -11   -2   11      0.83      0.00
  -11   -2   10     -0.37      0.00
  -11   -2    9      1.00      0.00
  -11   -2    8      0.06      0.00
  -11   -2    7     -0.26      0.00
  -11   -2    6      0.83      0.00
  -11   -2    5     -1.72      0.00
  -11   -2    4      2.20      0.00
  -11   -2    3     -0.06      0.00
  -11   -2    2      1.03      0.00
  -11   -2    1     -0.42      0.00
   11    2    0      2.08      0.00
   11    2    1     -0.80      0.00
   11    2    2      2.28      0.00
   11    2    3      0.85      0.00
   11    2    4      0.02      0.00
   11    2    5      1.20      0.00
   11    2    6      5.17      0.00
   11    2    7      1.61      0.00
   11    2    8      2.18      0.00
   11    2    9     -0.25      0.00
   11    2   10     -2.52      0.00
   11    2   11      1.10      0.00
   11    2   12     -2.19      0.00
   11    2   13     -2.13      0.00
   11    2   14     -0.32      0.00
   11    2   15     -0.96      0.00
   11    2   16     -1.32      0.00
   11    2   17     -1.19      0.00
   11    2   18     -0.54      0.00
   11    2   19      0.78      0.00
   11    2   20     -0.51      0.00
   11    2   21      0.37      0.00
   11    2   22     -0.16      0.00
   11    2   23     -0.53      0.00
   11    2   24      1.65      0.00
  -11   -3   13     -0.06      0.00
  -11   -3   12      1.10      0.00
  -11   -3   11      0.40      0.00
  -11   -3   10      0.14      0.00
  -11   -3    9     -0.87      0.00
  -11   -3    8      1.31      0.00
  -11   -3    7     -1.48      0.00
  -11   -3    6      0.78      0.00
  -11   -3    5      0.06      0.00
  -11   -3    4      1.78      0.00
  -11   -3    3      0.60      0.00
  -11   -3    2      0.92      0.00
  -11   -3    1      0.58      0.00
   11    3    0     -1.39      0.00
   11    3    1     -1.10      0.00
   11    3    2      0.33      0.00
   11    3    3      1.68      0.00
   11    3    4     -2.04      0.00
   11    3    5      2.04      0.00
   11    3    6     -1.26      0.00
   11    3    7      0.13      0.00
   11    3    8      1.05      0.00
   11    3    9      2.67      0.00
   11    3   10     -5.40      0.00
   11    3   11      0.28      0.00
   11    3   12     -1.07      0.00
   11    3   13     -0.76      0.00
   11    3   14     -0.52      0.00
   11    3   15      0.36      0.00
   11    3   16     -1.97      0.00
   11    3   17      2.05      0.00
   11    3   18     -0.99      0.00
   11    3   19      1.55      0.00
   11    3   20     -0.56      0.00
   11    3   21      0.51      0.00
   11    3   22     -0.37      0.00
   11    3   23     -0.31      0.00
   11    3   24     -4.23      0.00
  -11   -4   13      0.00      0.00
  -11   -4   12     -0.99      0.00
  -11   -4   11     -1.39      0.00
  -11   -4   10      0.53      0.00
  -11   -4    9      0.23      0.00
  -11   -4    8     -0.03      0.00
  -11   -4    7      0.18      0.00
  -11   -4    6      0.13      0.00
  -11   -4    5     -0.45      0.00
  -11   -4    4      1.24      0.00
  -11   -4    3     -0.05      0.00
  -11   -4    2      0.63      0.00
  -11   -4    1      0.81      0.00
   11    4    0     -1.86      0.00
   11    4    1     -1.03      0.00
   11    4    2     -2.38      0.00
   11    4    3      4.16      0.00
   11    4    4     -2.73      0.00
   11    4    5      1.57      0.00
   11    4    6     -7.37      0.00
   11    4    7      2.34      0.00
   11    4    8     -1.31      0.00
   11    4    9      1.92      0.00
   11    4   10     -1.42      0.00
   11    4   11      3.61      0.00
   11    4   12     -0.47      0.00
   11    4   13      4.09      0.00
   11    4   14     -1.48      0.00
   11    4   15      0.17      0.00
   11    4   16     -0.16      0.00
   11    4   17     -0.07      0.00
   11    4   18     -1.51      0.00
   11    4   19     -1.92      0.00
   11    4   20     -0.40      0.00
   11    4   21     -0.83      0.00
   11    4   22     -0.62      0.00
   11    4   23     -1.43      0.00
   11    4   24      0.23      0.00
  -11   -5   13     -1.91      0.00
  -11   -5   12      1.25      0.00
  -11   -5   11      0.58      0.00
  -11   -5   10      0.81      0.00
  -11   -5    9     -0.43      0.00
  -11   -5    8      0.53      0.00
  -11   -5    7      1.56      0.00
  -11   -5    6     -1.05      0.00
  -11   -5    5     -0.72      0.00
  -11   -5    4     -0.63      0.00
  -11   -5    3     -0.01      0.00
  -11   -5    2     -0.20      0.00
  -11   -5    1      0.65      0.00
   11    5    0     -3.61      0.00
   11    5    1     -0.55      0.00
   11    5    2     -2.03      0.00
   11    5    3     -1.55      0.00
   11    5    4      1.17      0.00
   11    5    5      4.32      0.00
   11    5    6     -3.20      0.00
   11    5    7      2.96      0.00
   11    5    8      1.82      0.00
   11    5    9      2.58      0.00
   11    5   10      0.26      0.00
   11    5   11      1.43      0.00
   11    5   12     -0.74      0.00
   11    5   13      0.71      0.00
   11    5   14     -0.08      0.00
   11    5   15     -1.68      0.00
   11    5   16     -0.04      0.00
   11    5   17     -0.45      0.00
   11    5   18      0.10      0.00
   11    5   19      0.02      0.00
   11    5   20     -0.74      0.00
   11    5   21      1.39      0.00
   11    5   22      0.86      0.00
   11    5   23     -0.52      0.00
   11    5   24     -0.25      0.00
  -11   -6   13      0.11      0.00
  -11   -6   12     -1.08      0.00
  -11   -6   11     -2.92      0.00
  -11   -6   10     -1.22      0.00
  -11   -6    9     -2.00      0.00
  -11   -6    8     -1.61      0.00
  -11   -6    7     -0.25      0.00
  -11   -6    6     -0.29      0.00
  -11   -6    5     -0.16      0.00
  -11   -6    4      1.12      0.00
  -11   -6    3      0.37      0.00
  -11   -6    2     -0.09      0.00
  -11   -6    1      0.09      0.00
   11    6    0     -1.99      0.00
   11    6    1     -0.87      0.00
   11    6    2     -1.44      0.00
   11    6    3      0.42      0.00
   11    6    4     -1.21      0.00
   11    6    5      1.95      0.00
   11    6    6      0.87      0.00
   11    6    7      3.46      0.00
   11    6    8     -1.06      0.00
   11    6    9      2.48      0.00
   11    6   10      2.08      0.00
   11    6   11      0.45      0.00
   11    6   12     -1.79      0.00
   11    6   13     -2.59      0.00
   11    6   14     -0.56      0.00
   11    6   15     -1.07      0.00
   11    6   16      0.45      0.00
   11    6   17     -0.56      0.00
   11    6   18     -0.22      0.00
   11    6   19      2.25      0.00
   11    6   20      0.76      0.00
   11    6   21     -0.68      0.00
   11    6   22     -1.54      0.00
   11    6   23     -0.31      0.00
   11    6   24      0.13      0.00
  -11   -7   13     -0.40      0.00
  -11   -7   12      0.65      0.00
  -11   -7   11     -1.72      0.00
  -11   -7   10     -0.13      0.00
  -11   -7    9     -0.06      0.00
  -11   -7    8     -0.66      0.00
  -11   -7    7     -1.07      0.00
  -11   -7    6     -0.95      0.00
  -11   -7    5      1.38      0.00
  -11   -7    4     -0.73      0.00
  -11   -7    3     -0.54      0.00
  -11   -7    2      1.59      0.00
  -11   -7    1     -0.44      0.00
   11    7    0      0.92      0.00
   11    7    1      0.02      0.00
   11    7    2     -1.94      0.00
   11    7    3     -1.37      0.00
   11    7    4      1.12      0.00
   11    7    5     -0.70      0.00
   11    7    6      1.76      0.00
   11    7    7     -0.10      0.00
   11    7    8      1.07      0.00
   11    7    9      0.83      0.00
   11    7   10      0.96      0.00
   11    7   11     -1.40      0.00
   11    7   12     -2.15      0.00
   11    7   13      0.57      0.00
   11    7   14     -0.05      0.00
   11    7   15     -0.06      0.00
   11    7   16     -0.30      0.00
   11    7   17     -0.91      0.00
   11    7   18      1.65      0.00
   11    7   19      0.47      0.00
   11    7   20     -1.90      0.00
   11    7   21     -0.42      0.00
   11    7   22     -1.17      0.00
   11    7   23     -0.02      0.00
  -11   -8   13     -0.60      0.00
  -11   -8   12      1.03      0.00
  -11   -8   11     -0.53      0.00
  -11   -8   10      1.10      0.00
  -11   -8    9     -2.99      0.00
  -11   -8    8      1.04      0.00
  -11   -8    7      0.61      0.00
  -11   -8    6     -0.64      0.00
  -11   -8    5     -1.12      0.00
  -11   -8    4      0.38      0.00
  -11   -8    3      0.84      0.00
  -11   -8    2      1.62      0.00
  -11   -8    1     -0.71      0.00
   11    8    0      1.85      0.00
   11    8    1      0.02      0.00
   11    8    2      1.57      0.00
   11    8    3      0.84      0.00
   11    8    4      1.35      0.00
   11    8    5      0.33      0.00
   11    8    6      0.72      0.00
   11    8    7     -1.28      0.00
   11    8    8     -0.29      0.00
   11    8    9      1.10      0.00
   11    8   10     -0.98      0.00
   11    8   11     -1.82      0.00
   11    8   12     -0.04      0.00
   11    8   13      0.10      0.00
   11    8   14      0.33      0.00
   11    8   15     -0.13      0.00
   11    8   16     -0.65      0.00
   11    8   17      1.85      0.00
   11    8   18     -0.58      0.00
   11    8   19     -0.76      0.00
   11    8   20     -1.03      0.00
   11    8   21      0.44      0.00
   11    8   22     -0.85      0.00
  -11   -9   13     -0.06      0.00
  -11   -9   12     -0.78      0.00
  -11   -9   11      0.11      0.00
  -11   -9   10     -0.42      0.00
  -11   -9    9      0.06      0.00
  -11   -9    8      0.56      0.00
  -11   -9    7     -0.21      0.00
  -11   -9    6      1.83      0.00
  -11   -9    5      0.22      0.00
  -11   -9    4      0.92      0.00
  -11   -9    3      1.47      0.00
  -11   -9    2      0.65      0.00
  -11   -9    1     -0.69      0.00
   11    9    0     -0.72      0.00
   11    9    1     -1.67      0.00
   11    9    2      0.30      0.00
   11    9    3     -1.08      0.00
   11    9    4     -0.05      0.00
   11    9    5     -0.04      0.00
   11    9    6      1.87      0.00
   11    9    7      2.37      0.00
   11    9    8      0.20      0.00
   11    9    9     -0.85      0.00
   11    9   10     -0.17      0.00
   11    9   11      1.44      0.00
   11    9   12     -0.16      0.00
   11    9   13     -0.74      0.00
   11    9   14     -0.23      0.00
   11    9   15      0.76      0.00
   11    9   16      0.06      0.00
   11    9   17     -0.72      0.00
   11    9   18     -0.42      0.00
   11    9   19     -0.45      0.00
   11    9   20     -0.53      0.00
   11    9   21      0.65      0.00
   11    9   22     -0.28      0.00
  -11  -10   12     -0.41      0.00
  -11  -10   11     -3.31      0.00
  -11  -10   10      0.04      0.00
  -11  -10    9     -0.77      0.00
  -11  -10    8      1.81      0.00
  -11  -10    7     -1.30      0.00
  -11  -10    6     -0.34      0.00
  -11  -10    5     -1.08      0.00
  -11  -10    4     -0.21      0.00
  -11  -10    3      0.32      0.00
  -11  -10    2      0.76      0.00
  -11  -10    1      0.81      0.00
   11   10    0      0.65      0.00
   11   10    1     -1.12      0.00
   11   10    2     -1.18      0.00
   11   10    3      0.48      0.00
   11   10    4     -0.77      0.00
   11   10    5      0.10      0.00
   11   10    6      0.52      0.00
   11   10    7     -0.57      0.00
   11   10    8     -0.17      0.00
   11   10    9      0.47      0.00
   11   10   10     -0.84      0.00
   11   10   11      0.67      0.00
   11   10   12     -0.80      0.00
   11   10   13     -0.42      0.00
   11   10   14     -0.01      0.00
   11   10   15      0.24      0.00
   11   10   16     -0.01      0.00
   11   10   17      0.68      0.00
   11   10   18     -0.67      0.00
   11   10   19      0.89      0.00
   11   10   20     -0.87      0.00
   11   10   21      0.03      0.00
  -11  -11    9      0.79      0.00
  -11  -11    8      1.45      0.00
  -11  -11    7     -0.04      0.00
  -11  -11    6     -1.84      0.00
  -11  -11    5     -1.40      0.00
  -11  -11    4     -0.99      0.00
  -11  -11    3     -0.07      0.00
  -11  -11    2      0.02      0.00
  -11  -11    1     -0.03      0.00
   11   11    0     -1.19      0.00
   11   11    1     -0.46      0.00
   11   11    2      0.54      0.00
   11   11    3     -0.15      0.00
   11   11    4      0.59      0.00
   11   11    5      0.66      0.00
   11   11    6     -1.52      0.00
   11   11    7      0.27      0.00
   11   11    8      0.08      0.00
   11   11    9      0.80      0.00
   11   11   10      0.68      0.00
   11   11   11      1.70      0.00
   11   11   12     -1.02      0.00
   11   11   13      1.87      0.00
   11   11   14      1.25      0.00
   11   11   15      2.20      0.00
   11   11   16      0.32      0.00
   11   11   17      0.67      0.00
   11   11   18     -0.29      0.00
   11   11   19     -1.08      0.00
   11   11   20     -0.22      0.00
   11   11   21     -1.89      0.00
   11   11   22     -1.61      0.00
   11   11   23     -0.68      0.00
  -11  -12    9      1.86      0.00
  -11  -12    8     -0.93      0.00
  -11  -12    7      1.16      0.00
  -11  -12    6     -0.91      0.00
  -11  -12    5      0.00      0.00
  -11  -12    4     -0.23      0.00
  -11  -12    3      1.46      0.00
  -11  -12    2     -0.17      0.00
  -11  -12    1      2.05      0.00
   11   12    0     -0.19      0.00
   11   12    1      0.29      0.00
   11   12    2      0.56      0.00
   11   12    3      0.49      0.00
   11   12    4      0.60      0.00
   11   12    5     -0.07      0.00
   11   12    6     -0.06      0.00
   11   12    7     -0.50      0.00
   11   12    8     -0.03      0.00
   11   12    9      1.27      0.00
   11   12   10     -0.17      0.00
   11   12   11     -0.37      0.00
   11   12   12      0.87      0.00
   11   12   13     -0.03      0.00
   11   12   14      0.34      0.00
   11   12   15     -0.15      0.00
   11   12   16      2.26      0.00
   11   12   17      0.02      0.00
   11   12   18      0.51      0.00
   11   12   19     -0.16      0.00
   11   12   20     -2.79      0.00
   11   12   23      0.74      0.00
  -11  -13   11      0.33      0.00
  -11  -13   10      0.31      0.00
  -11  -13    9      0.95      0.00
  -11  -13    8      0.21      0.00
  -11  -13    7     -0.56      0.00
  -11  -13    6     -1.32      0.00
  -11  -13    5     -0.84      0.00
  -11  -13    4     -0.21      0.00
  -11  -13    3     -0.57      0.00
  -11  -13    2     -0.57      0.00
  -11  -13    1     -1.94      0.00
   11   13    0      0.44      0.00
   11   13    1     -0.82      0.00
   11   13    2     -2.35      0.00
   11   13    3     -1.02      0.00
   11   13    4      0.95      0.00
   11   13    5     -0.88      0.00
   11   13    6     -0.94      0.00
   11   13    7      0.25      0.00
   11   13    8     -0.39      0.00
   11   13    9     -0.02      0.00
   11   13   10     -0.38      0.00
   11   13   11     -0.56      0.00
   11   13   12     -0.54      0.00
   11   13   13     -0.35      0.00
   11   13   14      0.45      0.00
   11   13   15     -0.81      0.00
   11   13   16     -0.20      0.00
   11   13   17     -0.56      0.00
   11   13   18     -1.10      0.00
   11   13   19     -0.37      0.00
   11   13   20      1.04      0.00
  -11  -14   11      0.43      0.00
  -11  -14   10      0.13      0.00
  -11  -14    9     -0.11      0.00
  -11  -14    8     -1.39      0.00
  -11  -14    7      0.33      0.00
  -11  -14    6      0.36      0.00
  -11  -14    5      1.58      0.00
  -11  -14    4     -0.47      0.00
  -11  -14    3     -0.75      0.00
  -11  -14    2      0.25      0.00
  -11  -14    1      0.08      0.00
   11   14    0      0.06      0.00
   11   14    1      1.20      0.00
   11   14    2      0.42      0.00
   11   14    3      0.31      0.00
   11   14    4     -0.90      0.00
   11   14    5     -0.18      0.00
   11   14    6      0.80      0.00
   11   14    7     -0.30      0.00
   11   14    8     -0.22      0.00
   11   14    9     -1.23      0.00
   11   14   10      0.58      0.00
   11   14   11     -0.33      0.00
   11   14   12      0.04      0.00
   11   14   13     -1.15      0.00
   11   14   14     -0.25      0.00
   11   14   15      0.04      0.00
   11   14   16      0.15      0.00
   11   14   17      0.11      0.00
   11   14   18      0.59      0.00
   11   14   19     -0.85      0.00
  -11  -15   10      1.29      0.00
  -11  -15    9     -0.31      0.00
  -11  -15    8     -0.03      0.00
  -11  -15    6      0.03      0.00
  -11  -15    5      0.82      0.00
  -11  -15    4      0.75      0.00
  -11  -15    3      0.64      0.00
  -11  -15    2      1.76      0.00
  -11  -15    1      0.19      0.00
   11   15    0      1.08      0.00
   11   15    1     -1.00      0.00
   11   15    2     -0.39      0.00
   11   15    3     -0.60      0.00
   11   15    4     -0.62      0.00
   11   15    5     -1.27      0.00
   11   15    6     -0.81      0.00
   11   15    7     -0.77      0.00
   11   15    8     -0.11      0.00
   11   15    9      1.33      0.00
   11   15   10      0.39      0.00
   11   15   11     -0.23      0.00
   11   15   12     -0.17      0.00
   11   15   13     -0.08      0.00
   11   15   14      0.13      0.00
   11   15   15      0.03      0.00
   11   15   16      2.10      0.00
   11   15   17     -0.46      0.00
  -11  -16    3     -1.07      0.00
  -11  -16    2     -0.60      0.00
  -11  -16    1      1.11      0.00
   11   16    0      0.24      0.00
   11   16    1      0.61      0.00
   11   16    2     -0.57      0.00
   11   16    3     -1.21      0.00
   11   16    4     -1.42      0.00
   11   16    5     -0.50      0.00
   11   16    6     -0.60      0.00
   11   16    7     -0.58      0.00
   11   16   10     -0.32      0.00
   11   16   11     -0.75      0.00
   11   16   12      0.63      0.00
   11   16   13     -0.44      0.00
   11   16   14      1.62      0.00
   11   16   15     -0.22      0.00
   11   16   16     -1.68      0.00
   11   16   18     -0.04      0.00
  -11  -17    8      0.81      0.00
  -11  -17    7      0.00      0.00
   11   17    1     -2.16      0.00
   11   17    2      0.03      0.00
   11   17    3      0.41      0.00
   11   17    5      1.66      0.00
  -12   16    0      1.10      0.00
   12  -16    1     -0.08      0.00
   12  -16    2     -3.95      0.00
   12  -16    8     -0.47      0.00
   12  -16    9      0.07      0.00
   12  -15    1     -1.50      0.00
   12  -15    2      1.57      0.00
   12  -15    3      5.34      0.00
   12  -15    7      1.15      0.00
   12  -15    8     -0.61      0.00
   12  -15    9      0.44      0.00
  -12   14    4     -0.40      0.00
  -12   14    3      0.79      0.00
  -12   14    0     -1.27      0.00
   12  -14    1      2.80      0.00
   12  -14    2     -1.66      0.00
   12  -14    3      4.34      0.00
   12  -14    4     -8.57      0.00
   12  -14    7     -0.75      0.00
   12  -14    8     -1.32      0.00
  -12   13    5     -1.99      0.00
  -12   13    4      0.65      0.00
  -12   13    3     -4.59      0.00
  -12   13    2     -0.97      0.00
   12  -13    1      0.19      0.00
   12  -13    2      0.46      0.00
   12  -13    3      3.05      0.00
   12  -13    4      0.33      0.00
   12  -13    5      1.50      0.00
   12  -13    8      2.55      0.00
   12  -13    9      0.18      0.00
   12  -13   12      0.04      0.00
   12  -13   13      1.62      0.00
   12  -13   14      1.36      0.00
   12  -13   15      0.49      0.00
  -12   12    6     -1.41      0.00
  -12   12    5     -3.40      0.00
  -12   12    4      1.97      0.00
  -12   12    2     -2.18      0.00
  -12   12    1     -1.48      0.00
  -12   12    0     -0.08      0.00
   12  -12    1      0.38      0.00
   12  -12    2     -0.18      0.00
   12  -12    3      0.44      0.00
   12  -12    4      0.67      0.00
   12  -12    5      1.70      0.00
   12  -12    6      1.03      0.00
   12  -12    7     -0.54      0.00
   12  -12    8     -0.18      0.00
   12  -12    9     -0.94      0.00
   12  -12   10     -1.43      0.00
   12  -12   11     -0.55      0.00
   12  -12   13      0.73      0.00
   12  -12   14     -0.74      0.00
   12  -12   15      1.87      0.00
   12  -12   16     -1.26      0.00
  -12   11    6     -1.87      0.00
  -12   11    5      1.91      0.00
  -12   11    3     -1.28      0.00
  -12   11    2      1.64      0.00
  -12   11    1     -0.09      0.00
  -12   11    0     -1.06      0.00
   12  -11    1      2.05      0.00
   12  -11    2     -0.11      0.00
   12  -11    3      0.35      0.00
   12  -11    4      2.41      0.00
   12  -11    5      1.13      0.00
   12  -11    6      0.32      0.00
   12  -11    7     -0.12      0.00
   12  -11    8      1.20      0.00
   12  -11    9      0.53      0.00
   12  -11   10      0.17      0.00
   12  -11   11      1.13      0.00
   12  -11   12     -1.00      0.00
   12  -11   14     -0.74      0.00
   12  -11   15     -0.16      0.00
   12  -11   16     -1.32      0.00
   12  -11   17      0.87      0.00
  -12   10    7     -0.95      0.00
  -12   10    6     -6.13      0.00
  -12   10    4     -0.07      0.00
  -12   10    3      2.34      0.00
  -12   10    2     -0.89      0.00
  -12   10    1      1.87      0.00
  -12   10    0      0.61      0.00
   12  -10    1      0.04      0.00
   12  -10    2      0.11      0.00
   12  -10    3      1.09      0.00
   12  -10    4     -1.54      0.00
   12  -10    5      1.10      0.00
   12  -10    6     -0.49      0.00
   12  -10    7      0.83      0.00
   12  -10    8      1.63      0.00
   12  -10    9     -1.26      0.00
   12  -10   10     -0.86      0.00
   12  -10   11      0.90      0.00
   12  -10   12     -0.03      0.00
   12  -10   13      0.87      0.00
   12  -10   14     -1.52      0.00
   12  -10   15     -0.91      0.00
   12  -10   16     -1.05      0.00
   12  -10   17      1.40      0.00
   12  -10   18      0.28      0.00
  -12    9    8     -1.27      0.00
  -12    9    7     -0.59      0.00
  -12    9    6      0.73      0.00
  -12    9    5     -2.39      0.00
  -12    9    4      0.56      0.00
  -12    9    3      1.89      0.00
  -12    9    2      0.41      0.00
  -12    9    1     -0.36      0.00
  -12    9    0     -1.10      0.00
   12   -9    1      2.22      0.00
   12   -9    2      0.06      0.00
   12   -9    3      0.86      0.00
   12   -9    4      0.85      0.00
   12   -9    5     -1.13      0.00
   12   -9    6      0.51      0.00
   12   -9    7     -0.71      0.00
   12   -9    8      1.34      0.00
   12   -9    9     -0.30      0.00
   12   -9   10      0.32      0.00
   12   -9   11     -2.10      0.00
   12   -9   12      1.14      0.00
   12   -9   13      1.92      0.00
   12   -9   14      0.15      0.00
   12   -9   15      1.51      0.00
   12   -9   16      0.25      0.00
   12   -9   17      0.18      0.00
   12   -9   18     -0.14      0.00
  -12    8    8      0.88      0.00
  -12    8    7     -0.73      0.00
  -12    8    6      1.41      0.00
  -12    8    5      1.33      0.00
  -12    8    4     -0.07      0.00
  -12    8    3     -1.71      0.00
  -12    8    2     -0.18      0.00
  -12    8    1      0.54      0.00
  -12    8    0     -0.22      0.00
   12   -8    1     -0.67      0.00
   12   -8    2     -0.18      0.00
   12   -8    3     -0.51      0.00
   12   -8    4     -0.56      0.00
   12   -8    5     -1.00      0.00
   12   -8    6      1.43      0.00
   12   -8    7     -2.68      0.00
   12   -8    8      0.95      0.00
   12   -8    9     -0.88      0.00
   12   -8   10      0.36      0.00
   12   -8   11      0.36      0.00
   12   -8   12     -0.22      0.00
   12   -8   13      1.80      0.00
   12   -8   14     -0.30      0.00
   12   -8   15      0.54      0.00
   12   -8   16      0.32      0.00
   12   -8   17     -1.27      0.00
   12   -8   18     -0.25      0.00
   12   -8   19     -0.25      0.00
  -12    7    9     -0.77      0.00
  -12    7    8      0.60      0.00
  -12    7    7     -1.64      0.00
  -12    7    6      0.45      0.00
  -12    7    5     -0.17      0.00
  -12    7    4      2.36      0.00
  -12    7    3     -0.22      0.00
  -12    7    2     -0.84      0.00
  -12    7    1     -0.08      0.00
  -12    7    0      0.37      0.00
   12   -7    1      0.02      0.00
   12   -7    2      0.11      0.00
   12   -7    3      1.60      0.00
   12   -7    4      0.59      0.00
   12   -7    5     -1.39      0.00
   12   -7    6     -0.20      0.00
   12   -7    7     -0.48      0.00
   12   -7    8     -2.05      0.00
   12   -7    9     -0.18      0.00
   12   -7   10      1.66      0.00
   12   -7   11      0.75      0.00
   12   -7   12      1.72      0.00
   12   -7   13     -0.98      0.00
   12   -7   14     -0.92      0.00
   12   -7   15     -0.24      0.00
   12   -7   16     -1.25      0.00
   12   -7   17     -0.33      0.00
   12   -7   18      0.49      0.00
   12   -7   19     -0.05      0.00
   12   -7   20      3.52      0.00
  -12    6    9     -1.12      0.00
  -12    6    8     -1.35      0.00
  -12    6    7     -2.40      0.00
  -12    6    6      0.79      0.00
  -12    6    5     -0.66      0.00
  -12    6    4     -0.34      0.00
  -12    6    3     -0.39      0.00
  -12    6    2      0.51      0.00
  -12    6    1     -0.99      0.00
  -12    6    0      0.37      0.00
   12   -6    1      2.23      0.00
   12   -6    2      0.76      0.00
   12   -6    3     -2.34      0.00
   12   -6    4      0.73      0.00
   12   -6    5     -1.19      0.00
   12   -6    6      0.63      0.00
   12   -6    7     -2.06      0.00
   12   -6    8     -1.76      0.00
   12   -6    9     -1.03      0.00
   12   -6   10     -0.23      0.00
   12   -6   11     -0.05      0.00
   12   -6   12     -2.17      0.00
   12   -6   13     -1.53      0.00
   12   -6   14      0.47      0.00
   12   -6   15     -0.89      0.00
   12   -6   16     -1.10      0.00
   12   -6   17     -0.96      0.00
   12   -6   18     -0.63      0.00
   12   -6   19      0.32      0.00
   12   -6   20     -1.22      0.00
   12   -6   21      0.50      0.00
  -12    5   10      0.59      0.00
  -12    5    9     -1.66      0.00
  -12    5    8     -0.97      0.00
  -12    5    7     -1.48      0.00
  -12    5    6      1.34      0.00
  -12    5    5      0.44      0.00
  -12    5    4      0.53      0.00
  -12    5    3      0.11      0.00
  -12    5    2      2.43      0.00
  -12    5    1     -0.77      0.00
  -12    5    0     -0.60      0.00
   12   -5    1     -3.80      0.00
   12   -5    2     -1.26      0.00
   12   -5    3      0.84      0.00
   12   -5    4      0.88      0.00
   12   -5    5     -0.13      0.00
   12   -5    6     -2.42      0.00
   12   -5    7      0.19      0.00
   12   -5    8     -1.25      0.00
   12   -5    9      0.84      0.00
   12   -5   10     -0.90      0.00
   12   -5   11     -0.79      0.00
   12   -5   12      1.24      0.00
   12   -5   13     -0.53      0.00
   12   -5   14     -0.74      0.00
   12   -5   15      0.65      0.00
   12   -5   16      0.81      0.00
   12   -5   17      0.01      0.00
   12   -5   18     -1.57      0.00
   12   -5   19      0.79      0.00
   12   -5   20      2.06      0.00
   12   -5   21      0.00      0.00
  -12    4   10     -0.30      0.00
  -12    4    9      0.37      0.00
  -12    4    8      0.21      0.00
  -12    4    7      0.31      0.00
  -12    4    6      0.52      0.00
  -12    4    5     -0.78      0.00
  -12    4    4      1.14      0.00
  -12    4    3     -0.66      0.00
  -12    4    2      0.29      0.00
  -12    4    1     -0.54      0.00
  -12    4    0      0.09      0.00
   12   -4    1      0.53      0.00
   12   -4    2      0.42      0.00
   12   -4    3      0.66      0.00
   12   -4    4     -1.30      0.00
   12   -4    5     -0.76      0.00
   12   -4    6     -0.42      0.00
   12   -4    7     -0.48      0.00
   12   -4    8      0.40      0.00
   12   -4    9     -0.04      0.00
   12   -4   10      1.81      0.00
   12   -4   11      0.69      0.00
   12   -4   12      2.00      0.00
   12   -4   13     -1.64      0.00
   12   -4   14     -0.59      0.00
   12   -4   15     -1.22      0.00
   12   -4   16     -0.32      0.00
   12   -4   17      2.43      0.00
   12   -4   18     -0.92      0.00
   12   -4   19      0.36      0.00
   12   -4   20     -0.82      0.00
   12   -4   21      0.07      0.00
   12   -4   22      0.72      0.00
  -12    3   11     -0.59      0.00
  -12    3   10      0.58      0.00
  -12    3    9      0.01      0.00
  -12    3    8      0.80      0.00
  -12    3    7     -0.20      0.00
  -12    3    6      0.34      0.00
  -12    3    5      0.41      0.00
  -12    3    4      0.25      0.00
  -12    3    3      2.22      0.00
  -12    3    2      0.38      0.00
  -12    3    1      0.09      0.00
  -12    3    0      1.90      0.00
   12   -3    1     -2.64      0.00
   12   -3    2      0.07      0.00
   12   -3    3     -0.23      0.00
   12   -3    4      0.69      0.00
   12   -3    5      0.15      0.00
   12   -3    6      0.75      0.00
   12   -3    7     -1.73      0.00
   12   -3    8      1.06      0.00
   12   -3    9      1.20      0.00
   12   -3   10      0.38      0.00
   12   -3   11      1.18      0.00
   12   -3   12      0.44      0.00
   12   -3   13     -0.53      0.00
   12   -3   14     -0.10      0.00
   12   -3   15     -0.75      0.00
   12   -3   16     -0.89      0.00
   12   -3   17      0.10      0.00
   12   -3   18     -0.06      0.00
   12   -3   19      0.37      0.00
   12   -3   20     -0.05      0.00
   12   -3   21     -0.63      0.00
   12   -3   22      0.41      0.00
  -12    2   11     -0.31      0.00
  -12    2   10     -1.20      0.00
  -12    2    9     -2.16      0.00
  -12    2    8     -0.75      0.00
  -12    2    7      0.68      0.00
  -12    2    6     -0.22      0.00
  -12    2    5     -0.58      0.00
  -12    2    4      0.92      0.00
  -12    2    3     -0.43      0.00
  -12    2    2     -0.04      0.00
  -12    2    1      1.62      0.00
  -12    2    0      1.13      0.00
   12   -2    1      0.62      0.00
   12   -2    2      0.47      0.00
   12   -2    3      0.19      0.00
   12   -2    4      2.30      0.00
   12   -2    5     -0.58      0.00
   12   -2    6      0.35      0.00
   12   -2    7     -2.45      0.00
   12   -2    8      0.08      0.00
   12   -2    9      1.48      0.00
   12   -2   10     -1.06      0.00
   12   -2   11      0.03      0.00
   12   -2   12     -1.10      0.00
   12   -2   13      0.53      0.00
   12   -2   14      1.16      0.00
   12   -2   15      0.99      0.00
   12   -2   16     -0.87      0.00
   12   -2   17      1.06      0.00
   12   -2   18     -0.76      0.00
   12   -2   19      3.39      0.00
   12   -2   20      0.03      0.00
   12   -2   21      1.60      0.00
   12   -2   22     -0.83      0.00
  -12    1   12      1.24      0.00
  -12    1   11     -0.44      0.00
  -12    1   10      0.57      0.00
  -12    1    9     -0.09      0.00
  -12    1    8     -0.27      0.00
  -12    1    7     -0.09      0.00
  -12    1    6     -0.30      0.00
  -12    1    5      0.86      0.00
  -12    1    4      0.86      0.00
  -12    1    3     -0.33      0.00
  -12    1    2     -1.44      0.00
  -12    1    1      1.45      0.00
  -12    1    0      1.29      0.00
   12   -1    1      1.17      0.00
   12   -1    2      1.30      0.00
   12   -1    3     -0.47      0.00
   12   -1    4     -1.06      0.00
   12   -1    5      0.61      0.00
   12   -1    6     -3.40      0.00
   12   -1    7      2.64      0.00
   12   -1    8     -0.84      0.00
   12   -1    9     -0.55      0.00
   12   -1   10     -0.97      0.00
   12   -1   11      0.94      0.00
   12   -1   12     -1.39      0.00
   12   -1   13      1.77      0.00
   12   -1   14     -2.01      0.00
   12   -1   15      2.55      0.00
   12   -1   16     -1.64      0.00
   12   -1   17      0.69      0.00
   12   -1   18     -0.89      0.00
   12   -1   19      1.53      0.00
   12   -1   20     -0.06      0.00
   12   -1   21      0.86      0.00
   12   -1   22      2.15      0.00
   12   -1   23     -0.36      0.00
  -12    0   11      0.48      0.00
  -12    0   10      1.89      0.00
  -12    0    9     -0.92      0.00
  -12    0    8      0.27      0.00
  -12    0    7      0.48      0.00
  -12    0    6      0.12      0.00
  -12    0    5      1.01      0.00
  -12    0    4     -2.30      0.00
  -12    0    3     -0.94      0.00
  -12    0    2     -0.73      0.00
  -12    0    1      0.81      0.00
   12    0    0     -0.22      0.00
   12    0    1      1.37      0.00
   12    0    2     -0.83      0.00
   12    0    3     -0.37      0.00
   12    0    4     -1.43      0.00
   12    0    5      2.37      0.00
   12    0    6     -1.73      0.00
   12    0    7     -0.97      0.00
   12    0    8     -1.94      0.00
   12    0    9     -1.53      0.00
   12    0   10     -1.50      0.00
   12    0   11      1.99      0.00
   12    0   12     -1.36      0.00
   12    0   13      1.38      0.00
   12    0   14      1.87      0.00
   12    0   15      0.11      0.00
   12    0   16      0.65      0.00
   12    0   17      1.03      0.00
   12    0   18      0.41      0.00
   12    0   19     -0.01      0.00
   12    0   20     -0.64      0.00
   12    0   21     -1.06      0.00
   12    0   22     -0.52      0.00
   12    0   23      0.36      0.00
  -12   -1   12      1.14      0.00
  -12   -1   11     -0.23      0.00
  -12   -1   10     -0.01      0.00
  -12   -1    9      1.73      0.00
  -12   -1    8      1.01      0.00
  -12   -1    7      1.37      0.00
  -12   -1    6     -0.39      0.00
  -12   -1    5      0.91      0.00
  -12   -1    4     -2.46      0.00
  -12   -1    3      0.09      0.00
  -12   -1    2     -2.10      0.00
  -12   -1    1     -1.98      0.00
   12    1    0     -2.34      0.00
   12    1    1      0.57      0.00
   12    1    2     -0.77      0.00
   12    1    3     -0.96      0.00
   12    1    4     -0.09      0.00
   12    1    5     -0.88      0.00
   12    1    6      0.51      0.00
   12    1    7      2.12      0.00
   12    1    8     -1.55      0.00
   12    1    9      0.03      0.00
   12    1   10      1.82      0.00
   12    1   11      0.22      0.00
   12    1   12      1.12      0.00
   12    1   13      2.83      0.00
   12    1   14     -1.30      0.00
   12    1   15      1.40      0.00
   12    1   16     -1.24      0.00
   12    1   17      0.83      0.00
   12    1   18     -0.36      0.00
   12    1   19     -0.41      0.00
   12    1   20      0.40      0.00
   12    1   21     -0.05      0.00
   12    1   22      0.37      0.00
  -12   -2   12     -0.24      0.00
  -12   -2   11     -0.93      0.00
  -12   -2   10     -0.12      0.00
  -12   -2    9     -0.44      0.00
  -12   -2    8      0.73      0.00
  -12   -2    7      0.23      0.00
  -12   -2    6     -0.12      0.00
  -12   -2    5      0.89      0.00
  -12   -2    4      0.00      0.00
  -12   -2    3      1.39      0.00
  -12   -2    2     -0.25      0.00
  -12   -2    1      0.37      0.00
   12    2    0     -0.32      0.00
   12    2    1      0.88      0.00
   12    2    2      0.07      0.00
   12    2    3      0.05      0.00
   12    2    4      0.45      0.00
   12    2    5     -1.27      0.00
   12    2    6      2.96      0.00
   12    2    7      1.68      0.00
   12    2    8      1.27      0.00
   12    2    9     -1.36      0.00
   12    2   10      1.76      0.00
   12    2   11     -0.14      0.00
   12    2   12      0.68      0.00
   12    2   13     -0.63      0.00
   12    2   14     -0.15      0.00
   12    2   15     -1.19      0.00
   12    2   16      0.87      0.00
   12    2   17     -2.99      0.00
   12    2   18     -0.95      0.00
   12    2   19     -0.90      0.00
   12    2   20      0.20      0.00
   12    2   21     -0.67      0.00
   12    2   22     -0.93      0.00
  -12   -3   12      1.56      0.00
  -12   -3   11     -0.27      0.00
  -12   -3   10      0.81      0.00
  -12   -3    9     -0.17      0.00
  -12   -3    8      1.02      0.00
  -12   -3    7      1.25      0.00
  -12   -3    6      1.11      0.00
  -12   -3    5      1.11      0.00
  -12   -3    4     -0.46      0.00
  -12   -3    3      1.59      0.00
  -12   -3    2      0.15      0.00
  -12   -3    1     -0.60      0.00
   12    3    0      1.96      0.00
   12    3    1     -1.91      0.00
   12    3    2      1.04      0.00
   12    3    3     -0.84      0.00
   12    3    4      1.28      0.00
   12    3    5     -2.56      0.00
   12    3    6      3.87      0.00
   12    3    7     -0.84      0.00
   12    3    8      2.31      0.00
   12    3    9     -0.38      0.00
   12    3   10     -1.01      0.00
   12    3   11     -3.58      0.00
   12    3   12      1.85      0.00
   12    3   13     -2.45      0.00
   12    3   14      0.13      0.00
   12    3   15     -2.16      0.00
   12    3   16     -1.28      0.00
   12    3   17     -0.47      0.00
   12    3   18     -0.73      0.00
   12    3   19      1.09      0.00
   12    3   20      0.24      0.00
   12    3   21      0.76      0.00
   12    3   22      0.29      0.00
   12    3   24     -2.72      0.00
  -12   -4   12     -1.70      0.00
  -12   -4   11      0.35      0.00
  -12   -4   10     -1.50      0.00
  -12   -4    9      1.31      0.00
  -12   -4    8     -0.19      0.00
  -12   -4    7     -0.23      0.00
  -12   -4    6     -1.14      0.00
  -12   -4    5      0.40      0.00
  -12   -4    4      0.10      0.00
  -12   -4    3      1.29      0.00
  -12   -4    2      2.26      0.00
  -12   -4    1      0.83      0.00
   12    4    0      1.75      0.00
   12    4    1     -1.51      0.00
   12    4    2      0.56      0.00
   12    4    3      0.72      0.00
   12    4    4      1.59      0.00
   12    4    5     -3.52      0.00
   12    4    6     -0.29      0.00
   12    4    7     -3.76      0.00
   12    4    8      1.79      0.00
   12    4    9      0.08      0.00
   12    4   10      0.85      0.00
   12    4   11     -0.86      0.00
   12    4   12      1.40      0.00
   12    4   13      1.08      0.00
   12    4   14     -1.46      0.00
   12    4   15      0.17      0.00
   12    4   16      0.13      0.00
   12    4   17     -0.79      0.00
   12    4   18      0.40      0.00
   12    4   19     -2.54      0.00
   12    4   20     -0.07      0.00
   12    4   21     -0.25      0.00
   12    4   22     -1.04      0.00
   12    4   24     -0.45      0.00
  -12   -5   12     -0.29      0.00
  -12   -5   11      1.46      0.00
  -12   -5   10      0.67      0.00
  -12   -5    9      0.83      0.00
  -12   -5    8      0.03      0.00
  -12   -5    7     -0.82      0.00
  -12   -5    6     -0.88      0.00
  -12   -5    5     -1.35      0.00
  -12   -5    4     -0.58      0.00
  -12   -5    3     -0.59      0.00
  -12   -5    2     -0.34      0.00
  -12   -5    1      0.07      0.00
   12    5    0     -0.53      0.00
   12    5    1     -3.10      0.00
   12    5    2      0.70      0.00
   12    5    3     -3.58      0.00
   12    5    4      2.42      0.00
   12    5    5      0.13      0.00
   12    5    6      0.02      0.00
   12    5    7     -2.51      0.00
   12    5    8      1.81      0.00
   12    5    9      0.84      0.00
   12    5   10      0.36      0.00
   12    5   11     -0.75      0.00
   12    5   12     -0.66      0.00
   12    5   13      0.05      0.00
   12    5   14      1.96      0.00
   12    5   15     -0.83      0.00
   12    5   16      0.05      0.00
   12    5   17      0.36      0.00
   12    5   18      1.28      0.00
   12    5   19      0.97      0.00
   12    5   20      0.18      0.00
   12    5   21     -0.31      0.00
   12    5   22      1.29      0.00
   12    5   23     -0.67      0.00
   12    5   24     -0.04      0.00
  -12   -6   12     -1.18      0.00
  -12   -6   11      0.38      0.00
  -12   -6   10     -2.73      0.00
  -12   -6    9     -1.77      0.00
  -12   -6    8     -1.91      0.00
  -12   -6    7     -0.33      0.00
  -12   -6    6      2.12      0.00
  -12   -6    5     -1.48      0.00
  -12   -6    4      0.27      0.00
  -12   -6    3      1.48      0.00
  -12   -6    2     -1.01      0.00
  -12   -6    1     -0.21      0.00
   12    6    0     -0.29      0.00
   12    6    1     -1.25      0.00
   12    6    2     -0.90      0.00
   12    6    3      0.03      0.00
   12    6    4     -0.43      0.00
   12    6    5      0.79      0.00
   12    6    6      0.13      0.00
   12    6    7      0.13      0.00
   12    6    8      0.86      0.00
   12    6    9      1.31      0.00
   12    6   10     -0.19      0.00
   12    6   11      0.91      0.00
   12    6   12     -0.31      0.00
   12    6   13     -1.05      0.00
   12    6   14     -0.75      0.00
   12    6   15     -0.46      0.00
   12    6   16      0.49      0.00
   12    6   17     -0.11      0.00
   12    6   18     -0.73      0.00
   12    6   19      0.92      0.00
   12    6   20      0.37      0.00
   12    6   21     -1.33      0.00
   12    6   22     -1.03      0.00
   12    6   23     -0.93      0.00
   12    6   24      0.37      0.00
  -12   -7   12     -0.31      0.00
  -12   -7   11     -1.28      0.00
  -12   -7   10     -1.88      0.00
  -12   -7    9      0.26      0.00
  -12   -7    8     -0.15      0.00
  -12   -7    7     -1.14      0.00
  -12   -7    6      0.12      0.00
  -12   -7    5      0.84      0.00
  -12   -7    4      0.06      0.00
  -12   -7    3     -1.60      0.00
  -12   -7    2      0.41      0.00
  -12   -7    1      0.66      0.00
   12    7    0     -1.42      0.00
   12    7    1      0.16      0.00
   12    7    2     -0.52      0.00
   12    7    3     -2.03      0.00
   12    7    4     -0.38      0.00
   12    7    5     -1.00      0.00
   12    7    6      0.10      0.00
   12    7    7      2.49      0.00
   12    7    8      0.44      0.00
   12    7    9      1.03      0.00
   12    7   10      1.39      0.00
   12    7   11      1.08      0.00
   12    7   12     -2.27      0.00
   12    7   13      0.76      0.00
   12    7   14     -0.89      0.00
   12    7   15     -0.27      0.00
   12    7   16     -1.22      0.00
   12    7   17     -1.76      0.00
   12    7   18      0.26      0.00
   12    7   19     -1.08      0.00
   12    7   20     -1.29      0.00
   12    7   21     -2.37      0.00
   12    7   22     -0.66      0.00
   12    7   24      0.01      0.00
  -12   -8   12      0.26      0.00
  -12   -8   11      1.00      0.00
  -12   -8   10     -0.92      0.00
  -12   -8    9     -0.90      0.00
  -12   -8    8      0.18      0.00
  -12   -8    7      0.56      0.00
  -12   -8    6     -1.36      0.00
  -12   -8    5     -1.05      0.00
  -12   -8    4     -0.61      0.00
  -12   -8    3      1.47      0.00
  -12   -8    2      0.41      0.00
  -12   -8    1      1.87      0.00
   12    8    0      0.88      0.00
   12    8    1      1.18      0.00
   12    8    2     -0.04      0.00
   12    8    3      0.52      0.00
   12    8    4      0.40      0.00
   12    8    5      1.36      0.00
   12    8    6      0.61      0.00
   12    8    7      0.69      0.00
   12    8    8     -0.71      0.00
   12    8    9      1.08      0.00
   12    8   10      0.36      0.00
   12    8   11     -0.30      0.00
   12    8   12     -0.10      0.00
   12    8   13     -0.35      0.00
   12    8   14      0.19      0.00
   12    8   15     -0.01      0.00
   12    8   16     -1.17      0.00
   12    8   17     -0.24      0.00
   12    8   18      0.04      0.00
   12    8   19     -1.10      0.00
   12    8   20     -0.95      0.00
   12    8   21     -1.54      0.00
  -12   -9   12     -1.29      0.00
  -12   -9   11      0.72      0.00
  -12   -9   10     -1.33      0.00
  -12   -9    9      1.33      0.00
  -12   -9    8     -1.40      0.00
  -12   -9    7      1.60      0.00
  -12   -9    6      0.46      0.00
  -12   -9    5      1.26      0.00
  -12   -9    4      1.08      0.00
  -12   -9    3      1.59      0.00
  -12   -9    2      1.52      0.00
  -12   -9    1     -0.52      0.00
   12    9    0     -2.11      0.00
   12    9    1      0.28      0.00
   12    9    2      0.35      0.00
   12    9    3      0.32      0.00
   12    9    4      1.99      0.00
   12    9    5     -0.09      0.00
   12    9    6      1.16      0.00
   12    9    7      1.03      0.00
   12    9    8      0.60      0.00
   12    9    9     -0.69      0.00
   12    9   10      1.22      0.00
   12    9   11     -0.70      0.00
   12    9   12      0.73      0.00
   12    9   13     -0.30      0.00
   12    9   14     -0.58      0.00
   12    9   15     -0.77      0.00
   12    9   16      0.42      0.00
   12    9   17     -1.79      0.00
   12    9   18      0.60      0.00
   12    9   19     -1.74      0.00
   12    9   20      0.24      0.00
   12    9   21     -0.21      0.00
   12    9   22      0.02      0.00
  -12  -10    9     -0.08      0.00
  -12  -10    8      0.49      0.00
  -12  -10    7     -0.13      0.00
  -12  -10    6      0.29      0.00
  -12  -10    5     -0.39      0.00
  -12  -10    4     -0.45      0.00
  -12  -10    3     -0.39      0.00
  -12  -10    2      0.76      0.00
  -12  -10    1      0.19      0.00
   12   10    0      0.92      0.00
   12   10    1     -0.80      0.00
   12   10    2     -0.16      0.00
   12   10    3      1.10      0.00
   12   10    4     -0.50      0.00
   12   10    5     -0.54      0.00
   12   10    6      0.96      0.00
   12   10    7     -2.40      0.00
   12   10    8      1.53      0.00
   12   10    9     -1.36      0.00
   12   10   10      0.02      0.00
   12   10   11      0.21      0.00
   12   10   12      0.88      0.00
   12   10   13     -2.09      0.00
   12   10   14     -0.24      0.00
   12   10   15     -0.20      0.00
   12   10   16      0.67      0.00
   12   10   17      1.47      0.00
   12   10   18      1.08      0.00
   12   10   19      0.18      0.00
   12   10   20     -0.13      0.00
   12   10   21      0.02      0.00
  -12  -11    8      2.19      0.00
  -12  -11    7      0.11      0.00
  -12  -11    6     -0.59      0.00
  -12  -11    5     -1.75      0.00
  -12  -11    4     -0.93      0.00
  -12  -11    3      0.00      0.00
  -12  -11    2      0.08      0.00
  -12  -11    1     -0.05      0.00
   12   11    0      0.26      0.00
   12   11    1     -0.90      0.00
   12   11    2      0.18      0.00
   12   11    3     -1.09      0.00
   12   11    4      0.22      0.00
   12   11    5     -1.09      0.00
   12   11    6     -1.00      0.00
   12   11    7      0.29      0.00
   12   11    8      0.53      0.00
   12   11    9     -0.33      0.00
   12   11   10      1.93      0.00
   12   11   11     -0.19      0.00
   12   11   12     -0.61      0.00
   12   11   13      0.28      0.00
   12   11   14      0.62      0.00
   12   11   15      2.56      0.00
   12   11   16      1.16      0.00
   12   11   17      0.61      0.00
   12   11   18     -0.85      0.00
   12   11   19     -1.38      0.00
   12   11   20      0.60      0.00
  -12  -12   10      0.04      0.00
  -12  -12    9      0.88      0.00
  -12  -12    8      0.63      0.00
  -12  -12    7      0.40      0.00
  -12  -12    6     -0.09      0.00
  -12  -12    5     -1.05      0.00
  -12  -12    4     -0.45      0.00
  -12  -12    3      0.98      0.00
  -12  -12    2     -0.90      0.00
  -12  -12    1      0.90      0.00
   12   12    0      0.31      0.00
   12   12    1     -0.63      0.00
   12   12    2      0.81      0.00
   12   12    3      0.12      0.00
   12   12    4     -0.03      0.00
   12   12    5      0.55      0.00
   12   12    6      0.25      0.00
   12   12    7     -0.93      0.00
   12   12    8      0.25      0.00
   12   12    9      0.26      0.00
   12   12   10     -0.08      0.00
   12   12   11     -0.11      0.00
   12   12   12      0.52      0.00
   12   12   13     -0.25      0.00
   12   12   14      1.35      0.00
   12   12   15      0.91      0.00
   12   12   16      0.17      0.00
   12   12   17      0.71      0.00
   12   12   18      0.31      0.00
   12   12   19      0.57      0.00
   12   12   20     -1.69      0.00
  -12  -13   10      0.42      0.00
  -12  -13    9      0.01      0.00
  -12  -13    8      1.21      0.00
  -12  -13    7     -1.77      0.00
  -12  -13    6      0.43      0.00
  -12  -13    5     -2.84      0.00
  -12  -13    4     -0.66      0.00
  -12  -13    3     -0.74      0.00
  -12  -13    2     -1.19      0.00
  -12  -13    1     -1.51      0.00
   12   13    0     -0.05      0.00
   12   13    1     -0.99      0.00
   12   13    2     -1.33      0.00
   12   13    3     -1.14      0.00
   12   13    4      0.02      0.00
   12   13    5      0.44      0.00
   12   13    6     -1.67      0.00
   12   13    7     -0.45      0.00
   12   13    8     -0.13      0.00
   12   13    9      1.44      0.00
   12   13   10      0.01      0.00
   12   13   11     -1.24      0.00
   12   13   12     -1.57      0.00
   12   13   13      0.87      0.00
   12   13   14      0.27      0.00
   12   13   15     -0.37      0.00
   12   13   16      0.75      0.00
   12   13   17      0.37      0.00
   12   13   18     -1.23      0.00
   12   13   19      0.27      0.00
   12   13   20      1.32      0.00
  -12  -14   10      0.15      0.00
  -12  -14    9      0.04      0.00
  -12  -14    6      0.06      0.00
  -12  -14    5      0.14      0.00
  -12  -14    4     -0.74      0.00
  -12  -14    3     -0.80      0.00
  -12  -14    2     -0.07      0.00
  -12  -14    1      0.73      0.00
   12   14    0     -0.31      0.00
   12   14    1      1.34      0.00
   12   14    2      1.67      0.00
   12   14    3     -0.93      0.00
   12   14    4     -0.56      0.00
   12   14    5     -0.81      0.00
   12   14    6     -1.08      0.00
   12   14    7      0.29      0.00
   12   14    8     -0.28      0.00
   12   14    9     -1.59      0.00
   12   14   10     -0.77      0.00
   12   14   11     -0.17      0.00
   12   14   12     -0.68      0.00
   12   14   13     -0.61      0.00
   12   14   14     -0.33      0.00
   12   14   15      0.61      0.00
   12   14   16     -1.29      0.00
   12   14   17      0.49      0.00
   12   14   18      0.28      0.00
  -12  -15    4      1.43      0.00
  -12  -15    3      0.11      0.00
  -12  -15    2      0.87      0.00
  -12  -15    1      2.34      0.00
   12   15    0      0.86      0.00
   12   15    1     -0.10      0.00
   12   15    2     -1.05      0.00
   12   15    3     -0.92      0.00
   12   15    4      0.09      0.00
   12   15    5     -2.42      0.00
   12   15    6     -0.37      0.00
   12   15    7     -0.17      0.00
   12   15    8     -0.30      0.00
   12   15    9      1.05      0.00
   12   15   10      0.07      0.00
   12   15   11      1.05      0.00
   12   15   12      0.05      0.00
   12   15   13      0.67      0.00
   12   15   14     -1.20      0.00
   12   15   15      0.75      0.00
   12   15   16      2.00      0.00
   12   15   18      0.93      0.00
   12   15   19     -0.94      0.00
  -12  -16    2      0.41      0.00
  -12  -16    1      0.99      0.00
   12   16    0     -0.17      0.00
   12   16    1      2.31      0.00
   12   16    2     -0.08      0.00
   12   16    3     -0.88      0.00
   12   16    4     -0.11      0.00
   12   16    5     -1.26      0.00
   12   16    6     -0.39      0.00
   12   16    7     -1.39      0.00
   12   16    8     -0.69      0.00
   12   16    9     -0.03      0.00
   12   16   10     -0.07      0.00
   12   16   11     -0.87      0.00
   12   16   12     -0.49      0.00
   12   16   13     -0.68      0.00
   12   16   15     -0.06      0.00
   12   16   17     -0.69      0.00
   12   17    0      0.78      0.00
   12   17    2      0.92      0.00
   12   17    3      1.82      0.00
   12   17    4      0.29      0.00
   12   17    5      0.32      0.00
   12   17   15      0.41      0.00
   13  -15    2      3.18      0.00
   13  -15    3     -0.86      0.00
   13  -15    4     24.77      0.00
   13  -15    8      0.34      0.00
   13  -14    4     -3.56      0.00
   13  -14    5      2.60      0.00
  -13   13    4     -0.62      0.00
  -13   13    3     -0.73      0.00
  -13   13    2     -1.68      0.00
   13  -13    1     -2.05      0.00
   13  -13    2      1.63      0.00
   13  -13    3      0.17      0.00
   13  -13    4      3.48      0.00
   13  -13   12      0.65      0.00
   13  -13   13      0.74      0.00
   13  -13   14      1.48      0.00
  -13   12    6      1.23      0.00
  -13   12    5      1.28      0.00
  -13   12    4      3.57      0.00
  -13   12    3      0.38      0.00
  -13   12    2     -0.88      0.00
  -13   12    1     -1.71      0.00
   13  -12    1     -0.05      0.00
   13  -12    2     -1.01      0.00
   13  -12    3     -0.78      0.00
   13  -12    4      0.50      0.00
   13  -12    7      0.05      0.00
   13  -12   11     -1.01      0.00
   13  -12   12      0.67      0.00
   13  -12   13     -0.35      0.00
   13  -12   14      0.39      0.00
   13  -12   15      0.33      0.00
  -13   11    6      5.06      0.00
  -13   11    5      0.16      0.00
  -13   11    2      0.02      0.00
  -13   11    1      1.11      0.00
  -13   11    0     -0.19      0.00
   13  -11    1      0.71      0.00
   13  -11    2      1.20      0.00
   13  -11    3     -1.03      0.00
   13  -11    4      3.51      0.00
   13  -11    5      2.19      0.00
   13  -11    6      0.44      0.00
   13  -11    7      0.04      0.00
   13  -11    8     -0.07      0.00
   13  -11    9      1.08      0.00
   13  -11   10     -0.56      0.00
   13  -11   11      0.01      0.00
   13  -11   12     -0.30      0.00
   13  -11   13     -1.39      0.00
   13  -11   14      1.17      0.00
   13  -11   15     -1.25      0.00
   13  -11   16      0.46      0.00
  -13   10    6     -3.85      0.00
  -13   10    5     -1.30      0.00
  -13   10    3      1.87      0.00
  -13   10    2      1.45      0.00
  -13   10    1      1.30      0.00
  -13   10    0      1.31      0.00
   13  -10    1     -2.57      0.00
   13  -10    2      1.90      0.00
   13  -10    3      0.38      0.00
   13  -10    4     -0.44      0.00
   13  -10    5      0.93      0.00
   13  -10    6     -1.23      0.00
   13  -10    7      1.14      0.00
   13  -10    8     -0.48      0.00
   13  -10    9      0.70      0.00
   13  -10   10     -2.51      0.00
   13  -10   11     -1.13      0.00
   13  -10   12      0.91      0.00
   13  -10   13     -1.49      0.00
   13  -10   14      0.61      0.00
   13  -10   15     -1.84      0.00
   13  -10   16     -0.33      0.00
   13  -10   17      1.00      0.00
  -13    9    6     -0.72      0.00
  -13    9    4      1.35      0.00
  -13    9    3      1.02      0.00
  -13    9    2      1.96      0.00
  -13    9    1     -1.92      0.00
  -13    9    0     -0.69      0.00
   13   -9    1      0.31      0.00
   13   -9    2      1.09      0.00
   13   -9    3     -0.12      0.00
   13   -9    4      2.80      0.00
   13   -9    5      0.40      0.00
   13   -9    6     -0.50      0.00
   13   -9    7      1.71      0.00
   13   -9    8      0.44      0.00
   13   -9    9     -0.68      0.00
   13   -9   10     -1.87      0.00
   13   -9   11     -1.03      0.00
   13   -9   12      0.85      0.00
   13   -9   13      0.50      0.00
   13   -9   14      2.36      0.00
   13   -9   15     -0.66      0.00
   13   -9   16      0.24      0.00
   13   -9   17      0.64      0.00
   13   -9   18      0.32      0.00
  -13    8    8     -0.20      0.00
  -13    8    7      1.09      0.00
  -13    8    6      0.15      0.00
  -13    8    5      2.68      0.00
  -13    8    4     -1.85      0.00
  -13    8    3     -0.10      0.00
  -13    8    2     -1.39      0.00
  -13    8    1     -2.11      0.00
  -13    8    0     -0.78      0.00
   13   -8    1     -1.42      0.00
   13   -8    2      0.34      0.00
   13   -8    3     -1.33      0.00
   13   -8    4     -2.77      0.00
   13   -8    5      1.31      0.00
   13   -8    6     -0.16      0.00
   13   -8    7     -0.90      0.00
   13   -8    8     -1.63      0.00
   13   -8    9      0.17      0.00
   13   -8   10     -0.38      0.00
   13   -8   11     -0.62      0.00
   13   -8   12     -1.58      0.00
   13   -8   13      1.75      0.00
   13   -8   14     -0.80      0.00
   13   -8   15      0.13      0.00
   13   -8   16      0.23      0.00
   13   -8   17     -0.05      0.00
   13   -8   18     -0.32      0.00
   13   -8   19     -0.13      0.00
  -13    7    7      0.29      0.00
  -13    7    6     -1.53      0.00
  -13    7    5      0.76      0.00
  -13    7    4      0.97      0.00
  -13    7    3      0.21      0.00
  -13    7    2     -2.38      0.00
  -13    7    1      1.28      0.00
  -13    7    0      0.39      0.00
   13   -7    1     -0.13      0.00
   13   -7    2     -1.71      0.00
   13   -7    3      2.01      0.00
   13   -7    4      1.49      0.00
   13   -7    5     -0.64      0.00
   13   -7    6     -1.96      0.00
   13   -7    7      0.92      0.00
   13   -7    8     -2.42      0.00
   13   -7    9      0.79      0.00
   13   -7   10      0.83      0.00
   13   -7   11      0.91      0.00
   13   -7   12      1.21      0.00
   13   -7   13     -0.31      0.00
   13   -7   14     -0.24      0.00
   13   -7   15     -0.12      0.00
   13   -7   16     -0.07      0.00
   13   -7   17     -0.01      0.00
   13   -7   18     -0.45      0.00
   13   -7   19      0.62      0.00
  -13    6    8     -1.18      0.00
  -13    6    7     -1.06      0.00
  -13    6    6     -1.73      0.00
  -13    6    5     -0.55      0.00
  -13    6    4     -1.52      0.00
  -13    6    3      0.41      0.00
  -13    6    2     -1.31      0.00
  -13    6    1      1.55      0.00
  -13    6    0     -0.51      0.00
   13   -6    1      2.82      0.00
   13   -6    2      1.25      0.00
   13   -6    3     -1.64      0.00
   13   -6    4      0.17      0.00
   13   -6    5      0.10      0.00
   13   -6    6      1.66      0.00
   13   -6    7      0.04      0.00
   13   -6    8      0.31      0.00
   13   -6    9     -1.36      0.00
   13   -6   10      0.38      0.00
   13   -6   11      1.31      0.00
   13   -6   12     -1.71      0.00
   13   -6   13     -0.95      0.00
   13   -6   14     -1.12      0.00
   13   -6   15      0.01      0.00
   13   -6   16     -1.11      0.00
   13   -6   17     -1.80      0.00
   13   -6   18      0.35      0.00
   13   -6   19     -1.14      0.00
   13   -6   20     -1.48      0.00
  -13    5    8     -1.68      0.00
  -13    5    7     -0.96      0.00
  -13    5    6     -1.25      0.00
  -13    5    5      1.21      0.00
  -13    5    4      0.85      0.00
  -13    5    3      0.39      0.00
  -13    5    2      1.44      0.00
  -13    5    1      0.89      0.00
  -13    5    0     -0.46      0.00
   13   -5    1     -2.15      0.00
   13   -5    2     -1.15      0.00
   13   -5    3     -0.08      0.00
   13   -5    4      0.56      0.00
   13   -5    5      1.61      0.00
   13   -5    6     -1.00      0.00
   13   -5    7     -0.25      0.00
   13   -5    8     -1.81      0.00
   13   -5    9     -0.75      0.00
   13   -5   10     -0.52      0.00
   13   -5   11      0.34      0.00
   13   -5   12     -0.17      0.00
   13   -5   13      0.51      0.00
   13   -5   14     -1.42      0.00
   13   -5   15      1.47      0.00
   13   -5   16     -0.17      0.00
   13   -5   17     -0.20      0.00
   13   -5   18     -1.39      0.00
   13   -5   19     -1.53      0.00
   13   -5   20      1.07      0.00
   13   -5   21      0.12      0.00
  -13    4    9      0.97      0.00
  -13    4    8     -0.54      0.00
  -13    4    7      0.73      0.00
  -13    4    6      0.20      0.00
  -13    4    5     -0.19      0.00
  -13    4    4      0.22      0.00
  -13    4    3      0.14      0.00
  -13    4    2      0.69      0.00
  -13    4    1      1.19      0.00
  -13    4    0     -0.57      0.00
   13   -4    1      1.53      0.00
   13   -4    2      0.12      0.00
   13   -4    3      0.82      0.00
   13   -4    4      0.35      0.00
   13   -4    5      0.41      0.00
   13   -4    6     -0.85      0.00
   13   -4    7     -1.39      0.00
   13   -4    8      0.66      0.00
   13   -4    9      0.98      0.00
   13   -4   10      0.55      0.00
   13   -4   11      0.12      0.00
   13   -4   12     -1.33      0.00
   13   -4   13     -0.62      0.00
   13   -4   14     -1.24      0.00
   13   -4   15     -1.02      0.00
   13   -4   16      0.32      0.00
   13   -4   17      1.85      0.00
   13   -4   18      0.55      0.00
   13   -4   19     -0.45      0.00
   13   -4   20      0.49      0.00
   13   -4   21     -0.15      0.00
  -13    3   10     -0.40      0.00
  -13    3    9      0.79      0.00
  -13    3    8      0.94      0.00
  -13    3    7      0.13      0.00
  -13    3    6     -0.26      0.00
  -13    3    5      2.09      0.00
  -13    3    4      0.79      0.00
  -13    3    3      1.88      0.00
  -13    3    2      0.32      0.00
  -13    3    1      0.28      0.00
  -13    3    0     -0.26      0.00
   13   -3    1     -1.05      0.00
   13   -3    2     -0.91      0.00
   13   -3    3      1.54      0.00
   13   -3    4      0.10      0.00
   13   -3    5     -0.56      0.00
   13   -3    6      0.05      0.00
   13   -3    7      0.59      0.00
   13   -3    8     -0.15      0.00
   13   -3    9      0.54      0.00
   13   -3   10     -0.50      0.00
   13   -3   11      1.11      0.00
   13   -3   12      1.25      0.00
   13   -3   13      0.45      0.00
   13   -3   14     -0.38      0.00
   13   -3   15     -0.16      0.00
   13   -3   16      0.51      0.00
   13   -3   17      0.26      0.00
   13   -3   18      2.32      0.00
   13   -3   19     -1.39      0.00
   13   -3   20      0.44      0.00
   13   -3   21     -0.78      0.00
   13   -3   22      0.73      0.00
  -13    2   10     -0.84      0.00
  -13    2    9     -0.34      0.00
  -13    2    8     -0.99      0.00
  -13    2    7      1.24      0.00
  -13    2    6      1.19      0.00
  -13    2    5     -0.03      0.00
  -13    2    4     -0.26      0.00
  -13    2    3     -0.30      0.00
  -13    2    2      0.17      0.00
  -13    2    1     -0.22      0.00
  -13    2    0      0.65      0.00
   13   -2    1      2.40      0.00
   13   -2    2     -1.26      0.00
   13   -2    3     -0.61      0.00
   13   -2    4     -0.07      0.00
   13   -2    5      0.49      0.00
   13   -2    6      1.14      0.00
   13   -2    7     -1.28      0.00
   13   -2    8      0.40      0.00
   13   -2    9      0.79      0.00
   13   -2   10      1.60      0.00
   13   -2   11     -1.01      0.00
   13   -2   12      1.13      0.00
   13   -2   13     -0.40      0.00
   13   -2   14      2.86      0.00
   13   -2   15      0.04      0.00
   13   -2   16      1.52      0.00
   13   -2   17     -1.00      0.00
   13   -2   18      0.42      0.00
   13   -2   19      0.60      0.00
   13   -2   20      0.87      0.00
   13   -2   21      0.77      0.00
   13   -2   22     -1.30      0.00
  -13    1   10     -0.09      0.00
  -13    1    9      0.26      0.00
  -13    1    8      0.86      0.00
  -13    1    7      0.29      0.00
  -13    1    6      0.50      0.00
  -13    1    5     -1.04      0.00
  -13    1    4      0.45      0.00
  -13    1    3     -1.42      0.00
  -13    1    2     -1.01      0.00
  -13    1    1     -1.12      0.00
  -13    1    0      1.38      0.00
   13   -1    1     -0.35      0.00
   13   -1    2     -0.19      0.00
   13   -1    3      0.08      0.00
   13   -1    4      0.78      0.00
   13   -1    5      1.07      0.00
   13   -1    6     -0.47      0.00
   13   -1    7      1.17      0.00
   13   -1    8     -0.41      0.00
   13   -1    9     -1.48      0.00
   13   -1   10     -1.18      0.00
   13   -1   11     -3.90      0.00
   13   -1   12     -0.04      0.00
   13   -1   13     -1.42      0.00
   13   -1   14     -0.09      0.00
   13   -1   15     -0.23      0.00
   13   -1   16     -0.57      0.00
   13   -1   17     -1.16      0.00
   13   -1   18     -0.79      0.00
   13   -1   19      0.74      0.00
   13   -1   20     -0.56      0.00
   13   -1   21      0.31      0.00
   13   -1   22      0.67      0.00
  -13    0   11      1.17      0.00
  -13    0   10      2.07      0.00
  -13    0    9     -0.15      0.00
  -13    0    8     -0.75      0.00
  -13    0    7      0.03      0.00
  -13    0    6      1.05      0.00
  -13    0    5      0.18      0.00
  -13    0    4      0.21      0.00
  -13    0    3     -1.81      0.00
  -13    0    2     -0.52      0.00
  -13    0    1      0.43      0.00
   13    0    0      1.91      0.00
   13    0    1      0.72      0.00
   13    0    2      1.74      0.00
   13    0    3      0.38      0.00
   13    0    4     -0.85      0.00
   13    0    5      1.29      0.00
   13    0    6     -0.68      0.00
   13    0    7     -4.09      0.00
   13    0    8     -0.46      0.00
   13    0    9     -4.26      0.00
   13    0   10     -3.60      0.00
   13    0   11     -0.36      0.00
   13    0   12     -0.36      0.00
   13    0   13     -2.33      0.00
   13    0   14      1.71      0.00
   13    0   15     -2.61      0.00
   13    0   16      2.04      0.00
   13    0   17     -1.93      0.00
   13    0   18      0.60      0.00
   13    0   19      0.02      0.00
   13    0   20      0.40      0.00
   13    0   21     -1.26      0.00
   13    0   22     -0.59      0.00
   13    0   23      1.35      0.00
  -13   -1   11      1.50      0.00
  -13   -1   10     -0.51      0.00
  -13   -1    9      2.26      0.00
  -13   -1    8      0.72      0.00
  -13   -1    7      1.77      0.00
  -13   -1    6      1.03      0.00
  -13   -1    5      0.20      0.00
  -13   -1    4      0.40      0.00
  -13   -1    3     -1.84      0.00
  -13   -1    2      1.04      0.00
  -13   -1    1     -0.93      0.00
   13    1    0      0.08      0.00
   13    1    1      0.15      0.00
   13    1    2      0.34      0.00
   13    1    3     -0.79      0.00
   13    1    4     -1.89      0.00
   13    1    5     -1.77      0.00
   13    1    6     -0.51      0.00
   13    1    7     -0.69      0.00
   13    1    8     -1.52      0.00
   13    1    9     -1.06      0.00
   13    1   10     -0.94      0.00
   13    1   11     -0.22      0.00
   13    1   12     -0.20      0.00
   13    1   13      0.20      0.00
   13    1   14     -1.46      0.00
   13    1   15      0.14      0.00
   13    1   16     -2.30      0.00
   13    1   17      0.73      0.00
   13    1   18      1.42      0.00
   13    1   19     -0.23      0.00
   13    1   20     -0.06      0.00
   13    1   21      1.45      0.00
   13    1   22      0.32      0.00
   13    1   23      0.28      0.00
  -13   -2   10     -0.97      0.00
  -13   -2    9     -1.30      0.00
  -13   -2    8      0.98      0.00
  -13   -2    7     -0.66      0.00
  -13   -2    6     -0.31      0.00
  -13   -2    5     -0.53      0.00
  -13   -2    4      1.12      0.00
  -13   -2    3     -0.02      0.00
  -13   -2    2      0.84      0.00
  -13   -2    1      0.81      0.00
   13    2    0     -1.13      0.00
   13    2    1      1.05      0.00
   13    2    2     -0.50      0.00
   13    2    3     -0.73      0.00
   13    2    4     -2.22      0.00
   13    2    5      1.26      0.00
   13    2    6     -2.98      0.00
   13    2    7      2.55      0.00
   13    2    8     -2.15      0.00
   13    2    9     -0.92      0.00
   13    2   10      0.12      0.00
   13    2   11      3.20      0.00
   13    2   12     -0.06      0.00
   13    2   13      1.07      0.00
   13    2   14      0.66      0.00
   13    2   15      0.59      0.00
   13    2   16      1.16      0.00
   13    2   17     -0.54      0.00
   13    2   18     -0.69      0.00
   13    2   19     -0.67      0.00
   13    2   20      0.34      0.00
   13    2   21     -1.05      0.00
   13    2   22     -1.08      0.00
   13    2   23     -0.46      0.00
   13    2   24     -0.19      0.00
  -13   -3   11     -0.28      0.00
  -13   -3   10      0.78      0.00
  -13   -3    9     -0.17      0.00
  -13   -3    8      0.52      0.00
  -13   -3    7      0.59      0.00
  -13   -3    6      2.19      0.00
  -13   -3    5      0.46      0.00
  -13   -3    4      0.14      0.00
  -13   -3    3      0.57      0.00
  -13   -3    2     -0.12      0.00
  -13   -3    1     -0.20      0.00
   13    3    0      0.20      0.00
   13    3    1      0.32      0.00
   13    3    2     -0.60      0.00
   13    3    3      1.03      0.00
   13    3    4     -1.63      0.00
   13    3    5      0.44      0.00
   13    3    6     -1.55      0.00
   13    3    7      3.48      0.00
   13    3    8     -0.47      0.00
   13    3    9      1.10      0.00
   13    3   10     -0.84      0.00
   13    3   11     -0.60      0.00
   13    3   12      0.10      0.00
   13    3   13      0.18      0.00
   13    3   14     -0.02      0.00
   13    3   15     -1.01      0.00
   13    3   16     -1.84      0.00
   13    3   17     -0.30      0.00
   13    3   18     -1.56      0.00
   13    3   19      0.32      0.00
   13    3   20      1.08      0.00
   13    3   21      1.21      0.00
   13    3   22     -0.01      0.00
   13    3   23     -0.01      0.00
   13    3   24     -0.64      0.00
  -13   -4   11     -0.07      0.00
  -13   -4   10     -0.68      0.00
  -13   -4    9     -0.88      0.00
  -13   -4    8     -0.20      0.00
  -13   -4    7      0.10      0.00
  -13   -4    6     -1.79      0.00
  -13   -4    5     -0.06      0.00
  -13   -4    4      0.33      0.00
  -13   -4    3      0.41      0.00
  -13   -4    2      1.29      0.00
  -13   -4    1      1.76      0.00
   13    4    0      0.05      0.00
   13    4    1      1.31      0.00
   13    4    2     -1.22      0.00
   13    4    3      1.53      0.00
   13    4    4     -0.66      0.00
   13    4    5      0.28      0.00
   13    4    6     -2.22      0.00
   13    4    7      0.66      0.00
   13    4    8      1.08      0.00
   13    4    9      1.34      0.00
   13    4   10      0.56      0.00
   13    4   11     -1.26      0.00
   13    4   12      1.20      0.00
   13    4   13      1.70      0.00
   13    4   14     -2.34      0.00
   13    4   15      0.73      0.00
   13    4   16     -1.00      0.00
   13    4   17     -0.20      0.00
   13    4   18      0.53      0.00
   13    4   19     -2.01      0.00
   13    4   20     -0.12      0.00
   13    4   21      0.22      0.00
   13    4   22     -1.28      0.00
   13    4   23     -1.38      0.00
   13    4   24     -1.73      0.00
  -13   -5   11     -0.70      0.00
  -13   -5   10      2.29      0.00
  -13   -5    9      0.67      0.00
  -13   -5    8      0.71      0.00
  -13   -5    7     -1.20      0.00
  -13   -5    6     -1.44      0.00
  -13   -5    5     -1.05      0.00
  -13   -5    4     -0.28      0.00
  -13   -5    3     -0.92      0.00
  -13   -5    2     -0.55      0.00
  -13   -5    1      0.42      0.00
   13    5    0      0.67      0.00
   13    5    1     -0.70      0.00
   13    5    2     -0.57      0.00
   13    5    3      0.41      0.00
   13    5    4     -0.34      0.00
   13    5    5      0.65      0.00
   13    5    6      0.64      0.00
   13    5    7     -1.49      0.00
   13    5    8     -0.98      0.00
   13    5    9      0.52      0.00
   13    5   10      1.50      0.00
   13    5   11     -1.75      0.00
   13    5   12     -0.72      0.00
   13    5   13     -0.73      0.00
   13    5   14      2.12      0.00
   13    5   15     -0.63      0.00
   13    5   16     -0.35      0.00
   13    5   17      0.60      0.00
   13    5   18      1.55      0.00
   13    5   19      2.15      0.00
   13    5   20      1.02      0.00
   13    5   21     -0.09      0.00
   13    5   22      0.48      0.00
   13    5   23      0.10      0.00
   13    5   24      0.50      0.00
   13    5   25     -0.10      0.00
  -13   -6   11     -0.01      0.00
  -13   -6   10     -0.57      0.00
  -13   -6    9     -1.26      0.00
  -13   -6    8     -1.24      0.00
  -13   -6    7      1.15      0.00
  -13   -6    6      1.67      0.00
  -13   -6    5      0.45      0.00
  -13   -6    4     -0.78      0.00
  -13   -6    3      0.96      0.00
  -13   -6    2     -0.03      0.00
  -13   -6    1     -0.34      0.00
   13    6    0      0.97      0.00
   13    6    1     -0.30      0.00
   13    6    2     -0.84      0.00
   13    6    3      0.30      0.00
   13    6    4     -0.23      0.00
   13    6    5      0.96      0.00
   13    6    6      0.96      0.00
   13    6    7     -2.40      0.00
   13    6    8      0.87      0.00
   13    6    9     -0.39      0.00
   13    6   10     -0.13      0.00
   13    6   11     -1.77      0.00
   13    6   12      1.49      0.00
   13    6   13     -1.60      0.00
   13    6   14      1.13      0.00
   13    6   15      0.35      0.00
   13    6   16      0.28      0.00
   13    6   17      0.10      0.00
   13    6   18      0.46      0.00
   13    6   19      0.89      0.00
   13    6   20     -0.26      0.00
   13    6   21     -0.59      0.00
   13    6   22     -1.89      0.00
   13    6   23      0.22      0.00
   13    6   24     -0.65      0.00
   13    6   25      0.19      0.00
  -13   -7   11     -1.37      0.00
  -13   -7   10     -0.70      0.00
  -13   -7    8      0.05      0.00
  -13   -7    7     -0.29      0.00
  -13   -7    6      0.32      0.00
  -13   -7    5      0.58      0.00
  -13   -7    4      0.80      0.00
  -13   -7    3     -1.40      0.00
  -13   -7    2      0.44      0.00
  -13   -7    1     -1.00      0.00
   13    7    0     -1.16      0.00
   13    7    1     -1.82      0.00
   13    7    2      0.04      0.00
   13    7    3     -0.92      0.00
   13    7    4      0.15      0.00
   13    7    5     -0.56      0.00
   13    7    6      0.08      0.00
   13    7    7     -0.29      0.00
   13    7    8      1.03      0.00
   13    7    9      0.29      0.00
   13    7   10      1.75      0.00
   13    7   11      0.13      0.00
   13    7   12      0.15      0.00
   13    7   13      0.92      0.00
   13    7   14     -0.27      0.00
   13    7   15     -1.11      0.00
   13    7   16     -0.90      0.00
   13    7   17     -0.30      0.00
   13    7   18     -1.52      0.00
   13    7   19     -0.98      0.00
   13    7   20     -1.60      0.00
   13    7   21     -1.45      0.00
   13    7   22     -2.08      0.00
   13    7   23      0.59      0.00
   13    7   24      0.11      0.00
   13    7   25      0.98      0.00
  -13   -8   10     -0.90      0.00
  -13   -8    9     -1.27      0.00
  -13   -8    8      0.09      0.00
  -13   -8    7     -0.37      0.00
  -13   -8    6     -0.93      0.00
  -13   -8    5     -1.50      0.00
  -13   -8    4     -1.16      0.00
  -13   -8    3      1.18      0.00
  -13   -8    2     -0.82      0.00
  -13   -8    1      0.76      0.00
   13    8    0      1.38      0.00
   13    8    1     -0.23      0.00
   13    8    2      0.59      0.00
   13    8    3      0.83      0.00
   13    8    4     -0.61      0.00
   13    8    5      0.66      0.00
   13    8    6     -0.10      0.00
   13    8    7      1.39      0.00
   13    8    8     -0.08      0.00
   13    8    9      0.29      0.00
   13    8   10     -0.01      0.00
   13    8   11      2.32      0.00
   13    8   12      0.35      0.00
   13    8   13     -0.72      0.00
   13    8   14      0.02      0.00
   13    8   15      0.13      0.00
   13    8   16     -1.59      0.00
   13    8   17     -0.36      0.00
   13    8   18     -0.71      0.00
   13    8   19      0.65      0.00
   13    8   20     -1.91      0.00
   13    8   21     -1.21      0.00
   13    8   22      0.02      0.00
  -13   -9   10     -0.22      0.00
  -13   -9    9      0.02      0.00
  -13   -9    8      0.05      0.00
  -13   -9    7      0.69      0.00
  -13   -9    6     -0.09      0.00
  -13   -9    5      0.54      0.00
  -13   -9    4      1.74      0.00
  -13   -9    3      0.25      0.00
  -13   -9    2      2.22      0.00
  -13   -9    1     -0.04      0.00
   13    9    0     -1.36      0.00
   13    9    1      2.09      0.00
   13    9    2      1.51      0.00
   13    9    3      1.23      0.00
   13    9    4      1.61      0.00
   13    9    5      0.58      0.00
   13    9    6     -0.83      0.00
   13    9    7      1.31      0.00
   13    9    8     -0.80      0.00
   13    9    9      1.82      0.00
   13    9   10      0.34      0.00
   13    9   11     -0.02      0.00
   13    9   12     -0.16      0.00
   13    9   13      0.73      0.00
   13    9   14     -1.51      0.00
   13    9   15     -0.76      0.00
   13    9   16      0.24      0.00
   13    9   17     -1.25      0.00
   13    9   18     -0.75      0.00
   13    9   19     -0.09      0.00
   13    9   20     -1.09      0.00
   13    9   21      0.38      0.00
   13    9   22     -0.76      0.00
  -13  -10    9      0.01      0.00
  -13  -10    8      0.38      0.00
  -13  -10    7     -0.04      0.00
  -13  -10    6      0.42      0.00
  -13  -10    5     -0.54      0.00
  -13  -10    4      0.60      0.00
  -13  -10    3     -1.21      0.00
  -13  -10    2     -0.36      0.00
  -13  -10    1      0.55      0.00
   13   10    0      0.75      0.00
   13   10    1     -0.60      0.00
   13   10    2      0.02      0.00
   13   10    3      1.47      0.00
   13   10    4     -1.02      0.00
   13   10    5      0.50      0.00
   13   10    6     -0.31      0.00
   13   10    7      0.16      0.00
   13   10    8     -0.21      0.00
   13   10    9     -0.11      0.00
   13   10   10     -0.69      0.00
   13   10   11      2.30      0.00
   13   10   12     -0.97      0.00
   13   10   13     -0.94      0.00
   13   10   14     -1.30      0.00
   13   10   15     -1.42      0.00
   13   10   16     -0.10      0.00
   13   10   17      0.37      0.00
   13   10   18      0.59      0.00
   13   10   19      0.34      0.00
   13   10   20     -1.17      0.00
   13   10   21      0.11      0.00
  -13  -11    8      0.64      0.00
  -13  -11    7      1.37      0.00
  -13  -11    6      0.70      0.00
  -13  -11    5      0.43      0.00
  -13  -11    4     -0.70      0.00
  -13  -11    3     -0.46      0.00
  -13  -11    2      0.91      0.00
  -13  -11    1     -0.06      0.00
   13   11    0     -0.80      0.00
   13   11    1      0.49      0.00
   13   11    2     -1.48      0.00
   13   11    3     -1.17      0.00
   13   11    4      0.40      0.00
   13   11    5     -0.81      0.00
   13   11    6     -1.03      0.00
   13   11    7      0.98      0.00
   13   11    8     -0.53      0.00
   13   11    9      1.94      0.00
   13   11   10     -0.43      0.00
   13   11   11     -0.39      0.00
   13   11   12     -0.89      0.00
   13   11   13     -0.70      0.00
   13   11   14     -1.32      0.00
   13   11   15      2.01      0.00
   13   11   16      1.11      0.00
   13   11   17      0.14      0.00
   13   11   18     -0.68      0.00
   13   11   19     -2.16      0.00
   13   11   20     -0.28      0.00
  -13  -12    9      0.41      0.00
  -13  -12    7      1.93      0.00
  -13  -12    6     -0.90      0.00
  -13  -12    5     -0.11      0.00
  -13  -12    4     -0.94      0.00
  -13  -12    3      0.30      0.00
  -13  -12    2     -0.66      0.00
  -13  -12    1      0.21      0.00
   13   12    0     -0.53      0.00
   13   12    1      0.87      0.00
   13   12    2     -0.96      0.00
   13   12    3      0.88      0.00
   13   12    4     -0.25      0.00
   13   12    5      0.40      0.00
   13   12    6      0.41      0.00
   13   12    7     -0.41      0.00
   13   12    8     -0.15      0.00
   13   12    9     -0.63      0.00
   13   12   10     -0.90      0.00
   13   12   11     -0.16      0.00
   13   12   12     -0.14      0.00
   13   12   13      0.01      0.00
   13   12   14      1.78      0.00
   13   12   15      0.80      0.00
   13   12   16      0.11      0.00
   13   12   17     -0.37      0.00
   13   12   18      0.69      0.00
   13   12   19      0.48      0.00
   13   12   20      0.09      0.00
  -13  -13    6     -0.10      0.00
  -13  -13    5     -1.07      0.00
  -13  -13    4     -1.71      0.00
  -13  -13    3     -0.24      0.00
  -13  -13    2     -0.87      0.00
  -13  -13    1     -1.34      0.00
   13   13    0      0.62      0.00
   13   13    1      1.00      0.00
   13   13    2     -0.85      0.00
   13   13    3      0.62      0.00
   13   13    4     -0.15      0.00
   13   13    5      0.12      0.00
   13   13    6     -0.78      0.00
   13   13    7     -1.37      0.00
   13   13    8      0.40      0.00
   13   13    9      0.35      0.00
   13   13   10      0.78      0.00
   13   13   11     -1.72      0.00
   13   13   12     -1.33      0.00
   13   13   13     -0.20      0.00
   13   13   14      1.00      0.00
   13   13   15      0.18      0.00
   13   13   16      1.30      0.00
   13   13   17      0.16      0.00
   13   13   18      0.73      0.00
   13   13   19      0.20      0.00
  -13  -14    4     -2.58      0.00
  -13  -14    3     -0.64      0.00
  -13  -14    2      0.39      0.00
  -13  -14    1      0.79      0.00
   13   14    0     -0.29      0.00
   13   14    1      0.61      0.00
   13   14    2      1.82      0.00
   13   14    3      0.00      0.00
   13   14    4     -1.84      0.00
   13   14    5     -0.80      0.00
   13   14    6     -1.23      0.00
   13   14    7     -1.00      0.00
   13   14    8     -0.38      0.00
   13   14    9     -1.22      0.00
   13   14   10     -0.81      0.00
   13   14   11     -0.58      0.00
   13   14   12     -0.95      0.00
   13   14   13     -0.60      0.00
   13   14   14      0.58      0.00
   13   14   15      0.10      0.00
   13   14   16     -0.92      0.00
   13   14   17      0.26      0.00
  -13  -15    2     -0.49      0.00
  -13  -15    1      2.83      0.00
   13   15    0      0.97      0.00
   13   15    1      0.12      0.00
   13   15    2     -0.58      0.00
   13   15    3     -0.18      0.00
   13   15    4     -0.96      0.00
   13   15    5     -0.58      0.00
   13   15    6     -1.35      0.00
   13   15    7      0.11      0.00
   13   15    8      0.10      0.00
   13   15    9      0.78      0.00
   13   15   10      0.33      0.00
   13   15   11      1.03      0.00
   13   15   12      1.29      0.00
   13   15   13      0.46      0.00
   13   15   14     -0.93      0.00
   13   15   15      0.06      0.00
  -13  -16    2      0.43      0.00
  -13  -16    1      0.38      0.00
   13   16    0      0.98      0.00
   13   16    3     -0.22      0.00
   13   16    4     -0.61      0.00
   13   16    5      0.76      0.00
   13   16    6     -2.17      0.00
   13   16    7     -0.68      0.00
   13   16    8     -0.53      0.00
   13   16    9     -1.20      0.00
   13   16   10      0.69      0.00
   13   16   11     -1.31      0.00
   13   16   12     -0.40      0.00
   13   17    1      0.13      0.00
   13   17    2      2.49      0.00
   13   17    3      1.91      0.00
   13   17    4      0.48      0.00
   14  -15    2     -1.68      0.00
   14  -15    3      2.63      0.00
   14  -15    4     11.87      0.00
   14  -14    4     -5.20      0.00
   14  -14    5      7.85      0.00
   14  -14    6     -4.34      0.00
   14  -13    4      2.44      0.00
   14  -13    5     -2.57      0.00
   14  -13    6      2.01      0.00
   14  -13   13      1.09      0.00
  -14   12    4      2.09      0.00
  -14   12    2      1.00      0.00
  -14   12    1     -1.18      0.00
   14  -12    3      1.61      0.00
   14  -12    4     -1.16      0.00
   14  -12   12     -0.46      0.00
   14  -12   13      1.12      0.00
   14  -12   14     -1.00      0.00
  -14   11    6      2.11      0.00
  -14   11    5      3.18      0.00
  -14   11    4      1.02      0.00
  -14   11    3      0.85      0.00
  -14   11    2     -1.98      0.00
  -14   11    1      1.44      0.00
  -14   11    0     -0.12      0.00
   14  -11    1      1.86      0.00
   14  -11    3      0.24      0.00
   14  -11    4      2.27      0.00
   14  -11    5      2.39      0.00
   14  -11    8      0.14      0.00
   14  -11    9     -0.42      0.00
   14  -11   10     -0.17      0.00
   14  -11   11     -0.26      0.00
   14  -11   12     -2.32      0.00
   14  -11   13     -1.27      0.00
   14  -11   14     -1.39      0.00
   14  -11   15      0.28      0.00
  -14   10    6     -0.86      0.00
  -14   10    5      0.09      0.00
  -14   10    1      1.06      0.00
  -14   10    0     -0.22      0.00
   14  -10    1     -1.66      0.00
   14  -10    2     -0.68      0.00
   14  -10    3      2.12      0.00
   14  -10    4     -1.27      0.00
   14  -10    5      2.80      0.00
   14  -10    6     -0.31      0.00
   14  -10    7     -1.39      0.00
   14  -10    8     -0.38      0.00
   14  -10    9      1.37      0.00
   14  -10   10     -2.48      0.00
   14  -10   11     -2.40      0.00
   14  -10   12     -0.73      0.00
   14  -10   13     -0.27      0.00
   14  -10   14     -1.75      0.00
   14  -10   15      0.51      0.00
   14  -10   16     -0.15      0.00
  -14    9    6     -0.17      0.00
  -14    9    5     -2.64      0.00
  -14    9    2      2.48      0.00
  -14    9    1     -0.35      0.00
  -14    9    0     -1.20      0.00
   14   -9    1     -0.49      0.00
   14   -9    2     -0.43      0.00
   14   -9    3      2.11      0.00
   14   -9    4      3.13      0.00
   14   -9    5      0.78      0.00
   14   -9    6      2.34      0.00
   14   -9    7      0.12      0.00
   14   -9    8      2.05      0.00
   14   -9    9     -1.25      0.00
   14   -9   10     -1.91      0.00
   14   -9   11     -1.89      0.00
   14   -9   12     -0.32      0.00
   14   -9   13      1.44      0.00
   14   -9   14      1.43      0.00
   14   -9   15      0.56      0.00
   14   -9   16     -0.08      0.00
   14   -9   17     -0.12      0.00
  -14    8    6      0.40      0.00
  -14    8    4     -0.89      0.00
  -14    8    3     -0.41      0.00
  -14    8    2     -0.12      0.00
  -14    8    1     -2.70      0.00
  -14    8    0     -1.44      0.00
   14   -8    1     -1.33      0.00
   14   -8    2      0.32      0.00
   14   -8    3     -1.18      0.00
   14   -8    4     -2.79      0.00
   14   -8    5     -1.33      0.00
   14   -8    6      0.36      0.00
   14   -8    7     -1.95      0.00
   14   -8    8      0.48      0.00
   14   -8    9     -0.32      0.00
   14   -8   10     -0.60      0.00
   14   -8   11     -0.15      0.00
   14   -8   12     -1.35      0.00
   14   -8   13      0.68      0.00
   14   -8   14     -0.91      0.00
   14   -8   15     -0.15      0.00
   14   -8   16     -2.10      0.00
   14   -8   17     -0.25      0.00
   14   -8   18      0.36      0.00
  -14    7    7     -1.05      0.00
  -14    7    6     -0.24      0.00
  -14    7    5      0.10      0.00
  -14    7    4      1.17      0.00
  -14    7    3      0.18      0.00
  -14    7    2      0.26      0.00
  -14    7    1      0.10      0.00
  -14    7    0      0.76      0.00
   14   -7    1      0.69      0.00
   14   -7    2     -1.83      0.00
   14   -7    3     -0.77      0.00
   14   -7    4      0.67      0.00
   14   -7    5     -1.40      0.00
   14   -7    6     -0.08      0.00
   14   -7    7     -0.56      0.00
   14   -7    8     -0.91      0.00
   14   -7    9      0.84      0.00
   14   -7   10      1.47      0.00
   14   -7   11      1.05      0.00
   14   -7   12     -1.02      0.00
   14   -7   13     -0.49      0.00
   14   -7   14      0.24      0.00
   14   -7   15     -2.58      0.00
   14   -7   16      1.95      0.00
   14   -7   17      0.51      0.00
   14   -7   18     -0.61      0.00
   14   -7   19      1.47      0.00
  -14    6    7     -1.14      0.00
  -14    6    6     -0.63      0.00
  -14    6    5     -0.70      0.00
  -14    6    4     -0.98      0.00
  -14    6    3      0.45      0.00
  -14    6    2     -0.77      0.00
  -14    6    1      0.38      0.00
  -14    6    0      2.22      0.00
   14   -6    1      0.59      0.00
   14   -6    2     -0.08      0.00
   14   -6    3     -1.05      0.00
   14   -6    4      0.51      0.00
   14   -6    5      0.90      0.00
   14   -6    6      0.92      0.00
   14   -6    7      1.06      0.00
   14   -6    8      1.15      0.00
   14   -6    9     -0.22      0.00
   14   -6   10      1.15      0.00
   14   -6   11     -0.34      0.00
   14   -6   12     -0.71      0.00
   14   -6   13     -1.65      0.00
   14   -6   14     -0.77      0.00
   14   -6   15     -1.00      0.00
   14   -6   16      0.26      0.00
   14   -6   17     -1.60      0.00
   14   -6   18      0.02      0.00
   14   -6   19      0.13      0.00
   14   -6   20     -1.02      0.00
  -14    5    7     -1.17      0.00
  -14    5    6     -1.09      0.00
  -14    5    5      0.89      0.00
  -14    5    4      1.29      0.00
  -14    5    3      0.52      0.00
  -14    5    2      0.93      0.00
  -14    5    1      0.09      0.00
  -14    5    0      1.14      0.00
   14   -5    1     -1.32      0.00
   14   -5    2     -0.64      0.00
   14   -5    3      0.42      0.00
   14   -5    4     -0.82      0.00
   14   -5    5      0.82      0.00
   14   -5    6     -0.79      0.00
   14   -5    7      0.92      0.00
   14   -5    8      0.03      0.00
   14   -5    9     -2.90      0.00
   14   -5   10      0.48      0.00
   14   -5   11     -0.61      0.00
   14   -5   12      2.55      0.00
   14   -5   13     -0.78      0.00
   14   -5   14      0.05      0.00
   14   -5   15      0.48      0.00
   14   -5   16      0.68      0.00
   14   -5   17      0.23      0.00
   14   -5   18     -1.47      0.00
   14   -5   19     -0.44      0.00
   14   -5   20     -1.71      0.00
  -14    4    8      0.53      0.00
  -14    4    7      0.12      0.00
  -14    4    6      1.21      0.00
  -14    4    5     -1.52      0.00
  -14    4    4     -0.19      0.00
  -14    4    3      0.03      0.00
  -14    4    2      0.88      0.00
  -14    4    1     -0.01      0.00
  -14    4    0      0.59      0.00
   14   -4    1      0.86      0.00
   14   -4    2      0.74      0.00
   14   -4    3     -0.30      0.00
   14   -4    4      0.35      0.00
   14   -4    5      1.22      0.00
   14   -4    6      1.81      0.00
   14   -4    7     -2.37      0.00
   14   -4    8      0.38      0.00
   14   -4    9      0.30      0.00
   14   -4   10      1.11      0.00
   14   -4   11     -0.72      0.00
   14   -4   12     -1.87      0.00
   14   -4   13     -1.89      0.00
   14   -4   14     -0.68      0.00
   14   -4   15     -0.33      0.00
   14   -4   16      1.40      0.00
   14   -4   17      1.00      0.00
   14   -4   18      0.30      0.00
   14   -4   19     -0.05      0.00
   14   -4   20     -0.55      0.00
   14   -4   21      0.62      0.00
  -14    3    8      1.66      0.00
  -14    3    7     -1.04      0.00
  -14    3    6     -0.32      0.00
  -14    3    5      0.61      0.00
  -14    3    4      2.15      0.00
  -14    3    3      0.06      0.00
  -14    3    2     -0.06      0.00
  -14    3    1      0.54      0.00
  -14    3    0     -0.48      0.00
   14   -3    1     -1.73      0.00
   14   -3    2     -1.17      0.00
   14   -3    3      1.27      0.00
   14   -3    4      1.64      0.00
   14   -3    5     -0.11      0.00
   14   -3    6      0.82      0.00
   14   -3    7      0.34      0.00
   14   -3    8      0.45      0.00
   14   -3    9      0.54      0.00
   14   -3   10     -0.43      0.00
   14   -3   11     -0.52      0.00
   14   -3   12     -0.39      0.00
   14   -3   13      1.29      0.00
   14   -3   14     -0.21      0.00
   14   -3   15     -0.11      0.00
   14   -3   16     -0.64      0.00
   14   -3   17      1.37      0.00
   14   -3   18      2.01      0.00
   14   -3   19     -0.30      0.00
   14   -3   20      0.02      0.00
   14   -3   21      0.01      0.00
  -14    2    8     -0.10      0.00
  -14    2    7      0.74      0.00
  -14    2    6      1.02      0.00
  -14    2    5      1.13      0.00
  -14    2    4      0.13      0.00
  -14    2    3      0.51      0.00
  -14    2    2     -0.33      0.00
  -14    2    1      0.11      0.00
  -14    2    0      1.08      0.00
   14   -2    1      0.86      0.00
   14   -2    2      0.52      0.00
   14   -2    3     -2.62      0.00
   14   -2    4     -0.23      0.00
   14   -2    5     -0.55      0.00
   14   -2    6      0.06      0.00
   14   -2    7      1.51      0.00
   14   -2    8     -0.01      0.00
   14   -2    9     -0.13      0.00
   14   -2   10      0.57      0.00
   14   -2   11      0.90      0.00
   14   -2   12      0.61      0.00
   14   -2   13      1.20      0.00
   14   -2   14      0.07      0.00
   14   -2   15      1.35      0.00
   14   -2   16     -0.46      0.00
   14   -2   17     -1.40      0.00
   14   -2   18      0.66      0.00
   14   -2   19     -0.43      0.00
   14   -2   20      0.21      0.00
   14   -2   21      0.24      0.00
  -14    1    9      0.22      0.00
  -14    1    8      0.91      0.00
  -14    1    7      0.79      0.00
  -14    1    6      1.56      0.00
  -14    1    5     -0.04      0.00
  -14    1    4     -1.22      0.00
  -14    1    3     -1.38      0.00
  -14    1    2     -0.76      0.00
  -14    1    1     -0.89      0.00
  -14    1    0     -0.86      0.00
   14   -1    1     -0.91      0.00
   14   -1    2     -0.58      0.00
   14   -1    3     -1.78      0.00
   14   -1    4      1.21      0.00
   14   -1    5      1.52      0.00
   14   -1    6     -0.69      0.00
   14   -1    7      1.41      0.00
   14   -1    8     -2.46      0.00
   14   -1    9     -0.44      0.00
   14   -1   10     -1.93      0.00
   14   -1   11     -2.75      0.00
   14   -1   12     -1.69      0.00
   14   -1   13      0.58      0.00
   14   -1   14     -1.38      0.00
   14   -1   15      0.36      0.00
   14   -1   16     -1.61      0.00
   14   -1   17      1.53      0.00
   14   -1   18     -2.14      0.00
   14   -1   19      0.99      0.00
   14   -1   20     -0.82      0.00
   14   -1   21     -0.76      0.00
  -14    0    9     -0.22      0.00
  -14    0    8     -0.70      0.00
  -14    0    7      0.82      0.00
  -14    0    6      1.72      0.00
  -14    0    5      1.76      0.00
  -14    0    4     -0.10      0.00
  -14    0    3      0.62      0.00
  -14    0    2     -2.08      0.00
  -14    0    1     -0.11      0.00
   14    0    0      0.11      0.00
   14    0    1      0.62      0.00
   14    0    2      1.02      0.00
   14    0    3      0.64      0.00
   14    0    4      0.35      0.00
   14    0    5      0.76      0.00
   14    0    6      0.57      0.00
   14    0    7     -3.10      0.00
   14    0    8     -1.78      0.00
   14    0    9     -2.31      0.00
   14    0   10     -2.81      0.00
   14    0   11     -0.69      0.00
   14    0   12     -1.10      0.00
   14    0   13     -1.47      0.00
   14    0   14     -1.24      0.00
   14    0   15     -1.57      0.00
   14    0   16      0.45      0.00
   14    0   17     -0.72      0.00
   14    0   18     -0.37      0.00
   14    0   19     -1.09      0.00
   14    0   20      0.91      0.00
   14    0   21     -1.84      0.00
  -14   -1    9      1.81      0.00
  -14   -1    8      0.10      0.00
  -14   -1    7      1.66      0.00
  -14   -1    6      1.09      0.00
  -14   -1    5      0.67      0.00
  -14   -1    4      0.29      0.00
  -14   -1    3      0.07      0.00
  -14   -1    2      0.63      0.00
  -14   -1    1      0.88      0.00
   14    1    0      1.27      0.00
   14    1    1      1.52      0.00
   14    1    2      0.35      0.00
   14    1    3      0.70      0.00
   14    1    4      0.28      0.00
   14    1    5     -3.72      0.00
   14    1    6      1.61      0.00
   14    1    7     -1.58      0.00
   14    1    8     -0.20      0.00
   14    1    9     -0.54      0.00
   14    1   10     -0.36      0.00
   14    1   11     -2.83      0.00
   14    1   12     -0.42      0.00
   14    1   13     -1.94      0.00
   14    1   14     -2.94      0.00
   14    1   15     -0.72      0.00
   14    1   16     -1.98      0.00
   14    1   17     -0.56      0.00
   14    1   18     -0.10      0.00
   14    1   19      0.75      0.00
   14    1   20      0.30      0.00
   14    1   21      1.41      0.00
   14    1   22      0.57      0.00
   14    1   23      1.02      0.00
  -14   -2    9     -1.05      0.00
  -14   -2    8      0.69      0.00
  -14   -2    7     -0.57      0.00
  -14   -2    6     -1.28      0.00
  -14   -2    5     -1.49      0.00
  -14   -2    4     -0.38      0.00
  -14   -2    3     -0.73      0.00
  -14   -2    2      0.54      0.00
  -14   -2    1      0.27      0.00
   14    2    0      0.50      0.00
   14    2    1      0.61      0.00
   14    2    2      1.29      0.00
   14    2    3     -2.25      0.00
   14    2    4      0.10      0.00
   14    2    5     -1.06      0.00
   14    2    6      0.00      0.00
   14    2    7     -1.68      0.00
   14    2    8     -0.09      0.00
   14    2    9     -2.16      0.00
   14    2   10     -1.47      0.00
   14    2   11      2.22      0.00
   14    2   12      1.13      0.00
   14    2   13     -0.33      0.00
   14    2   14      2.13      0.00
   14    2   15      0.02      0.00
   14    2   16      1.67      0.00
   14    2   17      0.83      0.00
   14    2   18      0.21      0.00
   14    2   19      1.80      0.00
   14    2   20     -0.04      0.00
   14    2   21      0.17      0.00
   14    2   22     -0.33      0.00
   14    2   23     -1.44      0.00
  -14   -3    9      0.98      0.00
  -14   -3    8     -0.27      0.00
  -14   -3    7     -0.05      0.00
  -14   -3    6      0.19      0.00
  -14   -3    5      0.13      0.00
  -14   -3    4      0.17      0.00
  -14   -3    3      0.00      0.00
  -14   -3    2      0.50      0.00
  -14   -3    1     -0.03      0.00
   14    3    0      0.56      0.00
   14    3    1      0.17      0.00
   14    3    2      0.45      0.00
   14    3    3      0.07      0.00
   14    3    4      0.52      0.00
   14    3    5     -1.85      0.00
   14    3    6      0.92      0.00
   14    3    7     -0.53      0.00
   14    3    8      0.31      0.00
   14    3    9     -0.40      0.00
   14    3   10     -0.69      0.00
   14    3   11      1.14      0.00
   14    3   12     -0.32      0.00
   14    3   13      0.32      0.00
   14    3   14      0.80      0.00
   14    3   15     -0.30      0.00
   14    3   16     -0.22      0.00
   14    3   17     -0.25      0.00
   14    3   18     -0.87      0.00
   14    3   19      0.75      0.00
   14    3   20      0.72      0.00
   14    3   21      1.32      0.00
   14    3   22     -0.07      0.00
   14    3   23     -0.36      0.00
   14    3   24      0.53      0.00
  -14   -4    9     -0.84      0.00
  -14   -4    8     -2.07      0.00
  -14   -4    7      0.23      0.00
  -14   -4    6     -1.36      0.00
  -14   -4    5      0.30      0.00
  -14   -4    4     -0.42      0.00
  -14   -4    3     -0.90      0.00
  -14   -4    2      1.64      0.00
  -14   -4    1      0.16      0.00
   14    4    0     -0.92      0.00
   14    4    1     -0.09      0.00
   14    4    2     -1.16      0.00
   14    4    3     -1.22      0.00
   14    4    4      0.30      0.00
   14    4    5      0.30      0.00
   14    4    6     -1.46      0.00
   14    4    7      0.71      0.00
   14    4    8      2.67      0.00
   14    4    9      0.42      0.00
   14    4   10     -0.15      0.00
   14    4   11      0.84      0.00
   14    4   12      0.05      0.00
   14    4   13      2.72      0.00
   14    4   14     -0.11      0.00
   14    4   15      0.38      0.00
   14    4   16     -0.31      0.00
   14    4   17      0.22      0.00
   14    4   18     -0.24      0.00
   14    4   19     -0.90      0.00
   14    4   20     -1.05      0.00
   14    4   21      0.04      0.00
   14    4   22     -0.48      0.00
   14    4   23     -1.59      0.00
   14    4   24     -1.83      0.00
  -14   -5    9      1.15      0.00
  -14   -5    8      0.70      0.00
  -14   -5    7     -0.64      0.00
  -14   -5    6     -0.90      0.00
  -14   -5    5     -1.16      0.00
  -14   -5    4      0.53      0.00
  -14   -5    3      0.35      0.00
  -14   -5    2     -1.27      0.00
  -14   -5    1      0.29      0.00
   14    5    0      0.60      0.00
   14    5    1     -0.46      0.00
   14    5    2     -0.90      0.00
   14    5    3      0.84      0.00
   14    5    4      0.21      0.00
   14    5    5      0.31      0.00
   14    5    6      0.43      0.00
   14    5    7     -0.46      0.00
   14    5    8     -1.82      0.00
   14    5    9      1.28      0.00
   14    5   10     -0.03      0.00
   14    5   11      1.31      0.00
   14    5   12     -1.42      0.00
   14    5   13      2.02      0.00
   14    5   14      0.83      0.00
   14    5   15     -0.75      0.00
   14    5   16     -1.06      0.00
   14    5   17      0.05      0.00
   14    5   18      0.00      0.00
   14    5   19      2.28      0.00
   14    5   20      0.69      0.00
   14    5   21      0.24      0.00
   14    5   22      1.25      0.00
   14    5   23     -0.72      0.00
   14    5   24      1.33      0.00
  -14   -6    8     -0.06      0.00
  -14   -6    7      1.34      0.00
  -14   -6    6      1.27      0.00
  -14   -6    5      1.52      0.00
  -14   -6    4     -0.85      0.00
  -14   -6    3      0.28      0.00
  -14   -6    2      0.38      0.00
  -14   -6    1      0.02      0.00
   14    6    0     -0.24      0.00
   14    6    1      1.41      0.00
   14    6    2     -0.31      0.00
   14    6    3      0.12      0.00
   14    6    4      0.63      0.00
   14    6    5      0.47      0.00
   14    6    6     -0.34      0.00
   14    6    7      1.08      0.00
   14    6    8     -1.64      0.00
   14    6    9     -0.01      0.00
   14    6   10     -0.27      0.00
   14    6   11      0.32      0.00
   14    6   12     -0.68      0.00
   14    6   13     -0.49      0.00
   14    6   14      0.73      0.00
   14    6   15      1.32      0.00
   14    6   16     -0.25      0.00
   14    6   17     -0.48      0.00
   14    6   18      1.19      0.00
   14    6   19      1.97      0.00
   14    6   20      0.88      0.00
   14    6   21     -0.42      0.00
   14    6   23      0.20      0.00
   14    6   24     -0.65      0.00
   14    6   25      0.01      0.00
  -14   -7    7     -0.22      0.00
  -14   -7    6      0.51      0.00
  -14   -7    5      0.81      0.00
  -14   -7    4      0.74      0.00
  -14   -7    3     -0.75      0.00
  -14   -7    2      0.41      0.00
  -14   -7    1     -0.64      0.00
   14    7    0     -1.60      0.00
   14    7    1     -1.10      0.00
   14    7    2     -0.15      0.00
   14    7    3      0.29      0.00
   14    7    4      0.76      0.00
   14    7    5      1.00      0.00
   14    7    6      0.82      0.00
   14    7    7     -0.75      0.00
   14    7    8     -0.25      0.00
   14    7    9      0.92      0.00
   14    7   10      0.96      0.00
   14    7   11     -0.64      0.00
   14    7   12     -0.92      0.00
   14    7   13      1.01      0.00
   14    7   14     -1.15      0.00
   14    7   15     -1.15      0.00
   14    7   16     -0.77      0.00
   14    7   17      1.04      0.00
   14    7   18     -0.47      0.00
   14    7   19     -0.86      0.00
   14    7   20     -0.15      0.00
   14    7   21     -1.42      0.00
   14    7   22     -1.40      0.00
   14    7   24     -0.07      0.00
   14    7   25      1.37      0.00
  -14   -8    9     -1.03      0.00
  -14   -8    7     -0.22      0.00
  -14   -8    6     -1.31      0.00
  -14   -8    5     -0.72      0.00
  -14   -8    4     -1.91      0.00
  -14   -8    3      1.27      0.00
  -14   -8    2     -1.71      0.00
  -14   -8    1      0.04      0.00
   14    8    0      1.10      0.00
   14    8    1     -0.33      0.00
   14    8    2      0.26      0.00
   14    8    3      1.32      0.00
   14    8    4     -0.41      0.00
   14    8    5     -0.36      0.00
   14    8    6     -0.09      0.00
   14    8    7      0.84      0.00
   14    8    8      0.63      0.00
   14    8    9     -0.81      0.00
   14    8   10      0.31      0.00
   14    8   11      1.53      0.00
   14    8   12      1.36      0.00
   14    8   13     -1.11      0.00
   14    8   14      0.40      0.00
   14    8   15     -0.02      0.00
   14    8   16     -1.29      0.00
   14    8   17     -0.68      0.00
   14    8   18      0.49      0.00
   14    8   19     -0.30      0.00
   14    8   20      0.17      0.00
   14    8   21     -2.07      0.00
   14    8   22      0.37      0.00
  -14   -9    9     -0.09      0.00
  -14   -9    8      0.17      0.00
  -14   -9    7      0.90      0.00
  -14   -9    6     -0.25      0.00
  -14   -9    5      0.60      0.00
  -14   -9    4     -0.38      0.00
  -14   -9    3      0.55      0.00
  -14   -9    2      1.92      0.00
  -14   -9    1      0.00      0.00
   14    9    0     -0.89      0.00
   14    9    1      2.75      0.00
   14    9    2      1.87      0.00
   14    9    3      0.76      0.00
   14    9    4      1.19      0.00
   14    9    5     -0.87      0.00
   14    9    6      0.15      0.00
   14    9    7     -1.42      0.00
   14    9    8      1.52      0.00
   14    9    9      0.91      0.00
   14    9   10      1.61      0.00
   14    9   11     -1.64      0.00
   14    9   12      1.52      0.00
   14    9   13      0.14      0.00
   14    9   14      0.03      0.00
   14    9   15     -0.63      0.00
   14    9   16      0.99      0.00
   14    9   17     -0.32      0.00
   14    9   18     -0.63      0.00
   14    9   19     -0.46      0.00
   14    9   20      0.30      0.00
   14    9   21     -0.52      0.00
   14    9   22     -0.42      0.00
  -14  -10    9      0.58      0.00
  -14  -10    8      0.95      0.00
  -14  -10    7      0.30      0.00
  -14  -10    6     -1.13      0.00
  -14  -10    5     -1.07      0.00
  -14  -10    4     -0.20      0.00
  -14  -10    3     -0.19      0.00
  -14  -10    2     -2.83      0.00
  -14  -10    1      0.55      0.00
   14   10    0      0.76      0.00
   14   10    1     -2.04      0.00
   14   10    2      1.02      0.00
   14   10    3     -0.06      0.00
   14   10    4     -0.36      0.00
   14   10    5     -0.16      0.00
   14   10    6      1.12      0.00
   14   10    7      0.21      0.00
   14   10    8      1.20      0.00
   14   10    9     -2.01      0.00
   14   10   10      1.23      0.00
   14   10   11      0.72      0.00
   14   10   12      0.42      0.00
   14   10   13     -0.77      0.00
   14   10   14     -0.75      0.00
   14   10   15     -2.62      0.00
   14   10   16     -0.77      0.00
   14   10   17     -1.38      0.00
   14   10   18     -1.06      0.00
   14   10   19     -0.90      0.00
   14   10   20     -0.67      0.00
   14   10   21     -0.85      0.00
   14   10   22      0.11      0.00
  -14  -11    8     -0.45      0.00
  -14  -11    7      0.93      0.00
  -14  -11    6      1.50      0.00
  -14  -11    5      1.51      0.00
  -14  -11    4      0.79      0.00
  -14  -11    3      0.27      0.00
  -14  -11    2      0.04      0.00
  -14  -11    1     -1.13      0.00
   14   11    0      1.03      0.00
   14   11    1     -0.56      0.00
   14   11    2     -0.80      0.00
   14   11    3     -1.08      0.00
   14   11    4      1.78      0.00
   14   11    5     -0.06      0.00
   14   11    6      0.57      0.00
   14   11    7      0.26      0.00
   14   11    8      0.18      0.00
   14   11    9      1.24      0.00
   14   11   10     -1.11      0.00
   14   11   11     -0.14      0.00
   14   11   12     -0.60      0.00
   14   11   13     -1.73      0.00
   14   11   14     -1.90      0.00
   14   11   15      1.64      0.00
   14   11   16     -1.01      0.00
   14   11   17      0.73      0.00
   14   11   18     -1.81      0.00
   14   11   19     -1.11      0.00
   14   11   20     -1.29      0.00
   14   11   21     -0.28      0.00
  -14  -12    7      0.85      0.00
  -14  -12    6      0.85      0.00
  -14  -12    5      0.09      0.00
  -14  -12    4     -0.32      0.00
  -14  -12    3     -1.36      0.00
  -14  -12    2      1.04      0.00
  -14  -12    1      0.68      0.00
   14   12    0      0.36      0.00
   14   12    1      0.66      0.00
   14   12    2      0.35      0.00
   14   12    3      0.11      0.00
   14   12    4     -0.25      0.00
   14   12    5      1.15      0.00
   14   12    6      0.07      0.00
   14   12    7     -0.29      0.00
   14   12    8     -1.00      0.00
   14   12    9      0.07      0.00
   14   12   10     -0.97      0.00
   14   12   11     -1.11      0.00
   14   12   12     -0.26      0.00
   14   12   13      1.21      0.00
   14   12   14      0.36      0.00
   14   12   15      0.14      0.00
   14   12   16     -0.23      0.00
   14   12   17     -0.46      0.00
   14   12   18      0.05      0.00
   14   12   19      1.04      0.00
   14   12   20     -0.43      0.00
  -14  -13    6      0.21      0.00
  -14  -13    5     -0.22      0.00
  -14  -13    4     -0.29      0.00
  -14  -13    3     -0.26      0.00
  -14  -13    2      2.70      0.00
  -14  -13    1     -2.42      0.00
   14   13    0      2.59      0.00
   14   13    1      0.87      0.00
   14   13    2      1.58      0.00
   14   13    3      0.18      0.00
   14   13    4      0.93      0.00
   14   13    5     -0.36      0.00
   14   13    6     -0.76      0.00
   14   13    7     -0.80      0.00
   14   13    8      0.88      0.00
   14   13    9     -0.35      0.00
   14   13   10      0.89      0.00
   14   13   11     -1.24      0.00
   14   13   12     -0.76      0.00
   14   13   13     -1.01      0.00
   14   13   14      0.89      0.00
   14   13   15      0.29      0.00
   14   13   16     -0.16      0.00
   14   13   17      0.62      0.00
   14   13   18      0.35      0.00
   14   13   19      1.15      0.00
  -14  -14    5     -0.80      0.00
  -14  -14    4     -1.34      0.00
  -14  -14    3     -2.25      0.00
  -14  -14    2      2.51      0.00
  -14  -14    1     -1.24      0.00
   14   14    0      0.19      0.00
   14   14    1     -0.74      0.00
   14   14    2      0.91      0.00
   14   14    3     -0.21      0.00
   14   14    4     -0.57      0.00
   14   14    5     -2.58      0.00
   14   14    6     -0.21      0.00
   14   14    7     -1.54      0.00
   14   14    8     -0.54      0.00
   14   14    9     -0.51      0.00
   14   14   10     -1.46      0.00
   14   14   11      0.13      0.00
   14   14   12     -1.53      0.00
   14   14   13     -1.19      0.00
   14   14   14     -0.01      0.00
   14   14   15      0.73      0.00
   14   14   17     -0.48      0.00
   14   14   18     -0.76      0.00
  -14  -15    3     -0.09      0.00
  -14  -15    2      0.34      0.00
   14   15    1     -0.10      0.00
   14   15    2     -0.10      0.00
   14   15    3      0.64      0.00
   14   15    4      0.03      0.00
   14   15    5     -1.29      0.00
   14   15    6      0.43      0.00
   14   15    7     -0.13      0.00
   14   15    8     -0.06      0.00
   14   15    9      0.87      0.00
   14   15   10      0.01      0.00
   14   15   11      0.73      0.00
   14   15   12      1.24      0.00
   14   15   13      0.11      0.00
   14   15   15     -0.50      0.00
   14   15   16     -0.01      0.00
   14   15   17      0.21      0.00
   14   15   18      0.03      0.00
   14   15   19     -0.39      0.00
  -14  -16    1     -0.40      0.00
   14   16    0      0.67      0.00
   14   16    1      0.96      0.00
   14   16    2      1.27      0.00
   14   16    3      0.35      0.00
   14   16    4     -0.60      0.00
   14   16    6     -0.69      0.00
   14   16    7     -1.29      0.00
   14   16    8     -0.47      0.00
   14   16    9     -0.84      0.00
   14   16   10      0.54      0.00
   14   16   11     -0.28      0.00
   14   16   13      0.26      0.00
   14   17    1      0.83      0.00
   14   17    2      1.15      0.00
   14   17    7     -0.68      0.00
   15  -14    4     -2.74      0.00
   15  -14    5      3.73      0.00
   15  -14    6     -2.90      0.00
   15  -13    5      0.76      0.00
   15  -13    6      1.27      0.00
   15  -13    7     -0.95      0.00
   15  -12    4      0.67      0.00
   15  -12    5     -0.34      0.00
   15  -12   13      0.61      0.00
  -15   11    1     -0.07      0.00
   15  -11    3     -0.97      0.00
   15  -11    4      3.42      0.00
   15  -11    5     -0.37      0.00
   15  -11    6      0.09      0.00
   15  -11    9     -1.78      0.00
   15  -11   10      0.50      0.00
   15  -11   13     -2.91      0.00
   15  -11   14     -0.47      0.00
  -15   10    4      0.80      0.00
  -15   10    0     -0.50      0.00
   15  -10    1     -1.34      0.00
   15  -10    3     -0.77      0.00
   15  -10    4      0.16      0.00
   15  -10    5      2.47      0.00
   15  -10    6     -0.61      0.00
   15  -10    7     -0.73      0.00
   15  -10    8      0.02      0.00
   15  -10    9      0.52      0.00
   15  -10   10     -0.58      0.00
   15  -10   11     -1.72      0.00
   15  -10   12     -0.62      0.00
   15  -10   13     -1.78      0.00
   15  -10   14     -0.76      0.00
   15  -10   15     -0.58      0.00
  -15    9    5     -0.03      0.00
  -15    9    1      1.02      0.00
  -15    9    0      0.38      0.00
   15   -9    1     -1.31      0.00
   15   -9    2     -0.52      0.00
   15   -9    3      0.82      0.00
   15   -9    4      2.12      0.00
   15   -9    6      3.37      0.00
   15   -9    7      0.87      0.00
   15   -9    8      0.18      0.00
   15   -9    9      0.40      0.00
   15   -9   10      0.37      0.00
   15   -9   11     -4.52      0.00
   15   -9   12      0.52      0.00
   15   -9   13     -0.12      0.00
   15   -9   14      0.78      0.00
   15   -9   15      0.49      0.00
   15   -9   16      0.87      0.00
  -15    8    5     -1.49      0.00
  -15    8    1      0.46      0.00
  -15    8    0     -1.54      0.00
   15   -8    1     -0.83      0.00
   15   -8    2     -0.99      0.00
   15   -8    3      0.88      0.00
   15   -8    4     -1.35      0.00
   15   -8    5     -1.09      0.00
   15   -8    6     -2.62      0.00
   15   -8    7     -0.26      0.00
   15   -8    8      0.38      0.00
   15   -8    9      0.61      0.00
   15   -8   10      1.38      0.00
   15   -8   11     -1.67      0.00
   15   -8   12      0.13      0.00
   15   -8   15      0.48      0.00
   15   -8   16     -3.46      0.00
   15   -8   17     -0.69      0.00
  -15    7    5      0.02      0.00
  -15    7    4      0.59      0.00
  -15    7    3      0.04      0.00
  -15    7    2      1.49      0.00
  -15    7    1      1.26      0.00
  -15    7    0     -1.14      0.00
   15   -7    1      1.57      0.00
   15   -7    2     -0.16      0.00
   15   -7    3     -0.89      0.00
   15   -7    4     -1.11      0.00
   15   -7    5     -1.43      0.00
   15   -7    6     -1.10      0.00
   15   -7    7     -0.16      0.00
   15   -7    8      0.40      0.00
   15   -7    9      1.40      0.00
   15   -7   10      0.06      0.00
   15   -7   11      2.24      0.00
   15   -7   12     -0.88      0.00
   15   -7   13     -0.88      0.00
   15   -7   14     -0.45      0.00
   15   -7   15     -1.68      0.00
   15   -7   16      0.21      0.00
   15   -7   17      0.16      0.00
   15   -7   18      1.19      0.00
  -15    6    5     -0.58      0.00
  -15    6    4      0.27      0.00
  -15    6    3     -0.40      0.00
  -15    6    2     -0.16      0.00
  -15    6    1      0.03      0.00
  -15    6    0      1.68      0.00
   15   -6    1     -0.45      0.00
   15   -6    2      0.39      0.00
   15   -6    3     -2.57      0.00
   15   -6    4      0.01      0.00
   15   -6    5      0.69      0.00
   15   -6    6      0.87      0.00
   15   -6    7      0.43      0.00
   15   -6    8     -1.75      0.00
   15   -6    9      1.69      0.00
   15   -6   10      0.31      0.00
   15   -6   11      0.28      0.00
   15   -6   12     -1.88      0.00
   15   -6   13     -1.82      0.00
   15   -6   14     -1.31      0.00
   15   -6   15     -0.53      0.00
   15   -6   16     -0.99      0.00
   15   -6   17      0.14      0.00
   15   -6   18     -0.13      0.00
  -15    5    6     -0.71      0.00
  -15    5    5      1.21      0.00
  -15    5    4      1.27      0.00
  -15    5    3      1.95      0.00
  -15    5    2     -0.36      0.00
  -15    5    1      0.17      0.00
  -15    5    0      1.81      0.00
   15   -5    1      0.81      0.00
   15   -5    2     -0.18      0.00
   15   -5    3     -1.22      0.00
   15   -5    4      0.80      0.00
   15   -5    5     -0.90      0.00
   15   -5    6     -2.44      0.00
   15   -5    7      1.04      0.00
   15   -5    8      0.82      0.00
   15   -5    9     -0.53      0.00
   15   -5   10     -1.23      0.00
   15   -5   11      0.29      0.00
   15   -5   12      0.48      0.00
   15   -5   13      1.11      0.00
   15   -5   14      0.34      0.00
   15   -5   15      0.14      0.00
   15   -5   16      0.46      0.00
   15   -5   17      0.94      0.00
   15   -5   18     -0.89      0.00
   15   -5   19      0.13      0.00
  -15    4    6     -0.15      0.00
  -15    4    5      0.08      0.00
  -15    4    4     -1.58      0.00
  -15    4    3     -0.22      0.00
  -15    4    2      1.30      0.00
  -15    4    1     -0.62      0.00
  -15    4    0      0.28      0.00
   15   -4    1      0.39      0.00
   15   -4    2      0.98      0.00
   15   -4    3     -0.71      0.00
   15   -4    4     -1.26      0.00
   15   -4    5      0.04      0.00
   15   -4    6      1.63      0.00
   15   -4    7     -0.48      0.00
   15   -4    8     -0.69      0.00
   15   -4    9      1.29      0.00
   15   -4   10     -2.34      0.00
   15   -4   11      0.95      0.00
   15   -4   12     -1.35      0.00
   15   -4   13     -1.52      0.00
   15   -4   14     -1.66      0.00
   15   -4   15      1.18      0.00
   15   -4   16      1.08      0.00
   15   -4   17      0.82      0.00
   15   -4   18      0.72      0.00
   15   -4   19     -0.56      0.00
  -15    3    7     -0.03      0.00
  -15    3    6     -0.79      0.00
  -15    3    5     -0.67      0.00
  -15    3    4      0.80      0.00
  -15    3    3      0.22      0.00
  -15    3    2     -1.64      0.00
  -15    3    1      0.81      0.00
  -15    3    0     -1.17      0.00
   15   -3    1     -0.74      0.00
   15   -3    2     -3.55      0.00
   15   -3    3      1.18      0.00
   15   -3    4      0.61      0.00
   15   -3    5      1.23      0.00
   15   -3    6      2.47      0.00
   15   -3    7      1.08      0.00
   15   -3    8     -0.07      0.00
   15   -3    9      1.68      0.00
   15   -3   10      0.81      0.00
   15   -3   11     -0.70      0.00
   15   -3   12     -1.27      0.00
   15   -3   13      0.54      0.00
   15   -3   14      0.14      0.00
   15   -3   15     -1.09      0.00
   15   -3   16     -0.20      0.00
   15   -3   17      0.67      0.00
   15   -3   18      1.01      0.00
   15   -3   19      0.84      0.00
   15   -3   20      0.39      0.00
  -15    2    7      0.21      0.00
  -15    2    6     -0.47      0.00
  -15    2    5      1.63      0.00
  -15    2    4     -0.24      0.00
  -15    2    3      2.05      0.00
  -15    2    2     -0.41      0.00
  -15    2    1     -0.19      0.00
  -15    2    0      1.43      0.00
   15   -2    1      0.97      0.00
   15   -2    2      0.05      0.00
   15   -2    3     -1.42      0.00
   15   -2    4     -0.22      0.00
   15   -2    5     -0.10      0.00
   15   -2    6      0.30      0.00
   15   -2    7      1.00      0.00
   15   -2    8      1.18      0.00
   15   -2    9     -1.10      0.00
   15   -2   10     -0.10      0.00
   15   -2   11      0.83      0.00
   15   -2   12      0.69      0.00
   15   -2   13     -1.01      0.00
   15   -2   14      0.60      0.00
   15   -2   15     -0.67      0.00
   15   -2   16     -1.22      0.00
   15   -2   17     -2.78      0.00
   15   -2   18      0.76      0.00
   15   -2   19     -1.39      0.00
   15   -2   20     -0.70      0.00
  -15    1    7      0.80      0.00
  -15    1    6      1.09      0.00
  -15    1    5      0.17      0.00
  -15    1    4      0.67      0.00
  -15    1    3     -2.89      0.00
  -15    1    2     -0.20      0.00
  -15    1    1     -0.09      0.00
  -15    1    0     -0.45      0.00
   15   -1    1     -1.12      0.00
   15   -1    2     -0.62      0.00
   15   -1    3      0.04      0.00
   15   -1    4      0.11      0.00
   15   -1    5      1.28      0.00
   15   -1    6      0.01      0.00
   15   -1    7     -1.94      0.00
   15   -1    8     -0.31      0.00
   15   -1    9     -1.89      0.00
   15   -1   10     -2.03      0.00
   15   -1   11     -1.31      0.00
   15   -1   12     -0.13      0.00
   15   -1   13      0.59      0.00
   15   -1   14      0.29      0.00
   15   -1   15     -0.03      0.00
   15   -1   16      0.64      0.00
   15   -1   17      0.72      0.00
   15   -1   18     -1.44      0.00
   15   -1   19      2.16      0.00
   15   -1   20     -1.96      0.00
  -15    0    8     -0.18      0.00
  -15    0    7      0.83      0.00
  -15    0    6      3.22      0.00
  -15    0    5      2.79      0.00
  -15    0    4      0.33      0.00
  -15    0    3      0.08      0.00
  -15    0    2     -1.00      0.00
  -15    0    1     -0.92      0.00
   15    0    0     -0.84      0.00
   15    0    1      0.18      0.00
   15    0    2      0.34      0.00
   15    0    3      1.07      0.00
   15    0    4     -0.32      0.00
   15    0    5      1.76      0.00
   15    0    6     -0.07      0.00
   15    0    7     -1.50      0.00
   15    0    8     -1.82      0.00
   15    0    9     -1.47      0.00
   15    0   10     -0.47      0.00
   15    0   11      0.92      0.00
   15    0   12     -1.63      0.00
   15    0   13      0.35      0.00
   15    0   14     -1.63      0.00
   15    0   15     -1.55      0.00
   15    0   16     -0.26      0.00
   15    0   17      0.98      0.00
   15    0   18      0.89      0.00
   15    0   19     -2.28      0.00
   15    0   20      0.64      0.00
  -15   -1    8      0.59      0.00
  -15   -1    7      0.51      0.00
  -15   -1    6      0.17      0.00
  -15   -1    5      0.58      0.00
  -15   -1    4      0.01      0.00
  -15   -1    3      1.51      0.00
  -15   -1    2      0.09      0.00
  -15   -1    1      2.11      0.00
   15    1    0      0.82      0.00
   15    1    1      1.06      0.00
   15    1    2     -0.08      0.00
   15    1    3      1.19      0.00
   15    1    4     -1.16      0.00
   15    1    5     -0.03      0.00
   15    1    6     -0.66      0.00
   15    1    7      2.25      0.00
   15    1    8     -1.08      0.00
   15    1    9      1.21      0.00
   15    1   10      1.71      0.00
   15    1   11     -2.18      0.00
   15    1   12     -0.93      0.00
   15    1   13     -1.49      0.00
   15    1   14     -3.30      0.00
   15    1   15     -0.09      0.00
   15    1   16     -0.99      0.00
   15    1   17     -0.97      0.00
   15    1   18     -0.52      0.00
   15    1   19     -0.51      0.00
   15    1   20      0.88      0.00
   15    1   21      0.92      0.00
  -15   -2    8      0.32      0.00
  -15   -2    7     -0.58      0.00
  -15   -2    6     -0.47      0.00
  -15   -2    5     -1.53      0.00
  -15   -2    4     -2.70      0.00
  -15   -2    3     -0.46      0.00
  -15   -2    2     -1.74      0.00
  -15   -2    1     -0.34      0.00
   15    2    0      0.29      0.00
   15    2    1      0.73      0.00
   15    2    2      0.97      0.00
   15    2    3     -1.05      0.00
   15    2    4      0.02      0.00
   15    2    5      0.45      0.00
   15    2    6     -0.55      0.00
   15    2    7      0.38      0.00
   15    2    8     -1.17      0.00
   15    2    9     -0.72      0.00
   15    2   10     -1.27      0.00
   15    2   11      0.11      0.00
   15    2   12      0.97      0.00
   15    2   13      0.15      0.00
   15    2   14      1.21      0.00
   15    2   15     -0.05      0.00
   15    2   16      0.86      0.00
   15    2   17      0.26      0.00
   15    2   18      0.26      0.00
   15    2   19      1.57      0.00
   15    2   20      1.39      0.00
   15    2   21      1.02      0.00
  -15   -3    8      1.38      0.00
  -15   -3    7     -0.57      0.00
  -15   -3    6     -1.47      0.00
  -15   -3    5     -0.50      0.00
  -15   -3    4     -0.22      0.00
  -15   -3    3      0.69      0.00
  -15   -3    2     -0.72      0.00
  -15   -3    1      2.06      0.00
   15    3    0      0.14      0.00
   15    3    1      0.85      0.00
   15    3    2      0.26      0.00
   15    3    3      0.44      0.00
   15    3    4      0.42      0.00
   15    3    5      0.89      0.00
   15    3    6      0.06      0.00
   15    3    7     -0.60      0.00
   15    3    8     -1.98      0.00
   15    3    9     -0.07      0.00
   15    3   10     -1.36      0.00
   15    3   11     -1.00      0.00
   15    3   12      1.36      0.00
   15    3   13     -0.05      0.00
   15    3   14     -0.51      0.00
   15    3   15      1.25      0.00
   15    3   16     -0.43      0.00
   15    3   17     -0.76      0.00
   15    3   18      1.35      0.00
   15    3   19      0.04      0.00
   15    3   20      1.58      0.00
   15    3   21      0.95      0.00
  -15   -4    7     -0.61      0.00
  -15   -4    6      0.26      0.00
  -15   -4    5      0.21      0.00
  -15   -4    4     -0.59      0.00
  -15   -4    3     -0.75      0.00
  -15   -4    2      0.83      0.00
  -15   -4    1     -0.03      0.00
   15    4    0     -0.54      0.00
   15    4    1     -1.97      0.00
   15    4    2     -1.83      0.00
   15    4    3     -0.83      0.00
   15    4    4     -0.95      0.00
   15    4    5      0.84      0.00
   15    4    6     -0.35      0.00
   15    4    7     -0.29      0.00
   15    4    8      1.21      0.00
   15    4    9     -0.80      0.00
   15    4   10      0.34      0.00
   15    4   11     -0.22      0.00
   15    4   12      2.09      0.00
   15    4   13      0.84      0.00
   15    4   14      1.33      0.00
   15    4   15      0.42      0.00
   15    4   16      1.06      0.00
   15    4   17      0.02      0.00
   15    4   18      1.20      0.00
   15    4   19     -1.22      0.00
   15    4   20     -0.16      0.00
   15    4   21     -0.38      0.00
  -15   -5    7     -0.66      0.00
  -15   -5    6      0.70      0.00
  -15   -5    5     -1.02      0.00
  -15   -5    4      0.55      0.00
  -15   -5    3      1.39      0.00
  -15   -5    2     -0.99      0.00
  -15   -5    1      0.21      0.00
   15    5    0     -0.33      0.00
   15    5    1     -2.43      0.00
   15    5    2     -0.91      0.00
   15    5    3     -0.34      0.00
   15    5    4      0.57      0.00
   15    5    5     -0.24      0.00
   15    5    6      0.86      0.00
   15    5    7     -1.75      0.00
   15    5    8     -0.22      0.00
   15    5    9      0.30      0.00
   15    5   10      0.22      0.00
   15    5   11      0.34      0.00
   15    5   12      1.53      0.00
   15    5   13      1.82      0.00
   15    5   14      1.61      0.00
   15    5   15     -0.62      0.00
   15    5   16     -0.65      0.00
   15    5   17     -1.13      0.00
   15    5   18      0.55      0.00
   15    5   19     -0.44      0.00
   15    5   20      0.23      0.00
   15    5   21      0.12      0.00
  -15   -6    7      0.76      0.00
  -15   -6    6      0.22      0.00
  -15   -6    5      0.31      0.00
  -15   -6    4     -0.38      0.00
  -15   -6    3      0.02      0.00
  -15   -6    2     -0.48      0.00
  -15   -6    1     -1.35      0.00
   15    6    0     -0.65      0.00
   15    6    1      0.85      0.00
   15    6    2      0.25      0.00
   15    6    3      0.41      0.00
   15    6    4      0.76      0.00
   15    6    5      0.06      0.00
   15    6    6     -0.86      0.00
   15    6    7      1.38      0.00
   15    6    8      0.25      0.00
   15    6    9     -0.15      0.00
   15    6   10      0.95      0.00
   15    6   11      1.37      0.00
   15    6   12      0.49      0.00
   15    6   13     -0.54      0.00
   15    6   14      1.36      0.00
   15    6   15      0.88      0.00
   15    6   16      0.47      0.00
   15    6   17     -2.18      0.00
   15    6   18      1.53      0.00
   15    6   19      1.92      0.00
   15    6   20      1.61      0.00
   15    6   21      0.44      0.00
  -15   -7    7      0.25      0.00
  -15   -7    6      1.24      0.00
  -15   -7    5     -0.23      0.00
  -15   -7    4      0.81      0.00
  -15   -7    3     -1.26      0.00
  -15   -7    2      0.12      0.00
  -15   -7    1     -0.69      0.00
   15    7    0     -0.51      0.00
   15    7    1     -0.38      0.00
   15    7    2      0.97      0.00
   15    7    3      0.67      0.00
   15    7    4      0.32      0.00
   15    7    5      1.14      0.00
   15    7    6      1.56      0.00
   15    7    7      0.31      0.00
   15    7    8      0.21      0.00
   15    7    9      0.73      0.00
   15    7   10      0.40      0.00
   15    7   11     -0.40      0.00
   15    7   12     -2.01      0.00
   15    7   13     -0.54      0.00
   15    7   14     -2.20      0.00
   15    7   15     -1.40      0.00
   15    7   16     -0.67      0.00
   15    7   17      0.98      0.00
   15    7   18      0.20      0.00
   15    7   19      0.27      0.00
   15    7   20      0.07      0.00
  -15   -8    7     -0.27      0.00
  -15   -8    6     -0.50      0.00
  -15   -8    5     -1.21      0.00
  -15   -8    4     -0.47      0.00
  -15   -8    3     -0.36      0.00
  -15   -8    2     -0.44      0.00
  -15   -8    1      0.32      0.00
   15    8    0      1.83      0.00
   15    8    1      0.37      0.00
   15    8    2      0.02      0.00
   15    8    3      0.88      0.00
   15    8    4     -0.61      0.00
   15    8    5      0.35      0.00
   15    8    6     -1.36      0.00
   15    8    7      2.38      0.00
   15    8    8     -0.46      0.00
   15    8    9     -0.34      0.00
   15    8   10     -0.87      0.00
   15    8   11      1.65      0.00
   15    8   12      0.00      0.00
   15    8   13     -0.13      0.00
   15    8   14     -0.06      0.00
   15    8   15     -0.10      0.00
   15    8   16     -1.50      0.00
   15    8   17     -0.90      0.00
   15    8   18     -0.28      0.00
   15    8   19      0.04      0.00
  -15   -9    8      0.43      0.00
  -15   -9    7      0.56      0.00
  -15   -9    6      1.27      0.00
  -15   -9    5     -0.50      0.00
  -15   -9    4      0.88      0.00
  -15   -9    3     -0.65      0.00
  -15   -9    2      2.37      0.00
  -15   -9    1     -0.08      0.00
   15    9    0     -0.15      0.00
   15    9    1      1.28      0.00
   15    9    2      0.21      0.00
   15    9    3      0.62      0.00
   15    9    4     -0.56      0.00
   15    9    5     -0.46      0.00
   15    9    6     -0.27      0.00
   15    9    7     -0.61      0.00
   15    9    8      0.31      0.00
   15    9    9      1.60      0.00
   15    9   10      0.27      0.00
   15    9   11     -0.40      0.00
   15    9   12     -0.02      0.00
   15    9   13      1.32      0.00
   15    9   14      1.09      0.00
   15    9   15      0.96      0.00
   15    9   16      1.20      0.00
   15    9   17      0.09      0.00
   15    9   18     -0.83      0.00
   15    9   19      0.62      0.00
   15    9   21      0.71      0.00
   15    9   22     -0.67      0.00
  -15  -10    6     -0.33      0.00
  -15  -10    5     -2.15      0.00
  -15  -10    4     -1.45      0.00
  -15  -10    3     -0.51      0.00
  -15  -10    2     -1.79      0.00
  -15  -10    1     -0.05      0.00
   15   10    0     -1.63      0.00
   15   10    1     -1.81      0.00
   15   10    2      0.42      0.00
   15   10    3     -0.48      0.00
   15   10    4     -0.46      0.00
   15   10    5      0.30      0.00
   15   10    6      0.20      0.00
   15   10    7      1.45      0.00
   15   10    8      0.11      0.00
   15   10    9     -1.64      0.00
   15   10   10      0.70      0.00
   15   10   11     -0.01      0.00
   15   10   12      0.56      0.00
   15   10   13      0.41      0.00
   15   10   14      0.49      0.00
   15   10   15     -3.41      0.00
   15   10   16     -0.49      0.00
   15   10   17     -1.89      0.00
   15   10   18     -1.43      0.00
   15   10   19     -1.81      0.00
   15   10   21     -0.48      0.00
   15   10   22      0.02      0.00
  -15  -11    7      0.65      0.00
  -15  -11    4      1.91      0.00
  -15  -11    3      1.87      0.00
  -15  -11    2     -2.00      0.00
  -15  -11    1     -1.50      0.00
   15   11    0      0.76      0.00
   15   11    1      0.27      0.00
   15   11    2     -0.07      0.00
   15   11    3      0.19      0.00
   15   11    4      1.38      0.00
   15   11    5      1.43      0.00
   15   11    6      0.43      0.00
   15   11    7      0.22      0.00
   15   11    8      0.60      0.00
   15   11    9      0.27      0.00
   15   11   10     -1.58      0.00
   15   11   11      0.15      0.00
   15   11   12     -0.22      0.00
   15   11   13     -1.29      0.00
   15   11   14     -1.37      0.00
   15   11   15      0.34      0.00
   15   11   16     -0.59      0.00
   15   11   17      0.20      0.00
   15   11   18     -0.96      0.00
   15   11   19     -0.80      0.00
   15   11   20     -0.35      0.00
   15   11   21     -1.12      0.00
  -15  -12    6      1.62      0.00
  -15  -12    3      0.12      0.00
  -15  -12    2     -2.24      0.00
  -15  -12    1      3.32      0.00
   15   12    0      0.41      0.00
   15   12    1      3.70      0.00
   15   12    2     -0.50      0.00
   15   12    3      0.51      0.00
   15   12    4     -0.53      0.00
   15   12    5      1.22      0.00
   15   12    6      0.35      0.00
   15   12    7      0.14      0.00
   15   12    8     -1.03      0.00
   15   12    9      0.33      0.00
   15   12   10      0.22      0.00
   15   12   11     -1.34      0.00
   15   12   12     -0.04      0.00
   15   12   13      0.72      0.00
   15   12   14     -0.14      0.00
   15   12   15     -1.20      0.00
   15   12   16      0.86      0.00
   15   12   17     -2.28      0.00
   15   12   18      1.59      0.00
   15   12   19     -0.16      0.00
   15   12   20     -0.32      0.00
  -15  -13    5      1.14      0.00
  -15  -13    2      0.72      0.00
   15   13    0     -1.04      0.00
   15   13    1      0.83      0.00
   15   13    2      2.69      0.00
   15   13    3     -0.28      0.00
   15   13    4      0.53      0.00
   15   13    5      0.88      0.00
   15   13    6     -0.82      0.00
   15   13    7      0.91      0.00
   15   13    8      1.08      0.00
   15   13    9      0.14      0.00
   15   13   10      1.22      0.00
   15   13   11     -0.50      0.00
   15   13   12     -0.03      0.00
   15   13   13      0.20      0.00
   15   13   15     -0.95      0.00
   15   13   16     -1.17      0.00
   15   13   17     -0.81      0.00
   15   13   18     -0.67      0.00
   15   13   19      0.66      0.00
  -15  -14    4     -0.66      0.00
  -15  -14    1      1.86      0.00
   15   14    1     -0.72      0.00
   15   14    2     -0.30      0.00
   15   14    3     -0.46      0.00
   15   14    4     -0.40      0.00
   15   14    5     -1.11      0.00
   15   14    6     -0.78      0.00
   15   14    7     -1.00      0.00
   15   14    8     -1.30      0.00
   15   14    9      0.90      0.00
   15   14   10     -1.70      0.00
   15   14   11      0.69      0.00
   15   14   12     -1.84      0.00
   15   14   14     -1.66      0.00
   15   14   15      1.80      0.00
   15   14   16     -0.19      0.00
   15   14   17     -1.39      0.00
   15   14   18     -0.94      0.00
   15   14   19     -2.25      0.00
  -15  -15    3     -0.25      0.00
  -15  -15    2     -0.32      0.00
   15   15    1      0.75      0.00
   15   15    2     -0.36      0.00
   15   15    4      0.61      0.00
   15   15    5     -0.44      0.00
   15   15    6     -0.97      0.00
   15   15    7      1.70      0.00
   15   15    8     -0.17      0.00
   15   15    9      0.37      0.00
   15   15   10     -0.43      0.00
   15   15   11     -1.03      0.00
   15   15   12      1.52      0.00
   15   15   13     -0.76      0.00
   15   15   14     -1.01      0.00
   15   15   17      0.19      0.00
   15   15   18     -0.82      0.00
   15   15   19      0.39      0.00
   15   16    0     -0.30      0.00
   15   16    1      0.65      0.00
   15   16    2      0.61      0.00
   15   16    4     -0.81      0.00
   15   16    6      0.40      0.00
   15   16    7     -0.74      0.00
   15   16    8     -0.59      0.00
   15   16    9     -1.44      0.00
   15   16   10      1.33      0.00
   15   16   14      0.56      0.00
   15   17    0      1.97      0.00
   15   17    1     -0.20      0.00
   15   17    7     -1.36      0.00
   15   17    8     -0.96      0.00
   16  -11    4      1.06      0.00
   16  -11    6     -1.56      0.00
   16  -10    3      0.25      0.00
   16  -10    4      0.21      0.00
   16  -10    5      0.55      0.00
   16  -10    6     -0.88      0.00
   16  -10    7     -0.33      0.00
   16  -10    9      1.66      0.00
   16  -10   10     -1.40      0.00
   16  -10   11      2.12      0.00
   16  -10   13      0.14      0.00
  -16    9    0      1.71      0.00
   16   -9    1     -0.42      0.00
   16   -9    2      0.06      0.00
   16   -9    3     -1.25      0.00
   16   -9    4      0.62      0.00
   16   -9    6      4.26      0.00
   16   -9    7      0.69      0.00
   16   -9    8     -0.29      0.00
   16   -9    9      1.31      0.00
   16   -9   10     -0.50      0.00
   16   -9   11     -0.78      0.00
   16   -9   12     -1.43      0.00
   16   -9   13     -0.05      0.00
   16   -9   14     -1.03      0.00
  -16    8    0      0.29      0.00
   16   -8    1     -0.46      0.00
   16   -8    3      0.60      0.00
   16   -8    4      0.48      0.00
   16   -8    5      0.07      0.00
   16   -8    7     -0.75      0.00
   16   -8    8     -0.53      0.00
   16   -8    9      1.28      0.00
   16   -8   10      3.07      0.00
   16   -8   11     -1.01      0.00
   16   -8   12     -2.27      0.00
   16   -8   13      0.45      0.00
   16   -8   14     -0.41      0.00
  -16    7    3      0.16      0.00
  -16    7    2      0.15      0.00
  -16    7    1      0.83      0.00
  -16    7    0      0.01      0.00
   16   -7    1      0.16      0.00
   16   -7    2     -0.35      0.00
   16   -7    3      1.83      0.00
   16   -7    4      0.27      0.00
   16   -7    5     -0.76      0.00
   16   -7    6     -2.08      0.00
   16   -7    7     -0.51      0.00
   16   -7    8      1.35      0.00
   16   -7    9      1.82      0.00
   16   -7   10     -0.26      0.00
   16   -7   11      1.68      0.00
   16   -7   12     -0.87      0.00
   16   -7   13      0.48      0.00
  -16    6    3     -1.68      0.00
  -16    6    2      0.00      0.00
  -16    6    1      0.28      0.00
  -16    6    0     -0.69      0.00
   16   -6    1     -0.59      0.00
   16   -6    2      0.06      0.00
   16   -6    3     -0.52      0.00
   16   -6    4     -1.72      0.00
   16   -6    5     -0.12      0.00
   16   -6    6     -0.36      0.00
   16   -6    7     -0.45      0.00
   16   -6    8     -1.36      0.00
   16   -6    9     -0.81      0.00
   16   -6   10      0.80      0.00
   16   -6   11     -0.65      0.00
   16   -6   12      0.86      0.00
   16   -6   13     -2.87      0.00
   16   -6   14     -0.52      0.00
   16   -6   15     -0.40      0.00
   16   -6   16     -1.30      0.00
   16   -6   17      0.37      0.00
  -16    5    4      1.97      0.00
  -16    5    3      2.14      0.00
  -16    5    2     -0.81      0.00
  -16    5    1      0.94      0.00
  -16    5    0      1.21      0.00
   16   -5    1      3.29      0.00
   16   -5    2     -0.07      0.00
   16   -5    3     -0.57      0.00
   16   -5    4     -0.99      0.00
   16   -5    5     -0.52      0.00
   16   -5    6     -1.15      0.00
   16   -5    7     -0.91      0.00
   16   -5    8      1.72      0.00
   16   -5    9     -1.00      0.00
   16   -5   10      1.61      0.00
   16   -5   11     -1.46      0.00
   16   -5   12     -0.36      0.00
   16   -5   13      0.59      0.00
   16   -5   14      1.32      0.00
   16   -5   15     -0.75      0.00
   16   -5   16      0.56      0.00
   16   -5   18     -0.75      0.00
  -16    4    4     -0.40      0.00
  -16    4    3     -1.36      0.00
  -16    4    2      3.44      0.00
  -16    4    1     -1.19      0.00
  -16    4    0      0.24      0.00
   16   -4    1      1.32      0.00
   16   -4    2      0.76      0.00
   16   -4    3     -0.73      0.00
   16   -4    4     -1.53      0.00
   16   -4    5     -0.36      0.00
   16   -4    6     -0.70      0.00
   16   -4    7     -1.14      0.00
   16   -4    8      0.75      0.00
   16   -4    9     -0.52      0.00
   16   -4   10     -1.56      0.00
   16   -4   11     -1.03      0.00
   16   -4   12     -0.45      0.00
   16   -4   13     -1.46      0.00
   16   -4   14     -0.91      0.00
   16   -4   15      0.29      0.00
   16   -4   16     -0.61      0.00
   16   -4   17      1.56      0.00
   16   -4   18      0.28      0.00
   16   -4   19     -0.77      0.00
  -16    3    5     -1.64      0.00
  -16    3    4      1.46      0.00
  -16    3    3     -1.11      0.00
  -16    3    2     -2.19      0.00
  -16    3    1      1.33      0.00
  -16    3    0     -1.37      0.00
   16   -3    1     -1.04      0.00
   16   -3    2     -2.20      0.00
   16   -3    3     -0.67      0.00
   16   -3    4      0.16      0.00
   16   -3    5      0.72      0.00
   16   -3    6      1.39      0.00
   16   -3    7      2.04      0.00
   16   -3    8     -0.05      0.00
   16   -3    9      1.28      0.00
   16   -3   10      1.75      0.00
   16   -3   11     -0.46      0.00
   16   -3   12     -0.65      0.00
   16   -3   13      0.71      0.00
   16   -3   14     -1.54      0.00
   16   -3   15     -0.58      0.00
   16   -3   16      0.06      0.00
   16   -3   17     -0.23      0.00
   16   -3   18      0.19      0.00
   16   -3   19      1.53      0.00
   16   -3   20      0.15      0.00
  -16    2    4     -1.74      0.00
  -16    2    3      2.16      0.00
  -16    2    2      0.36      0.00
  -16    2    1     -2.04      0.00
  -16    2    0      1.07      0.00
   16   -2    1      1.21      0.00
   16   -2    2     -0.23      0.00
   16   -2    3     -1.05      0.00
   16   -2    4      0.71      0.00
   16   -2    5      0.34      0.00
   16   -2    6     -0.62      0.00
   16   -2    7      2.08      0.00
   16   -2    8     -0.78      0.00
   16   -2    9     -0.55      0.00
   16   -2   10      0.25      0.00
   16   -2   11      0.21      0.00
   16   -2   12      0.34      0.00
   16   -2   13     -2.38      0.00
   16   -2   14      0.57      0.00
   16   -2   15     -1.54      0.00
   16   -2   16     -1.63      0.00
   16   -2   17     -1.08      0.00
   16   -2   18     -0.90      0.00
   16   -2   19     -1.90      0.00
   16   -2   20     -0.12      0.00
  -16    1    6     -1.04      0.00
  -16    1    5     -0.02      0.00
  -16    1    4      1.21      0.00
  -16    1    3     -2.64      0.00
  -16    1    2     -0.27      0.00
  -16    1    1      0.00      0.00
  -16    1    0      0.13      0.00
   16   -1    1     -0.13      0.00
   16   -1    2      0.41      0.00
   16   -1    3      0.81      0.00
   16   -1    4      0.48      0.00
   16   -1    5      0.82      0.00
   16   -1    6      0.60      0.00
   16   -1    7     -2.66      0.00
   16   -1    8      0.96      0.00
   16   -1    9     -0.55      0.00
   16   -1   10     -1.64      0.00
   16   -1   11     -0.94      0.00
   16   -1   12      1.94      0.00
   16   -1   13      0.26      0.00
   16   -1   14      1.88      0.00
   16   -1   15      2.00      0.00
   16   -1   16      2.05      0.00
   16   -1   17     -0.02      0.00
   16   -1   18     -0.84      0.00
   16   -1   19      1.90      0.00
   16   -1   20     -1.92      0.00
  -16    0    6      3.35      0.00
  -16    0    5      2.29      0.00
  -16    0    4      0.98      0.00
  -16    0    3     -0.95      0.00
  -16    0    2     -0.47      0.00
  -16    0    1     -1.48      0.00
   16    0    0      1.03      0.00
   16    0    1      0.64      0.00
   16    0    2      0.08      0.00
   16    0    3      1.96      0.00
   16    0    4      0.70      0.00
   16    0    5      0.97      0.00
   16    0    6      0.98      0.00
   16    0    7     -0.63      0.00
   16    0    8     -1.10      0.00
   16    0    9     -0.90      0.00
   16    0   10      0.40      0.00
   16    0   11      0.93      0.00
   16    0   12     -0.15      0.00
   16    0   13      0.78      0.00
   16    0   14     -0.67      0.00
   16    0   15     -1.92      0.00
   16    0   16     -0.28      0.00
   16    0   17      0.95      0.00
   16    0   18      0.66      0.00
   16    0   19     -1.09      0.00
   16    0   20      0.88      0.00
  -16   -1    6     -0.57      0.00
  -16   -1    5     -0.22      0.00
  -16   -1    4      0.81      0.00
  -16   -1    3      0.80      0.00
  -16   -1    2      2.03      0.00
  -16   -1    1      1.44      0.00
   16    1    0      1.63      0.00
   16    1    1     -0.88      0.00
   16    1    2     -0.22      0.00
   16    1    3     -1.03      0.00
   16    1    4     -1.18      0.00
   16    1    5      1.14      0.00
   16    1    6      0.11      0.00
   16    1    7      1.06      0.00
   16    1    8      1.07      0.00
   16    1    9     -0.27      0.00
   16    1   10      1.94      0.00
   16    1   11      0.70      0.00
   16    1   12     -0.60      0.00
   16    1   13     -1.44      0.00
   16    1   14      0.01      0.00
   16    1   15     -0.66      0.00
   16    1   16     -0.45      0.00
   16    1   17     -0.08      0.00
   16    1   18      0.58      0.00
   16    1   19     -0.92      0.00
   16    1   20      0.29      0.00
  -16   -2    7     -0.08      0.00
  -16   -2    6      0.12      0.00
  -16   -2    5     -0.95      0.00
  -16   -2    4     -0.88      0.00
  -16   -2    3     -2.72      0.00
  -16   -2    2     -0.48      0.00
  -16   -2    1     -3.69      0.00
   16    2    0      0.72      0.00
   16    2    1     -0.77      0.00
   16    2    2      0.07      0.00
   16    2    3     -1.27      0.00
   16    2    4      0.32      0.00
   16    2    5     -1.18      0.00
   16    2    6      1.03      0.00
   16    2    7     -1.13      0.00
   16    2    8     -0.11      0.00
   16    2    9     -2.03      0.00
   16    2   10      0.50      0.00
   16    2   11      0.81      0.00
   16    2   12     -0.24      0.00
   16    2   13      1.05      0.00
   16    2   14      0.99      0.00
   16    2   15     -0.91      0.00
   16    2   16      0.92      0.00
   16    2   17     -0.44      0.00
   16    2   18     -1.43      0.00
   16    2   19      0.54      0.00
   16    2   20      0.63      0.00
  -16   -3    6     -1.35      0.00
  -16   -3    5     -1.09      0.00
  -16   -3    4      0.23      0.00
  -16   -3    3     -1.46      0.00
  -16   -3    2      1.25      0.00
  -16   -3    1      1.17      0.00
   16    3    0      0.11      0.00
   16    3    1      0.47      0.00
   16    3    2     -0.01      0.00
   16    3    3     -0.54      0.00
   16    3    4      1.04      0.00
   16    3    5      2.13      0.00
   16    3    6     -0.37      0.00
   16    3    7     -0.49      0.00
   16    3    8     -1.98      0.00
   16    3    9     -0.65      0.00
   16    3   10     -1.27      0.00
   16    3   11     -0.97      0.00
   16    3   12     -0.30      0.00
   16    3   13      0.66      0.00
   16    3   14     -0.01      0.00
   16    3   15      1.55      0.00
   16    3   16     -1.22      0.00
   16    3   17     -0.50      0.00
   16    3   18     -0.49      0.00
   16    3   19      0.39      0.00
   16    3   20      0.96      0.00
  -16   -4    6      0.04      0.00
  -16   -4    5     -0.02      0.00
  -16   -4    4      0.79      0.00
  -16   -4    3     -1.25      0.00
  -16   -4    2      0.52      0.00
  -16   -4    1     -0.44      0.00
   16    4    0      0.46      0.00
   16    4    1     -1.45      0.00
   16    4    2     -1.23      0.00
   16    4    3     -0.57      0.00
   16    4    4     -0.33      0.00
   16    4    5      1.02      0.00
   16    4    6      0.61      0.00
   16    4    7     -0.85      0.00
   16    4    8     -0.94      0.00
   16    4    9     -0.74      0.00
   16    4   10     -0.46      0.00
   16    4   11     -0.62      0.00
   16    4   12      1.22      0.00
   16    4   13      0.70      0.00
   16    4   14      0.45      0.00
   16    4   15      0.04      0.00
   16    4   16      0.22      0.00
   16    4   17      1.31      0.00
   16    4   18     -0.12      0.00
   16    4   19      1.50      0.00
   16    4   20     -0.16      0.00
  -16   -5    6      1.17      0.00
  -16   -5    5      0.31      0.00
  -16   -5    4      0.48      0.00
  -16   -5    3      0.36      0.00
  -16   -5    2      0.16      0.00
  -16   -5    1      0.57      0.00
   16    5    0     -1.41      0.00
   16    5    1     -2.24      0.00
   16    5    2     -0.96      0.00
   16    5    3     -1.52      0.00
   16    5    4      1.19      0.00
   16    5    5     -1.76      0.00
   16    5    6      1.09      0.00
   16    5    7     -0.64      0.00
   16    5    8     -0.11      0.00
   16    5    9     -0.12      0.00
   16    5   10     -0.31      0.00
   16    5   11     -0.77      0.00
   16    5   12      1.98      0.00
   16    5   13      1.45      0.00
   16    5   14      0.83      0.00
   16    5   15     -0.43      0.00
   16    5   16     -1.40      0.00
   16    5   17      1.15      0.00
   16    5   18     -0.66      0.00
   16    5   19     -0.24      0.00
  -16   -6    6     -1.24      0.00
  -16   -6    5     -0.10      0.00
  -16   -6    4     -1.40      0.00
  -16   -6    3     -0.28      0.00
  -16   -6    2     -0.94      0.00
  -16   -6    1     -2.18      0.00
   16    6    0     -1.42      0.00
   16    6    1      0.08      0.00
   16    6    2     -0.39      0.00
   16    6    3     -0.01      0.00
   16    6    4      0.46      0.00
   16    6    5     -0.73      0.00
   16    6    6      0.27      0.00
   16    6    7      0.44      0.00
   16    6    8      1.63      0.00
   16    6    9      0.56      0.00
   16    6   10      0.95      0.00
   16    6   11      1.94      0.00
   16    6   12      1.01      0.00
   16    6   13      0.52      0.00
   16    6   14      1.23      0.00
   16    6   15      1.35      0.00
   16    6   16      0.09      0.00
   16    6   17     -1.20      0.00
   16    6   18     -0.26      0.00
  -16   -7    6      0.03      0.00
  -16   -7    5      0.38      0.00
  -16   -7    4      0.11      0.00
  -16   -7    3     -1.72      0.00
  -16   -7    2     -0.70      0.00
  -16   -7    1     -1.24      0.00
   16    7    0     -0.81      0.00
   16    7    1     -0.16      0.00
   16    7    2      1.00      0.00
   16    7    3     -0.44      0.00
   16    7    4     -0.09      0.00
   16    7    5      0.07      0.00
   16    7    6      2.25      0.00
   16    7    7     -0.48      0.00
   16    7    8      1.57      0.00
   16    7    9      0.24      0.00
   16    7   10     -0.13      0.00
   16    7   11     -0.59      0.00
   16    7   12     -0.27      0.00
   16    7   13     -1.87      0.00
   16    7   14     -1.65      0.00
   16    7   15     -0.27      0.00
   16    7   16     -0.66      0.00
   16    7   17      0.71      0.00
   16    7   18     -0.24      0.00
   16    7   19      0.17      0.00
  -16   -8    6     -0.18      0.00
  -16   -8    5     -0.18      0.00
  -16   -8    4     -1.60      0.00
  -16   -8    3      0.50      0.00
  -16   -8    2     -0.45      0.00
  -16   -8    1      1.31      0.00
   16    8    0      0.89      0.00
   16    8    1      1.28      0.00
   16    8    2      0.23      0.00
   16    8    3      0.00      0.00
   16    8    4      0.22      0.00
   16    8    5     -0.48      0.00
   16    8    6     -0.60      0.00
   16    8    7      0.93      0.00
   16    8    8      0.12      0.00
   16    8    9     -1.11      0.00
   16    8   10     -0.34      0.00
   16    8   11      0.06      0.00
   16    8   12      0.99      0.00
   16    8   13      0.49      0.00
   16    8   14     -0.28      0.00
   16    8   15     -0.63      0.00
   16    8   16     -1.64      0.00
   16    8   17     -1.66      0.00
   16    8   18     -0.78      0.00
  -16   -9    5      1.14      0.00
  -16   -9    4      1.39      0.00
  -16   -9    3      0.31      0.00
  -16   -9    2      0.71      0.00
  -16   -9    1      0.47      0.00
   16    9    0      0.40      0.00
   16    9    1      1.02      0.00
   16    9    2     -0.63      0.00
   16    9    3      0.01      0.00
   16    9    4     -0.31      0.00
   16    9    5     -0.86      0.00
   16    9    6      0.48      0.00
   16    9    7     -0.89      0.00
   16    9    8      0.92      0.00
   16    9    9      0.46      0.00
   16    9   10     -0.42      0.00
   16    9   11     -0.14      0.00
   16    9   12     -0.48      0.00
   16    9   13      0.79      0.00
   16    9   14      1.15      0.00
   16    9   15      2.51      0.00
   16    9   16      0.37      0.00
   16    9   17     -0.46      0.00
   16    9   18     -0.06      0.00
   16    9   19     -0.61      0.00
  -16  -10    4     -2.30      0.00
  -16  -10    3     -0.62      0.00
  -16  -10    2      0.14      0.00
  -16  -10    1      0.62      0.00
   16   10    0     -1.10      0.00
   16   10    1     -0.40      0.00
   16   10    2     -0.62      0.00
   16   10    3      0.14      0.00
   16   10    4      0.64      0.00
   16   10    5     -1.28      0.00
   16   10    6      0.22      0.00
   16   10    7      1.28      0.00
   16   10    8     -0.69      0.00
   16   10    9     -1.23      0.00
   16   10   10     -0.35      0.00
   16   10   11      0.53      0.00
   16   10   12     -0.34      0.00
   16   10   13      0.36      0.00
   16   10   14     -0.11      0.00
   16   10   15     -1.04      0.00
   16   10   16     -1.27      0.00
   16   10   17     -0.54      0.00
   16   10   18     -1.09      0.00
   16   10   19     -1.16      0.00
  -16  -11    5     -0.07      0.00
  -16  -11    4      0.55      0.00
  -16  -11    3      0.37      0.00
  -16  -11    2      1.51      0.00
  -16  -11    1     -2.28      0.00
   16   11    0      0.81      0.00
   16   11    1     -1.23      0.00
   16   11    2      1.55      0.00
   16   11    3      0.37      0.00
   16   11    4      0.09      0.00
   16   11    5      0.92      0.00
   16   11    6     -0.78      0.00
   16   11    7     -0.05      0.00
   16   11    8     -0.06      0.00
   16   11    9      0.61      0.00
   16   11   10     -2.00      0.00
   16   11   11      0.23      0.00
   16   11   12     -0.47      0.00
   16   11   13      1.17      0.00
   16   11   14     -1.58      0.00
   16   11   15      1.10      0.00
   16   11   16     -1.82      0.00
   16   11   17      2.43      0.00
   16   11   18     -0.66      0.00
   16   11   19     -0.27      0.00
   16   11   20     -0.22      0.00
  -16  -12    6      1.08      0.00
  -16  -12    5     -0.74      0.00
  -16  -12    3      0.09      0.00
  -16  -12    2      0.86      0.00
  -16  -12    1     -4.44      0.00
   16   12    0      3.05      0.00
   16   12    1      4.10      0.00
   16   12    2     -1.89      0.00
   16   12    3      0.93      0.00
   16   12    4     -1.59      0.00
   16   12    5      0.32      0.00
   16   12    6      1.42      0.00
   16   12    7     -0.56      0.00
   16   12    8      0.11      0.00
   16   12    9      0.53      0.00
   16   12   10      1.57      0.00
   16   12   11     -0.53      0.00
   16   12   12     -0.46      0.00
   16   12   13     -0.44      0.00
   16   12   14     -0.54      0.00
   16   12   16     -0.03      0.00
   16   12   17     -0.79      0.00
   16   12   18      0.26      0.00
   16   12   19      0.29      0.00
   16   12   20     -0.18      0.00
   16   13    1     -1.05      0.00
   16   13    2      1.41      0.00
   16   13    3      0.03      0.00
   16   13    4      0.68      0.00
   16   13    5      0.86      0.00
   16   13    6      0.94      0.00
   16   13    7      2.03      0.00
   16   13    8      2.87      0.00
   16   13    9     -0.10      0.00
   16   13   10      1.41      0.00
   16   13   11     -0.09      0.00
   16   13   12      1.00      0.00
   16   13   13      0.85      0.00
   16   13   16     -1.85      0.00
   16   13   17     -2.30      0.00
   16   13   18     -2.22      0.00
   16   14    1     -3.47      0.00
   16   14    2     -0.89      0.00
   16   14    3      1.14      0.00
   16   14    4     -0.04      0.00
   16   14    5     -0.21      0.00
   16   14    6      1.77      0.00
   16   14    7     -2.34      0.00
   16   14    8     -0.28      0.00
   16   14    9      0.01      0.00
   16   14   10     -0.54      0.00
   16   14   11      0.83      0.00
   16   14   12     -1.37      0.00
   16   14   13     -0.77      0.00
   16   14   15      0.82      0.00
   16   14   16     -0.03      0.00
   16   14   17     -1.14      0.00
   16   14   18     -1.59      0.00
   16   14   19     -2.94      0.00
   16   14   20      0.23      0.00
   16   15    0     -1.07      0.00
   16   15    1      0.92      0.00
   16   15    2      0.82      0.00
   16   15    4      0.34      0.00
   16   15    5     -0.25      0.00
   16   15    6     -1.15      0.00
   16   15    7      0.55      0.00
   16   15    8      0.09      0.00
   16   15    9      0.05      0.00
   16   15   10     -0.67      0.00
   16   15   11     -1.81      0.00
   16   15   13     -0.71      0.00
   16   15   14     -0.68      0.00
   16   15   15     -0.93      0.00
   16   15   16      0.35      0.00
   16   15   19      0.84      0.00
   16   16    0     -1.83      0.00
   16   16    1      1.25      0.00
   16   16    2     -0.35      0.00
   16   16    7      0.16      0.00
   16   16    8     -0.24      0.00
   16   16    9     -1.01      0.00
   16   16   10     -0.07      0.00
   16   16   14     -0.08      0.00
   16   17    0      1.06      0.00
   16   17    1     -0.16      0.00
   16   17    8     -1.38      0.00
   16   17    9     -0.61      0.00
   17  -10    7     -1.16      0.00
   17   -9    4     -0.35      0.00
   17   -9    6      1.60      0.00
   17   -9    7      0.40      0.00
   17   -9    8      0.62      0.00
   17   -9   10      0.47      0.00
   17   -9   11     -0.62      0.00
   17   -8    3     -0.08      0.00
   17   -8    4     -0.20      0.00
   17   -8    5      1.23      0.00
   17   -8    7     -0.51      0.00
   17   -8    8      0.17      0.00
   17   -8    9     -0.72      0.00
   17   -8   10      3.17      0.00
   17   -8   11     -0.50      0.00
   17   -8   12     -1.18      0.00
   17   -8   13     -0.93      0.00
   17   -7    1     -0.77      0.00
   17   -7    2     -0.07      0.00
   17   -7    3      1.51      0.00
   17   -7    4      2.09      0.00
   17   -7    5      0.19      0.00
   17   -7    6      0.56      0.00
   17   -7    7     -1.67      0.00
   17   -7    8      0.33      0.00
   17   -7    9      2.01      0.00
   17   -7   10      0.60      0.00
   17   -7   11      0.87      0.00
   17   -7   12     -1.99      0.00
   17   -7   13      1.15      0.00
   17   -7   14      0.98      0.00
  -17    6    0     -0.06      0.00
   17   -6    1     -1.68      0.00
   17   -6    2     -0.35      0.00
   17   -6    3     -0.92      0.00
   17   -6    4      1.28      0.00
   17   -6    5     -1.82      0.00
   17   -6    6     -2.14      0.00
   17   -6    8     -0.19      0.00
   17   -6    9     -0.85      0.00
   17   -6   10     -0.46      0.00
   17   -6   11     -0.72      0.00
   17   -6   12      1.07      0.00
   17   -6   13     -1.25      0.00
   17   -6   14     -0.37      0.00
   17   -6   16     -0.71      0.00
  -17    5    1      0.88      0.00
  -17    5    0      1.33      0.00
   17   -5    1      0.88      0.00
   17   -5    2      1.60      0.00
   17   -5    3      0.00      0.00
   17   -5    4     -2.05      0.00
   17   -5    5     -0.86      0.00
   17   -5    6      0.46      0.00
   17   -5    7      0.04      0.00
   17   -5    8      0.89      0.00
   17   -5    9      0.19      0.00
   17   -5   10     -0.12      0.00
   17   -5   11     -0.88      0.00
   17   -5   12     -0.25      0.00
   17   -5   13      0.32      0.00
   17   -5   15      0.27      0.00
   17   -5   16      0.83      0.00
   17   -5   17     -0.49      0.00
  -17    4    2      2.47      0.00
  -17    4    1     -1.07      0.00
  -17    4    0      1.11      0.00
   17   -4    1      0.67      0.00
   17   -4    2      1.69      0.00
   17   -4    3      0.54      0.00
   17   -4    4     -1.07      0.00
   17   -4    5      0.50      0.00
   17   -4    6     -0.76      0.00
   17   -4    7     -0.71      0.00
   17   -4    8     -0.95      0.00
   17   -4    9     -0.45      0.00
   17   -4   10     -0.20      0.00
   17   -4   11     -1.05      0.00
   17   -4   12     -1.07      0.00
   17   -4   13     -1.41      0.00
   17   -4   14     -0.07      0.00
   17   -4   15     -0.66      0.00
   17   -4   16     -1.12      0.00
   17   -4   17      0.75      0.00
   17   -4   18      0.51      0.00
  -17    3    3     -0.38      0.00
  -17    3    2     -2.65      0.00
  -17    3    1      1.38      0.00
  -17    3    0     -0.84      0.00
   17   -3    1     -0.83      0.00
   17   -3    2      1.48      0.00
   17   -3    3     -1.27      0.00
   17   -3    4      0.71      0.00
   17   -3    5      0.74      0.00
   17   -3    6      0.07      0.00
   17   -3    7      0.24      0.00
   17   -3    9      1.50      0.00
   17   -3   10      1.13      0.00
   17   -3   11      0.45      0.00
   17   -3   12     -1.61      0.00
   17   -3   13      1.25      0.00
   17   -3   14     -2.09      0.00
   17   -3   15      0.17      0.00
   17   -3   16      0.02      0.00
   17   -3   17     -1.80      0.00
   17   -3   19     -0.08      0.00
  -17    2    2     -0.34      0.00
  -17    2    1     -1.89      0.00
  -17    2    0      0.73      0.00
   17   -2    1      0.32      0.00
   17   -2    2      0.29      0.00
   17   -2    3     -0.14      0.00
   17   -2    4      1.21      0.00
   17   -2    5     -0.23      0.00
   17   -2    6     -0.80      0.00
   17   -2    7      0.36      0.00
   17   -2    8     -1.20      0.00
   17   -2    9     -1.05      0.00
   17   -2   10     -0.71      0.00
   17   -2   11      0.06      0.00
   17   -2   12     -0.31      0.00
   17   -2   13     -1.43      0.00
   17   -2   14     -0.05      0.00
   17   -2   15     -1.23      0.00
   17   -2   16     -0.57      0.00
   17   -2   17     -0.21      0.00
   17   -2   18     -0.95      0.00
   17   -2   19     -1.53      0.00
  -17    1    3     -1.14      0.00
  -17    1    2     -0.18      0.00
  -17    1    1      0.87      0.00
  -17    1    0     -0.87      0.00
   17   -1    1      0.47      0.00
   17   -1    2      1.29      0.00
   17   -1    3     -1.37      0.00
   17   -1    4      1.72      0.00
   17   -1    5     -1.46      0.00
   17   -1    6     -0.03      0.00
   17   -1    7     -1.60      0.00
   17   -1    8      0.76      0.00
   17   -1    9      1.34      0.00
   17   -1   10     -0.12      0.00
   17   -1   11      0.01      0.00
   17   -1   12      1.29      0.00
   17   -1   13      2.31      0.00
   17   -1   14      1.06      0.00
   17   -1   15      4.05      0.00
   17   -1   16      2.21      0.00
   17   -1   17      0.68      0.00
   17   -1   18      0.19      0.00
   17   -1   19      0.38      0.00
   17   -1   20     -1.44      0.00
  -17    0    4      0.91      0.00
  -17    0    3     -0.33      0.00
  -17    0    2     -2.01      0.00
  -17    0    1      0.30      0.00
   17    0    0      0.18      0.00
   17    0    1      2.42      0.00
   17    0    2      0.85      0.00
   17    0    3      1.43      0.00
   17    0    4      1.32      0.00
   17    0    5      0.27      0.00
   17    0    6      1.01      0.00
   17    0    7      1.59      0.00
   17    0    8     -2.34      0.00
   17    0    9      1.72      0.00
   17    0   10     -0.37      0.00
   17    0   11      0.45      0.00
   17    0   12      0.80      0.00
   17    0   13      1.17      0.00
   17    0   14     -1.59      0.00
   17    0   15     -0.29      0.00
   17    0   16     -0.58      0.00
   17    0   17      1.12      0.00
   17    0   18     -1.70      0.00
   17    0   19      0.08      0.00
  -17   -1    5     -0.08      0.00
  -17   -1    3      3.23      0.00
  -17   -1    2     -0.20      0.00
  -17   -1    1      4.16      0.00
   17    1    0      0.24      0.00
   17    1    1     -0.21      0.00
   17    1    2     -1.15      0.00
   17    1    3     -1.64      0.00
   17    1    4      0.03      0.00
   17    1    5      1.34      0.00
   17    1    6      1.10      0.00
   17    1    7      0.89      0.00
   17    1    8     -0.22      0.00
   17    1    9      0.33      0.00
   17    1   10     -0.33      0.00
   17    1   11      1.45      0.00
   17    1   12     -0.40      0.00
   17    1   13     -1.32      0.00
   17    1   14      1.57      0.00
   17    1   15      0.04      0.00
   17    1   16     -1.40      0.00
   17    1   17      0.37      0.00
   17    1   18      0.44      0.00
   17    1   19      0.27      0.00
  -17   -2    5      1.12      0.00
  -17   -2    4     -0.65      0.00
  -17   -2    3      0.09      0.00
  -17   -2    2     -2.36      0.00
  -17   -2    1     -3.27      0.00
   17    2    0     -1.23      0.00
   17    2    1      0.80      0.00
   17    2    2     -1.59      0.00
   17    2    3     -0.62      0.00
   17    2    4     -0.52      0.00
   17    2    5     -1.56      0.00
   17    2    6      0.40      0.00
   17    2    7     -2.52      0.00
   17    2    8     -0.82      0.00
   17    2    9     -2.05      0.00
   17    2   10      0.04      0.00
   17    2   11      0.58      0.00
   17    2   12      0.49      0.00
   17    2   13      0.72      0.00
   17    2   14      0.72      0.00
   17    2   15     -0.42      0.00
   17    2   16     -0.58      0.00
   17    2   17     -0.97      0.00
   17    2   18     -1.28      0.00
   17    2   19     -0.15      0.00
   17    2   20     -1.15      0.00
  -17   -3    5     -0.28      0.00
  -17   -3    4     -1.16      0.00
  -17   -3    3     -0.75      0.00
  -17   -3    2     -0.64      0.00
  -17   -3    1      2.05      0.00
   17    3    0     -0.62      0.00
   17    3    1      0.37      0.00
   17    3    2     -1.31      0.00
   17    3    3     -0.07      0.00
   17    3    4     -0.68      0.00
   17    3    5      1.85      0.00
   17    3    6     -0.63      0.00
   17    3    7     -0.45      0.00
   17    3    8     -0.92      0.00
   17    3    9     -0.95      0.00
   17    3   10     -1.04      0.00
   17    3   11      0.52      0.00
   17    3   12     -0.78      0.00
   17    3   13      1.02      0.00
   17    3   14      0.77      0.00
   17    3   15      0.89      0.00
   17    3   16     -0.10      0.00
   17    3   17     -1.74      0.00
   17    3   18     -1.53      0.00
   17    3   19     -1.34      0.00
   17    3   20     -0.02      0.00
  -17   -4    3      0.28      0.00
  -17   -4    2     -1.63      0.00
  -17   -4    1      0.26      0.00
   17    4    0      0.75      0.00
   17    4    1     -1.04      0.00
   17    4    2     -0.29      0.00
   17    4    3     -0.09      0.00
   17    4    4     -0.88      0.00
   17    4    5      1.79      0.00
   17    4    6      0.18      0.00
   17    4    7      0.64      0.00
   17    4    8     -2.05      0.00
   17    4    9     -0.76      0.00
   17    4   10      0.26      0.00
   17    4   11     -0.55      0.00
   17    4   12     -1.00      0.00
   17    4   13      0.64      0.00
   17    4   14     -0.50      0.00
   17    4   15      0.37      0.00
   17    4   16      0.96      0.00
   17    4   17     -0.50      0.00
   17    4   18      0.19      0.00
   17    4   19      1.57      0.00
  -17   -5    5      0.95      0.00
  -17   -5    4      0.37      0.00
  -17   -5    3      0.59      0.00
  -17   -5    2     -0.58      0.00
  -17   -5    1      0.44      0.00
   17    5    0     -1.04      0.00
   17    5    1     -0.44      0.00
   17    5    2     -1.08      0.00
   17    5    3     -0.62      0.00
   17    5    4     -0.15      0.00
   17    5    5      0.34      0.00
   17    5    6     -0.69      0.00
   17    5    7      1.60      0.00
   17    5    8      0.09      0.00
   17    5    9     -0.27      0.00
   17    5   10     -0.77      0.00
   17    5   11     -1.83      0.00
   17    5   12      0.56      0.00
   17    5   13      1.60      0.00
   17    5   14      0.81      0.00
   17    5   15     -1.62      0.00
   17    5   16     -1.48      0.00
   17    5   17     -0.24      0.00
   17    5   18      0.83      0.00
   17    5   19     -1.36      0.00
  -17   -6    5     -0.29      0.00
  -17   -6    4     -1.97      0.00
  -17   -6    3      0.23      0.00
  -17   -6    2     -1.41      0.00
  -17   -6    1     -1.38      0.00
   17    6    0     -1.05      0.00
   17    6    1     -0.90      0.00
   17    6    2     -1.11      0.00
   17    6    3      0.33      0.00
   17    6    4     -1.11      0.00
   17    6    5     -0.31      0.00
   17    6    6     -0.30      0.00
   17    6    7      2.35      0.00
   17    6    8     -0.03      0.00
   17    6    9      0.74      0.00
   17    6   10      0.24      0.00
   17    6   11      1.07      0.00
   17    6   12      0.18      0.00
   17    6   13      2.38      0.00
   17    6   14     -0.28      0.00
   17    6   15     -0.05      0.00
   17    6   16      0.02      0.00
   17    6   17     -1.86      0.00
   17    6   18      0.09      0.00
   17    6   19      0.19      0.00
  -17   -7    5      0.35      0.00
  -17   -7    4      0.82      0.00
  -17   -7    3     -2.14      0.00
  -17   -7    2     -0.18      0.00
  -17   -7    1     -2.22      0.00
   17    7    0     -0.96      0.00
   17    7    1     -0.87      0.00
   17    7    2     -0.64      0.00
   17    7    3     -1.21      0.00
   17    7    4     -1.00      0.00
   17    7    5      0.20      0.00
   17    7    6     -0.06      0.00
   17    7    7      0.74      0.00
   17    7    8      0.34      0.00
   17    7    9     -0.20      0.00
   17    7   10     -1.38      0.00
   17    7   11      0.03      0.00
   17    7   12      0.31      0.00
   17    7   13     -1.07      0.00
   17    7   14      0.50      0.00
   17    7   15      0.28      0.00
   17    7   16      1.21      0.00
   17    7   17      0.58      0.00
   17    7   18     -0.74      0.00
  -17   -8    6      1.03      0.00
  -17   -8    5     -0.75      0.00
  -17   -8    4     -0.72      0.00
  -17   -8    3      0.51      0.00
  -17   -8    2     -0.19      0.00
  -17   -8    1      0.98      0.00
   17    8    0     -0.02      0.00
   17    8    1     -1.32      0.00
   17    8    2      0.91      0.00
   17    8    3     -0.44      0.00
   17    8    4     -0.59      0.00
   17    8    5     -0.66      0.00
   17    8    6     -0.49      0.00
   17    8    7     -0.77      0.00
   17    8    8     -1.67      0.00
   17    8    9     -0.19      0.00
   17    8   10     -0.39      0.00
   17    8   11     -0.71      0.00
   17    8   12      2.08      0.00
   17    8   13      1.32      0.00
   17    8   14     -0.41      0.00
   17    8   15     -1.23      0.00
   17    8   16     -0.94      0.00
   17    8   17     -1.60      0.00
   17    8   18     -1.74      0.00
  -17   -9    6      0.27      0.00
  -17   -9    5      0.57      0.00
  -17   -9    4      1.63      0.00
  -17   -9    3      0.95      0.00
  -17   -9    2      0.02      0.00
  -17   -9    1     -1.33      0.00
   17    9    0      0.60      0.00
   17    9    1      0.78      0.00
   17    9    2      0.78      0.00
   17    9    3      0.30      0.00
   17    9    4     -0.59      0.00
   17    9    5     -0.71      0.00
   17    9    6     -0.05      0.00
   17    9    7     -0.57      0.00
   17    9    8      1.15      0.00
   17    9    9     -0.14      0.00
   17    9   10      0.03      0.00
   17    9   11     -0.69      0.00
   17    9   12     -0.55      0.00
   17    9   13     -0.53      0.00
   17    9   14      1.87      0.00
   17    9   15      0.19      0.00
   17    9   16      0.46      0.00
   17    9   17     -0.40      0.00
   17    9   18     -0.36      0.00
   17    9   19     -0.38      0.00
  -17  -10    6      0.08      0.00
  -17  -10    5      0.59      0.00
  -17  -10    4     -0.40      0.00
  -17  -10    3      0.70      0.00
  -17  -10    2     -0.72      0.00
  -17  -10    1      2.20      0.00
   17   10    0      1.06      0.00
   17   10    1      3.09      0.00
   17   10    2      0.18      0.00
   17   10    3      0.15      0.00
   17   10    4      1.19      0.00
   17   10    5     -0.69      0.00
   17   10    6     -0.03      0.00
   17   10    7      0.00      0.00
   17   10    8      0.41      0.00
   17   10    9     -0.85      0.00
   17   10   10     -0.50      0.00
   17   10   11      0.36      0.00
   17   10   12      0.52      0.00
   17   10   13     -2.62      0.00
   17   10   14     -0.60      0.00
   17   10   15     -0.76      0.00
   17   10   16      0.90      0.00
   17   10   18     -0.32      0.00
   17   10   19      0.28      0.00
  -17  -11    5      0.01      0.00
  -17  -11    4      0.25      0.00
  -17  -11    3     -0.37      0.00
  -17  -11    2      0.38      0.00
  -17  -11    1      3.96      0.00
   17   11    1     -2.81      0.00
   17   11    2      2.27      0.00
   17   11    3     -0.57      0.00
   17   11    4      0.78      0.00
   17   11    5     -0.58      0.00
   17   11    6     -1.89      0.00
   17   11    7     -0.39      0.00
   17   11    8     -0.28      0.00
   17   11    9      0.27      0.00
   17   11   10     -1.61      0.00
   17   11   11     -0.82      0.00
   17   11   12      1.46      0.00
   17   11   13      1.07      0.00
   17   11   14      0.93      0.00
   17   11   15      0.31      0.00
   17   11   17      1.24      0.00
   17   11   18      0.96      0.00
  -17  -12    4     -1.51      0.00
  -17  -12    2      3.53      0.00
  -17  -12    1     -6.65      0.00
   17   12    0      1.63      0.00
   17   12    1     -0.09      0.00
   17   12    2     -1.51      0.00
   17   12    3     -0.36      0.00
   17   12    4     -1.43      0.00
   17   12    5     -0.62      0.00
   17   12    6      1.00      0.00
   17   12    7     -1.06      0.00
   17   12    8     -0.32      0.00
   17   12    9      0.51      0.00
   17   12   10      2.31      0.00
   17   12   11      0.69      0.00
   17   12   12     -0.36      0.00
   17   12   13     -1.03      0.00
   17   12   14      0.04      0.00
   17   12   15     -2.15      0.00
   17   12   17     -0.36      0.00
   17   12   19      0.33      0.00
   17   13    0    -11.05      0.00
   17   13    1     -3.44      0.00
   17   13    2      2.37      0.00
   17   13    3     -2.04      0.00
   17   13    4      1.26      0.00
   17   13    5      0.65      0.00
   17   13    6      0.59      0.00
   17   13    7      3.52      0.00
   17   13    8      1.61      0.00
   17   13    9      1.94      0.00
   17   13   10      0.01      0.00
   17   13   11      0.97      0.00
   17   13   12      0.56      0.00
   17   13   13      0.93      0.00
   17   13   14      0.75      0.00
   17   13   16     -2.21      0.00
   17   13   17     -3.51      0.00
   17   13   18     -1.78      0.00
   17   13   19      0.04      0.00
   17   13   20      0.00      0.00
   17   14    0      6.22      0.00
   17   14    1     -6.47      0.00
   17   14    2     -0.27      0.00
   17   14    3      1.56      0.00
   17   14    4      0.99      0.00
   17   14    5      0.89      0.00
   17   14    6      1.72      0.00
   17   14    7     -0.06      0.00
   17   14    8     -0.47      0.00
   17   14    9      0.18      0.00
   17   14   10     -0.41      0.00
   17   14   11      0.52      0.00
   17   14   12     -0.66      0.00
   17   14   13     -0.15      0.00
   17   14   16     -0.04      0.00
   17   14   17      0.04      0.00
   17   14   18     -1.90      0.00
   17   14   19     -1.47      0.00
   17   14   20     -0.46      0.00
   17   15    0      1.36      0.00
   17   15    1     -1.51      0.00
   17   15    2      1.52      0.00
   17   15    6     -1.63      0.00
   17   15    7      0.36      0.00
   17   15    8     -0.76      0.00
   17   15    9     -0.59      0.00
   17   15   10      0.05      0.00
   17   15   11     -2.39      0.00
   17   15   12     -0.76      0.00
   17   15   14     -0.23      0.00
   17   15   15      0.23      0.00
   17   15   16      1.03      0.00
   17   15   17     -0.23      0.00
   17   15   18      0.56      0.00
   17   16    1     -0.50      0.00
   17   16    8     -0.40      0.00
   17   16    9     -0.52      0.00
   17   16   10      0.03      0.00
   17   16   11     -0.12      0.00
   17   17    9     -0.48      0.00
   17   17   10     -0.57      0.00
   18   -8    7      1.78      0.00
   18   -7    3      1.02      0.00
   18   -7    4      0.80      0.00
   18   -7    5      0.96      0.00
   18   -7    6      1.42      0.00
   18   -7    7      0.24      0.00
   18   -7    8     -1.35      0.00
   18   -7    9      1.69      0.00
   18   -7   10     -0.18      0.00
   18   -7   11      1.39      0.00
   18   -6    2     -1.67      0.00
   18   -6    3     -1.21      0.00
   18   -6    4      1.69      0.00
   18   -6    5     -1.08      0.00
   18   -6    6     -2.12      0.00
   18   -6    8     -0.52      0.00
   18   -6    9      0.51      0.00
   18   -6   10     -0.51      0.00
   18   -6   11     -0.16      0.00
   18   -6   12     -0.98      0.00
   18   -5    1      0.80      0.00
   18   -5    2     -0.77      0.00
   18   -5    3     -0.01      0.00
   18   -5    4     -0.81      0.00
   18   -5    5     -1.21      0.00
   18   -5    6      0.68      0.00
   18   -5    7      0.16      0.00
   18   -5    8      1.42      0.00
   18   -5    9      0.69      0.00
   18   -5   10     -2.30      0.00
   18   -5   11     -1.61      0.00
   18   -5   12     -0.77      0.00
   18   -4    2      0.20      0.00
   18   -4    3      2.01      0.00
   18   -4    4      0.41      0.00
   18   -4    5      0.32      0.00
   18   -4    6      0.56      0.00
   18   -4    7      0.50      0.00
   18   -4    8     -0.99      0.00
   18   -4    9     -0.58      0.00
   18   -4   10     -0.76      0.00
   18   -4   11      0.86      0.00
   18   -4   12     -0.53      0.00
   18   -4   13     -1.16      0.00
   18   -4   16     -0.66      0.00
   18   -3    1      0.99      0.00
   18   -3    3      1.81      0.00
   18   -3    4      0.33      0.00
   18   -3    5      0.85      0.00
   18   -3    6      1.06      0.00
   18   -3    7     -0.86      0.00
   18   -3    9      2.11      0.00
   18   -3   10      1.70      0.00
   18   -3   11      1.41      0.00
   18   -3   12     -1.43      0.00
   18   -3   13      0.03      0.00
   18   -3   14     -0.55      0.00
   18   -3   16     -0.47      0.00
   18   -3   17     -0.91      0.00
  -18    2    1     -1.75      0.00
  -18    2    0      0.57      0.00
   18   -2    1      1.08      0.00
   18   -2    2     -0.50      0.00
   18   -2    3      3.18      0.00
   18   -2    4     -0.68      0.00
   18   -2    5      2.40      0.00
   18   -2    6     -0.92      0.00
   18   -2    7     -1.52      0.00
   18   -2    8      0.01      0.00
   18   -2    9     -2.10      0.00
   18   -2   10     -1.09      0.00
   18   -2   11     -0.63      0.00
   18   -2   12     -0.06      0.00
   18   -2   13     -1.97      0.00
   18   -2   14      1.86      0.00
   18   -2   15     -1.23      0.00
   18   -2   16      0.48      0.00
   18   -2   17     -0.15      0.00
   18   -2   18     -0.93      0.00
  -18    1    2      1.18      0.00
  -18    1    1      0.53      0.00
  -18    1    0      0.83      0.00
   18   -1    1     -0.13      0.00
   18   -1    2     -0.73      0.00
   18   -1    3     -0.19      0.00
   18   -1    4     -0.53      0.00
   18   -1    5     -0.91      0.00
   18   -1    6     -2.24      0.00
   18   -1    7     -2.58      0.00
   18   -1    8      0.90      0.00
   18   -1    9      0.24      0.00
   18   -1   10      1.78      0.00
   18   -1   11     -0.90      0.00
   18   -1   12      1.22      0.00
   18   -1   13      2.29      0.00
   18   -1   14      1.08      0.00
   18   -1   15      2.24      0.00
   18   -1   16      2.56      0.00
   18   -1   17     -0.07      0.00
   18   -1   18      1.97      0.00
  -18    0    2      0.30      0.00
  -18    0    1     -1.33      0.00
   18    0    0      0.72      0.00
   18    0    1      1.61      0.00
   18    0    2      1.86      0.00
   18    0    3      1.40      0.00
   18    0    4     -0.54      0.00
   18    0    5      0.59      0.00
   18    0    6     -1.34      0.00
   18    0    7      0.80      0.00
   18    0    8     -0.77      0.00
   18    0    9     -0.05      0.00
   18    0   10      1.04      0.00
   18    0   11      0.15      0.00
   18    0   12      0.26      0.00
   18    0   13      0.88      0.00
   18    0   14     -1.20      0.00
   18    0   15     -0.56      0.00
   18    0   16      1.06      0.00
   18    0   17      0.90      0.00
   18    0   18     -0.74      0.00
   18    0   19     -1.42      0.00
  -18   -1    3      0.81      0.00
  -18   -1    2      1.26      0.00
  -18   -1    1      2.10      0.00
   18    1    0      2.06      0.00
   18    1    1     -1.30      0.00
   18    1    2      0.03      0.00
   18    1    3     -0.85      0.00
   18    1    4      0.63      0.00
   18    1    5      1.58      0.00
   18    1    6      1.28      0.00
   18    1    7      0.57      0.00
   18    1    8     -0.47      0.00
   18    1    9     -0.01      0.00
   18    1   10     -0.28      0.00
   18    1   11      0.18      0.00
   18    1   12     -0.91      0.00
   18    1   13     -0.95      0.00
   18    1   14      0.24      0.00
   18    1   15     -0.02      0.00
   18    1   16      0.27      0.00
   18    1   17     -1.42      0.00
   18    1   18      0.71      0.00
   18    1   19     -1.28      0.00
  -18   -2    3     -0.50      0.00
  -18   -2    2      0.56      0.00
  -18   -2    1     -4.81      0.00
   18    2    0     -0.47      0.00
   18    2    1      0.75      0.00
   18    2    2     -0.19      0.00
   18    2    3      0.01      0.00
   18    2    4     -0.76      0.00
   18    2    5     -0.97      0.00
   18    2    6     -0.43      0.00
   18    2    7     -2.03      0.00
   18    2    8     -1.67      0.00
   18    2    9     -0.83      0.00
   18    2   10     -0.25      0.00
   18    2   11     -1.07      0.00
   18    2   12      0.48      0.00
   18    2   13     -1.19      0.00
   18    2   14      1.23      0.00
   18    2   15      1.05      0.00
   18    2   16     -3.24      0.00
   18    2   17     -2.15      0.00
   18    2   18     -0.20      0.00
   18    2   19     -0.92      0.00
  -18   -3    3     -1.73      0.00
  -18   -3    2      0.27      0.00
  -18   -3    1     -0.09      0.00
   18    3    0      0.06      0.00
   18    3    1      1.18      0.00
   18    3    2     -0.92      0.00
   18    3    3     -1.10      0.00
   18    3    4     -0.87      0.00
   18    3    5     -0.05      0.00
   18    3    6      0.53      0.00
   18    3    7     -1.52      0.00
   18    3    8      0.31      0.00
   18    3    9      0.04      0.00
   18    3   10     -2.17      0.00
   18    3   11      0.75      0.00
   18    3   12      1.01      0.00
   18    3   13      1.27      0.00
   18    3   14      1.85      0.00
   18    3   15     -1.17      0.00
   18    3   16     -0.92      0.00
   18    3   17     -4.23      0.00
   18    3   18     -1.54      0.00
   18    3   19     -2.56      0.00
  -18   -4    2     -1.48      0.00
  -18   -4    1      0.18      0.00
   18    4    0      0.79      0.00
   18    4    1     -1.67      0.00
   18    4    2      0.23      0.00
   18    4    3     -1.74      0.00
   18    4    4     -0.41      0.00
   18    4    5     -0.86      0.00
   18    4    6      1.53      0.00
   18    4    7      0.32      0.00
   18    4    8     -1.22      0.00
   18    4    9     -1.02      0.00
   18    4   10      0.09      0.00
   18    4   11      0.20      0.00
   18    4   12      0.09      0.00
   18    4   13     -1.41      0.00
   18    4   14     -0.74      0.00
   18    4   15      0.24      0.00
   18    4   16      2.53      0.00
   18    4   17      1.46      0.00
   18    4   18     -0.90      0.00
  -18   -5    3      0.17      0.00
  -18   -5    1     -1.02      0.00
   18    5    0      0.07      0.00
   18    5    1      0.54      0.00
   18    5    2     -0.92      0.00
   18    5    3      0.28      0.00
   18    5    4     -0.03      0.00
   18    5    5      0.56      0.00
   18    5    6      1.21      0.00
   18    5    7     -0.37      0.00
   18    5    8      1.65      0.00
   18    5    9     -0.71      0.00
   18    5   10     -0.97      0.00
   18    5   11     -0.90      0.00
   18    5   12     -0.97      0.00
   18    5   13     -0.06      0.00
   18    5   14      3.15      0.00
   18    5   15     -0.15      0.00
   18    5   16     -1.38      0.00
   18    5   17     -1.48      0.00
   18    5   18     -0.56      0.00
  -18   -6    4     -0.64      0.00
  -18   -6    3      0.08      0.00
  -18   -6    1     -0.34      0.00
   18    6    0     -1.05      0.00
   18    6    1     -0.72      0.00
   18    6    2     -0.34      0.00
   18    6    3     -0.47      0.00
   18    6    4     -1.04      0.00
   18    6    5     -0.14      0.00
   18    6    6      0.37      0.00
   18    6    7      1.29      0.00
   18    6    8      0.17      0.00
   18    6    9      0.21      0.00
   18    6   10     -0.72      0.00
   18    6   11     -0.78      0.00
   18    6   12      0.09      0.00
   18    6   13      2.44      0.00
   18    6   14     -0.90      0.00
   18    6   15     -0.89      0.00
   18    6   16     -3.04      0.00
   18    6   17     -2.82      0.00
   18    6   18     -0.37      0.00
  -18   -7    4      1.30      0.00
  -18   -7    3     -1.29      0.00
  -18   -7    2      0.20      0.00
   18    7    0     -1.31      0.00
   18    7    1      0.20      0.00
   18    7    2     -2.25      0.00
   18    7    3     -0.04      0.00
   18    7    4     -0.80      0.00
   18    7    5     -0.37      0.00
   18    7    6     -1.59      0.00
   18    7    7      1.17      0.00
   18    7    8      1.12      0.00
   18    7    9     -1.58      0.00
   18    7   10     -1.63      0.00
   18    7   11     -0.16      0.00
   18    7   12     -0.14      0.00
   18    7   13      0.41      0.00
   18    7   14      1.65      0.00
   18    7   15     -0.24      0.00
   18    7   16      1.98      0.00
   18    7   17      1.07      0.00
   18    7   18     -0.08      0.00
   18    7   19      0.50      0.00
  -18   -8    4      0.42      0.00
  -18   -8    3      0.64      0.00
  -18   -8    2     -0.29      0.00
  -18   -8    1      1.68      0.00
   18    8    0     -1.35      0.00
   18    8    1     -1.84      0.00
   18    8    2     -0.16      0.00
   18    8    3     -1.09      0.00
   18    8    4     -1.61      0.00
   18    8    5     -0.92      0.00
   18    8    6     -1.45      0.00
   18    8    7     -1.97      0.00
   18    8    8     -2.57      0.00
   18    8    9     -0.38      0.00
   18    8   10     -0.43      0.00
   18    8   11     -0.29      0.00
   18    8   12      2.20      0.00
   18    8   13      1.33      0.00
   18    8   14     -1.54      0.00
   18    8   15     -0.79      0.00
   18    8   17     -0.54      0.00
   18    8   18     -0.53      0.00
   18    8   19     -1.00      0.00
  -18   -9    4      1.06      0.00
  -18   -9    3      0.26      0.00
  -18   -9    2      0.43      0.00
  -18   -9    1     -2.02      0.00
   18    9    0     -0.21      0.00
   18    9    1     -0.16      0.00
   18    9    3      1.78      0.00
   18    9    4     -1.93      0.00
   18    9    5     -2.36      0.00
   18    9    6     -0.95      0.00
   18    9    7      0.29      0.00
   18    9    8     -0.05      0.00
   18    9    9     -0.43      0.00
   18    9   10      0.87      0.00
   18    9   11      0.10      0.00
   18    9   12     -2.06      0.00
   18    9   13      0.57      0.00
   18    9   14     -0.05      0.00
   18    9   15     -0.17      0.00
  -18  -10    4      0.53      0.00
  -18  -10    2      0.50      0.00
   18   10    0      1.27      0.00
   18   10    1      5.18      0.00
   18   10    2      1.21      0.00
   18   10    4     -0.06      0.00
   18   10    5      1.21      0.00
   18   10    6     -0.69      0.00
   18   10    7      0.22      0.00
   18   10    8      0.02      0.00
   18   10    9      0.12      0.00
   18   10   10     -0.02      0.00
   18   10   11      1.03      0.00
   18   10   12     -1.09      0.00
   18   10   13     -1.62      0.00
   18   10   14     -4.07      0.00
   18   10   15      0.63      0.00
  -18  -11    4      0.94      0.00
  -18  -11    2     -1.08      0.00
  -18  -11    1      5.60      0.00
   18   11    1     -0.51      0.00
   18   11    2      0.70      0.00
   18   11    3     -0.16      0.00
   18   11    4      1.34      0.00
   18   11    5      1.24      0.00
   18   11    6     -1.49      0.00
   18   11    7     -0.71      0.00
   18   11    8      0.16      0.00
   18   11    9      0.24      0.00
   18   11   10     -1.24      0.00
   18   11   11     -1.26      0.00
   18   11   12      1.40      0.00
   18   11   13      2.41      0.00
   18   11   14      1.12      0.00
   18   11   15      1.15      0.00
   18   11   18      0.62      0.00
   18   11   19     -1.11      0.00
  -18  -12    1     -1.25      0.00
   18   12    0      0.63      0.00
   18   12    2     -5.05      0.00
   18   12    3      1.68      0.00
   18   12    4     -0.83      0.00
   18   12    5      0.51      0.00
   18   12    6     -0.21      0.00
   18   12    7     -1.49      0.00
   18   12    8     -0.05      0.00
   18   12    9     -1.23      0.00
   18   12   10      2.12      0.00
   18   12   12      0.83      0.00
   18   12   13      0.38      0.00
   18   12   14     -0.29      0.00
   18   12   15     -1.43      0.00
   18   12   16     -1.14      0.00
   18   12   18     -0.10      0.00
   18   13    0    -23.42      0.00
   18   13    1     -1.18      0.00
   18   13    2     -1.66      0.00
   18   13    3      0.89      0.00
   18   13    4      0.13      0.00
   18   13    5     -0.83      0.00
   18   13    6      0.34      0.00
   18   13    7      1.40      0.00
   18   13    8      0.95      0.00
   18   13    9      0.84      0.00
   18   13   10      0.00      0.00
   18   13   11      1.79      0.00
   18   13   13      0.06      0.00
   18   13   16     -2.63      0.00
   18   13   17     -2.30      0.00
   18   13   18     -0.48      0.00
   18   13   19     -0.86      0.00
   18   13   20      2.08      0.00
   18   14    1     -0.88      0.00
   18   14    2     -1.35      0.00
   18   14    4     -0.27      0.00
   18   14    5      0.28      0.00
   18   14    6      2.24      0.00
   18   14    7     -0.26      0.00
   18   14    8      0.41      0.00
   18   14    9      0.65      0.00
   18   14   12     -0.04      0.00
   18   14   13     -0.85      0.00
   18   14   16      0.07      0.00
   18   14   17      0.74      0.00
   18   14   19      0.18      0.00
   18   15    1      2.79      0.00
   18   15    2     -3.19      0.00
   18   15    3     -0.23      0.00
   18   15    6     -1.01      0.00
   18   15    7      0.33      0.00
   18   15    8      0.33      0.00
   18   15    9     -0.61      0.00
   18   15   11     -1.66      0.00
   18   15   12     -1.44      0.00
   18   15   16      1.07      0.00
   18   16   11     -0.22      0.00
   18   16   12     -0.70      0.00
   19   -5    5      0.65      0.00
   19   -5    6      0.01      0.00
   19   -5    7      0.28      0.00
   19   -5    9     -0.42      0.00
   19   -5   10     -0.19      0.00
   19   -5   11     -4.62      0.00
   19   -4    3     -0.49      0.00
   19   -4    4      1.84      0.00
   19   -4    5      0.93      0.00
   19   -4    6     -0.65      0.00
   19   -4    7      1.15      0.00
   19   -4    8      0.38      0.00
   19   -4    9     -1.32      0.00
   19   -4   10     -0.55      0.00
   19   -4   11      0.08      0.00
   19   -3    2      1.97      0.00
   19   -3    3      0.90      0.00
   19   -3    4      1.66      0.00
   19   -3    5     -1.28      0.00
   19   -3    6      1.82      0.00
   19   -3    7     -0.90      0.00
   19   -3    8     -0.45      0.00
   19   -3   10      2.22      0.00
   19   -3   11      1.36      0.00
   19   -3   12      0.79      0.00
   19   -2    2      1.35      0.00
   19   -2    3      1.35      0.00
   19   -2    4      1.97      0.00
   19   -2    5      1.15      0.00
   19   -2    6      0.76      0.00
   19   -2    7     -0.14      0.00
   19   -2    8     -0.71      0.00
   19   -2    9     -1.22      0.00
   19   -2   10     -0.23      0.00
   19   -2   11      0.28      0.00
   19   -1    1      0.03      0.00
   19   -1    2     -0.86      0.00
   19   -1    4      0.88      0.00
   19   -1    5     -0.87      0.00
   19   -1    6     -1.29      0.00
   19   -1    7     -3.21      0.00
   19   -1    8     -1.11      0.00
   19   -1    9      1.61      0.00
   19   -1   10      0.36      0.00
   19   -1   11     -1.11      0.00
   19   -1   17      0.58      0.00
   19    0    1      1.07      0.00
   19    0    2      2.25      0.00
   19    0    3      0.62      0.00
   19    0    4      0.82      0.00
   19    0    5     -0.79      0.00
   19    0    6     -1.95      0.00
   19    0    7     -0.85      0.00
   19    0    8     -0.67      0.00
   19    0    9     -0.92      0.00
   19    0   10      0.48      0.00
   19    0   11      0.92      0.00
   19    0   12     -1.43      0.00
   19    0   13     -0.12      0.00
   19    0   15     -0.49      0.00
   19    0   16      0.45      0.00
   19    0   17      2.49      0.00
   19    0   18     -0.80      0.00
   19    1    0      1.43      0.00
   19    1    1     -0.13      0.00
   19    1    2      0.41      0.00
   19    1    3     -0.14      0.00
   19    1    4      1.31      0.00
   19    1    5      0.91      0.00
   19    1    6      0.27      0.00
   19    1    7     -0.34      0.00
   19    1    8     -0.16      0.00
   19    1    9     -0.31      0.00
   19    1   10      0.31      0.00
   19    1   11     -0.42      0.00
   19    1   12     -0.83      0.00
   19    1   13     -0.17      0.00
   19    1   14     -1.34      0.00
   19    1   15     -1.07      0.00
   19    1   16      1.27      0.00
   19    1   17     -0.44      0.00
   19    1   18     -1.00      0.00
  -19   -2    1     -1.40      0.00
   19    2    1      0.22      0.00
   19    2    2      0.92      0.00
   19    2    3      0.45      0.00
   19    2    4     -0.71      0.00
   19    2    5     -0.37      0.00
   19    2    6     -1.29      0.00
   19    2    7     -0.30      0.00
   19    2    8     -1.32      0.00
   19    2    9     -0.28      0.00
   19    2   10      1.07      0.00
   19    2   11     -1.17      0.00
   19    2   12     -0.75      0.00
   19    2   13     -1.60      0.00
   19    2   14      0.21      0.00
   19    2   15      2.45      0.00
   19    2   16     -4.64      0.00
   19    2   17      0.12      0.00
   19    2   18     -2.66      0.00
   19    2   19     -0.12      0.00
  -19   -3    1     -0.10      0.00
   19    3    0     -0.44      0.00
   19    3    1      1.63      0.00
   19    3    2      0.20      0.00
   19    3    3     -0.83      0.00
   19    3    4     -1.04      0.00
   19    3    5     -0.43      0.00
   19    3    6      0.52      0.00
   19    3    7     -0.14      0.00
   19    3    8     -0.49      0.00
   19    3    9     -0.15      0.00
   19    3   10     -0.98      0.00
   19    3   11     -0.55      0.00
   19    3   12      0.36      0.00
   19    3   13      3.11      0.00
   19    3   15      0.97      0.00
   19    3   16     -4.85      0.00
   19    3   17     -8.75      0.00
   19    3   18     -3.39      0.00
   19    3   19     -0.66      0.00
  -19   -4    1      0.28      0.00
   19    4    0     -0.37      0.00
   19    4    1     -0.83      0.00
   19    4    2     -0.09      0.00
   19    4    3     -3.41      0.00
   19    4    4     -0.81      0.00
   19    4    5     -0.79      0.00
   19    4    6     -0.16      0.00
   19    4    7      0.80      0.00
   19    4    8     -1.17      0.00
   19    4    9     -1.58      0.00
   19    4   10     -0.66      0.00
   19    4   11     -0.95      0.00
   19    4   12      1.57      0.00
   19    4   13      0.03      0.00
   19    4   14     -2.19      0.00
   19    4   15     -0.67      0.00
   19    4   16      0.80      0.00
   19    4   17      6.31      0.00
   19    4   18     -1.93      0.00
   19    4   19      0.02      0.00
  -19   -5    1     -1.52      0.00
   19    5    0      1.13      0.00
   19    5    1     -0.05      0.00
   19    5    2     -0.61      0.00
   19    5    3      1.66      0.00
   19    5    4      0.18      0.00
   19    5    5      0.48      0.00
   19    5    6      1.41      0.00
   19    5    7     -1.00      0.00
   19    5    8      0.37      0.00
   19    5    9     -1.02      0.00
   19    5   10     -0.40      0.00
   19    5   11      0.21      0.00
   19    5   12     -1.34      0.00
   19    5   13     -0.80      0.00
   19    5   14      2.31      0.00
   19    5   15      2.80      0.00
   19    5   16     -0.16      0.00
   19    5   17      0.52      0.00
   19    5   18     -2.07      0.00
   19    5   19     -0.36      0.00
   19    6    2      1.21      0.00
   19    6    3     -2.01      0.00
   19    6    4     -0.13      0.00
   19    6    5     -0.70      0.00
   19    6    6      0.36      0.00
   19    6    7      0.37      0.00
   19    6    8     -0.04      0.00
   19    6    9     -0.05      0.00
   19    6   10      0.08      0.00
   19    6   11     -1.43      0.00
   19    6   12      0.22      0.00
   19    6   13      1.08      0.00
   19    6   14     -0.44      0.00
   19    6   15      0.25      0.00
   19    6   16     -4.79      0.00
   19    6   17     -3.42      0.00
   19    6   18     -2.02      0.00
   19    6   19     -0.61      0.00
   19    7    3      0.18      0.00
   19    7    4      0.46      0.00
   19    7    5     -1.57      0.00
   19    7    6     -0.83      0.00
   19    7    7      0.12      0.00
   19    7    8      3.15      0.00
   19    7    9     -0.53      0.00
   19    7   10     -0.91      0.00
   19    7   11     -0.84      0.00
   19    7   12     -0.33      0.00
   19    7   13      1.15      0.00
   19    7   14      1.55      0.00
   19    7   15     -1.10      0.00
   19    7   16      1.27      0.00
   19    7   17      0.66      0.00
   19    7   18      0.46      0.00
   19    7   19      0.94      0.00
   19    8    3     -2.69      0.00
   19    8    4     -0.47      0.00
   19    8    5     -1.44      0.00
   19    8    6     -1.35      0.00
   19    8    7     -2.30      0.00
   19    8    8     -1.82      0.00
   19    8    9     -0.41      0.00
   19    8   11      0.23      0.00
   19    8   12      2.13      0.00
   19    8   13     -0.35      0.00
   19    8   14     -0.66      0.00
   19    8   15     -2.38      0.00
   19    8   16     -1.69      0.00
   19    9    1     -0.63      0.00
   19    9    3      2.03      0.00
   19    9    4     -1.42      0.00
   19    9    5     -4.40      0.00
   19    9    6     -0.98      0.00
   19    9    7     -0.48      0.00
   19    9    8     -0.74      0.00
   19    9    9     -0.45      0.00
   19    9   10      0.15      0.00
   19    9   11      0.79      0.00
   19    9   12     -0.64      0.00
   19    9   13     -0.72      0.00
   19    9   14      0.24      0.00
   19    9   15     -0.61      0.00
   19   10    1      2.65      0.00
   19   10    2      1.08      0.00
   19   10    3     -0.52      0.00
   19   10    4     -0.31      0.00
   19   10    5     -0.32      0.00
   19   10    6     -0.54      0.00
   19   10    7      0.54      0.00
   19   10    8     -1.27      0.00
   19   10    9      0.10      0.00
   19   10   10     -0.06      0.00
   19   10   12     -0.33      0.00
   19   10   13     -2.49      0.00
   19   10   14     -3.25      0.00
   19   10   15     -0.76      0.00
  -19  -11    1      0.15      0.00
   19   11    0      1.44      0.00
   19   11    2      1.98      0.00
   19   11    3     -1.03      0.00
   19   11    4      1.90      0.00
   19   11    5      1.40      0.00
   19   11    6      1.42      0.00
   19   11   10     -0.51      0.00
   19   11   11     -0.92      0.00
   19   11   14      2.47      0.00
   19   11   15     -1.26      0.00
   19   11   16      1.08      0.00
  -19  -12    1     -3.53      0.00
   19   12    0      6.94      0.00
   19   12    2     -0.45      0.00
   19   12    3     -1.45      0.00
   19   12    4      1.61      0.00
   19   12    5      1.99      0.00
   19   12    6      0.06      0.00
   19   12   14      0.14      0.00
   19   12   15     -1.26      0.00
   19   12   16     -1.05      0.00
   19   12   17     -0.43      0.00
   19   12   18      0.40      0.00
   19   13    0    -10.84      0.00
   19   13    1     -7.19      0.00
   19   13    2     -0.24      0.00
   19   13    5     -1.69      0.00
   19   13   13      0.59      0.00
   19   13   14     -1.35      0.00
   19   13   15     -0.44      0.00
   19   13   18      0.35      0.00
   19   14    1     -5.27      0.00
   19   14    2      3.99      0.00
   19   14   14      0.18      0.00
   19   14   15      0.27      0.00
   19   14   17     -0.55      0.00
   19   15    2     -1.65      0.00
   19   15    3     -2.55      0.00
   19   15   12     -1.20      0.00
   19   15   13     -1.02      0.00
   19   15   15      0.28      0.00
   19   15   16      1.75      0.00
   19   16   12     -1.25      0.00
   20   -2    7      1.59      0.00
   20   -2    8     -1.05      0.00
   20   -2    9     -0.84      0.00
   20   -2   10      0.43      0.00
   20   -2   11      0.98      0.00
   20   -2   12      0.22      0.00
   20   -1    5      0.83      0.00
   20   -1    6     -0.29      0.00
   20   -1    7     -2.07      0.00
   20   -1    8     -1.35      0.00
   20   -1    9      1.72      0.00
   20   -1   10      0.68      0.00
   20    0    7     -1.09      0.00
   20    0    8     -0.04      0.00
   20    0    9     -0.56      0.00
   20    0   10     -0.02      0.00
   20    0   11      0.87      0.00
   20    0   12     -2.14      0.00
   20    1    7     -1.30      0.00
   20    1    8     -0.20      0.00
   20    1    9      0.07      0.00
   20    1   10     -0.30      0.00
   20    1   11      0.10      0.00
   20    1   12      0.27      0.00
   20    1   15     -1.95      0.00
   20    2    2     -0.08      0.00
   20    2    6     -1.21      0.00
   20    2    7     -0.67      0.00
   20    2    8     -0.68      0.00
   20    2    9      0.18      0.00
   20    2   10      0.46      0.00
   20    2   11      0.21      0.00
   20    2   15     -1.77      0.00
   20    2   16     -0.53      0.00
   20    2   17      1.28      0.00
   20    3    2      0.22      0.00
   20    3    3      0.94      0.00
   20    3    5     -0.56      0.00
   20    3    6      1.01      0.00
   20    3    7     -0.02      0.00
   20    3    8     -1.00      0.00
   20    3    9     -1.10      0.00
   20    3   10     -0.20      0.00
   20    3   11     -0.10      0.00
   20    3   15      1.23      0.00
   20    3   16     -1.38      0.00
   20    3   17    -14.95      0.00
   20    3   18     -2.34      0.00
   20    4    2     -0.39      0.00
   20    4    3     -2.69      0.00
   20    4    6     -0.09      0.00
   20    4    7      0.39      0.00
   20    4    8     -1.12      0.00
   20    4    9     -1.34      0.00
   20    4   10     -1.98      0.00
   20    4   11     -1.91      0.00
   20    4   12      0.56      0.00
   20    4   15     -3.61      0.00
   20    4   16      2.26      0.00
   20    4   17      1.83      0.00
   20    4   18      0.65      0.00
   20    4   19     -0.48      0.00
   20    5    3      2.22      0.00
   20    5    6      0.34      0.00
   20    5    7     -0.74      0.00
   20    5    8     -1.76      0.00
   20    5    9      0.25      0.00
   20    5   10     -1.74      0.00
   20    5   11      0.93      0.00
   20    5   12     -1.05      0.00
   20    5   15      0.68      0.00
   20    5   16      1.84      0.00
   20    5   17      0.45      0.00
   20    5   18      1.74      0.00
   20    5   19     -2.32      0.00
   20    6    4     -1.16      0.00
   20    6    5     -0.95      0.00
   20    6    7      0.87      0.00
   20    6    8     -1.90      0.00
   20    6    9      0.60      0.00
   20    6   10      0.27      0.00
   20    6   11      0.42      0.00
   20    6   12      0.61      0.00
   20    6   13     -0.06      0.00
   20    6   15      0.37      0.00
   20    6   16     -2.22      0.00
   20    6   17     -3.59      0.00
   20    6   18     -1.21      0.00
   20    6   19     -1.11      0.00
   20    7    3      1.64      0.00
   20    7    4     -1.11      0.00
   20    7    5     -1.12      0.00
   20    7    8      2.99      0.00
   20    7    9      1.21      0.00
   20    7   10      0.66      0.00
   20    7   11     -0.51      0.00
   20    7   13      1.12      0.00
   20    7   15     -0.66      0.00
   20    7   16      0.95      0.00
   20    7   17     -0.60      0.00
   20    7   18      0.77      0.00
   20    8    2     -0.07      0.00
   20    8    3     -1.68      0.00
   20    8    4     -0.98      0.00
   20    8    5      0.45      0.00
   20    8    9     -0.25      0.00
   20    8   10      0.13      0.00
   20    8   13     -0.29      0.00
   20    8   14     -0.39      0.00
   20    8   15     -2.34      0.00
   20    8   16     -2.12      0.00
   20    9    3      2.08      0.00
   20    9    4     -0.64      0.00
   20    9    5     -1.80      0.00
   20    9    9     -0.80      0.00
   20    9   10      0.05      0.00
   20    9   11      0.75      0.00
   20    9   12      0.00      0.00
   20    9   13      0.16      0.00
   20    9   14     -0.66      0.00
   20    9   15      1.27      0.00
   20    9   16     -1.42      0.00
   20   10    3      0.41      0.00
   20   10    4      0.29      0.00
   20   10    5      0.05      0.00
   20   10   11      0.09      0.00
   20   10   14     -2.88      0.00
   20   10   15     -0.31      0.00
   20   10   16      0.05      0.00
   20   11    3      1.45      0.00
   20   11    4     -0.81      0.00
   20   11    5      1.03      0.00
   20   11   14      1.26      0.00
   20   11   15     -2.09      0.00
   20   11   16     -0.11      0.00
   20   11   17     -0.17      0.00
   20   12    3     -0.69      0.00
   20   12    4     -0.27      0.00
   20   12    5      2.16      0.00
   20   12   14      0.37      0.00
   20   12   15     -0.98      0.00
   20   12   17      0.07      0.00
   20   13    2     -2.37      0.00
   20   13    3      3.23      0.00
   20   13   14     -1.25      0.00
   20   13   15      0.14      0.00
   20   13   16     -1.85      0.00
   20   14   14      0.96      0.00
   20   14   15      0.77      0.00
   20   14   16      0.92      0.00
   20   14   17     -0.31      0.00
   20   15    8      1.78      0.00
   20   15    9      1.13      0.00
   20   15   13     -0.58      0.00
   20   15   14     -0.30      0.00
   20   15   16      0.22      0.00
   20   16    8     -0.36      0.00
   21    1    9      0.31      0.00
   21    1   10     -0.17      0.00
   21    2    8     -1.18      0.00
   21    2    9      0.13      0.00
   21    2   10     -0.61      0.00
   21    3    9     -2.10      0.00
   21    3   10      0.33      0.00
   21    3   15      3.06      0.00
   21    4    9     -1.79      0.00
   21    4   10     -0.83      0.00
   21    4   11     -2.35      0.00
   21    4   15     -0.31      0.00
   21    4   16      0.28      0.00
   21    5    9     -0.56      0.00
   21    5   10     -0.64      0.00
   21    5   11     -0.32      0.00
   21    5   15     -0.17      0.00
   21    5   16     -1.30      0.00
   21    6    9     -0.58      0.00
   21    6   10      0.29      0.00
   21    6   11      1.16      0.00
   21    6   15      0.09      0.00
   21    6   16     -1.62      0.00
   21    7    4     -0.78      0.00
   21    7    9      0.66      0.00
   21    7   10      1.37      0.00
   21    7   11      0.21      0.00
   21    7   15     -0.18      0.00
   21    7   16      0.79      0.00
   21    8    4     -0.14      0.00
   21    8   15     -1.83      0.00
   21    9    4      0.60      0.00
   21    9   14     -0.13      0.00
   21    9   15      1.43      0.00
   21    9   16     -1.05      0.00
   21   10    4      3.34      0.00
   21   10   15     -0.75      0.00
   21   10   16      0.64      0.00
   21   10   17     -0.50      0.00
   21   11    4      0.07      0.00
   21   11   14     -0.05      0.00
   21   11   15     -1.91      0.00
   21   11   16     -0.51      0.00
   21   11   17     -0.36      0.00
   21   12    4      0.58      0.00
   21   12   15     -1.06      0.00
   21   12   16     -1.50      0.00
   21   13   15      0.26      0.00
   21   13   16     -1.46      0.00
   21   13   17     -0.86      0.00
   21   14    9     -1.07      0.00
   21   14   10      0.31      0.00
   21   14   16      1.42      0.00
   21   14   17     -1.50      0.00
   21   15    8      3.19      0.00
   21   15    9      0.72      0.00
   22   11   15     -1.11      0.00
   22   13   10     -0.39      0.00
   22   13   11     -0.67      0.00
   22   14    9     -0.26      0.00
   22   14   10      0.31      0.00
   15   14    0     -3.71      0.00
   14   15    0      1.53      0.00
    1   16    0      0.99      0.00
    2   16    0      0.44      0.00
    3   16    0     -2.17      0.00
    0   17    0     -0.73      0.00
    1   17    0     -1.18      0.00
    2   17    0      1.52      0.00
    3   17    0      0.65      0.00
    4   17    0     -0.08      0.00
   11   17    0      0.67      0.00
   -4   18    0     -0.43      0.00
   -3   18    0     -0.21      0.00
   -1   18    0      0.61      0.00
    0   18    0      1.74      0.00
    1   18    0      0.51      0.00
    2   18    0      0.30      0.00
    3   18    0     -1.67      0.00
    4   18    0     -1.06      0.00
    5   18    0      0.16      0.00
    6   18    0      2.17      0.00
   11   18    0     -0.61      0.00
   -2   19    0     -0.92      0.00
   -1   19    0     -0.61      0.00
    0   19    0     -1.02      0.00
    1   19    0     -1.84      0.00
    2   19    0     -1.06      0.00
    3   19    0     -1.43      0.00
    4   19    0     -0.41      0.00
    5   19    0     -1.10      0.00
    6   19    0     -0.63      0.00
    7   19    0     -0.57      0.00
    8   19    0     -1.67      0.00
    9   19    0     -1.06      0.00
    1   20    0     -0.13      0.00
    2   20    0      0.08      0.00
    3   20    0      0.10      0.00
    4   20    0      0.70      0.00
    5   20    0     -0.01      0.00
    6   20    0      0.07      0.00
   -5  -20    1     -0.08      0.00
   -4  -20    1     -0.97      0.00
   -3  -20    1     -1.23      0.00
   -2  -20    1     -1.30      0.00
   -9  -19    1      0.21      0.00
   -8  -19    1     -0.17      0.00
   -7  -19    1     -0.06      0.00
   -6  -19    1      0.27      0.00
   -5  -19    1      0.44      0.00
   -4  -19    1     -0.55      0.00
   -3  -19    1      0.16      0.00
   -2  -19    1     -0.42      0.00
   -1  -19    1      0.01      0.00
    0  -19    1     -0.43      0.00
    1  -19    1     -0.24      0.00
    2  -19    1      0.64      0.00
  -10  -18    1      0.01      0.00
   -9  -18    1      0.33      0.00
   -3  -18    1     -0.68      0.00
   -2  -18    1     -0.19      0.00
   -1  -18    1      2.02      0.00
    4  -18    1     -0.13      0.00
  -12  -17    1      0.50      0.00
  -11  -17    1     -0.16      0.00
  -10  -17    1     -1.78      0.00
  -14  -15    1      0.99      0.00
  -15  -13    1      3.35      0.00
    2   13    1     -1.76      0.00
    1   14    1      0.90      0.00
    2   14    1     -0.15      0.00
    3   14    1      0.26      0.00
    0   15    1     -0.55      0.00
    1   15    1     -0.11      0.00
    2   15    1      0.21      0.00
    3   15    1     -1.80      0.00
    4   15    1     -2.07      0.00
    0   16    1      0.51      0.00
    1   16    1     -1.38      0.00
    2   16    1     -0.42      0.00
    3   16    1      0.79      0.00
    4   16    1     -0.85      0.00
    5   16    1     -0.80      0.00
   13   16    1      1.10      0.00
   -6   17    1     -0.34      0.00
   -5   17    1     -1.80      0.00
   -1   17    1     -0.28      0.00
    0   17    1      1.12      0.00
    1   17    1      0.91      0.00
    2   17    1     -0.72      0.00
    3   17    1      0.06      0.00
    4   17    1     -1.38      0.00
    5   17    1     -1.97      0.00
    6   17    1     -1.23      0.00
   10   17    1     -1.66      0.00
   12   17    1     -0.01      0.00
   -4   18    1     -1.03      0.00
   -3   18    1     -2.08      0.00
   -2   18    1     -1.62      0.00
   -1   18    1     -1.40      0.00
    0   18    1      0.13      0.00
    1   18    1      1.41      0.00
    2   18    1     -0.15      0.00
    3   18    1      1.27      0.00
    4   18    1      0.43      0.00
    5   18    1     -0.12      0.00
    6   18    1     -0.16      0.00
    7   18    1     -0.29      0.00
   11   18    1     -0.68      0.00
   12   18    1      0.26      0.00
   -2   19    1      1.01      0.00
   -1   19    1      0.72      0.00
    0   19    1      0.74      0.00
    1   19    1      1.06      0.00
    2   19    1     -1.19      0.00
    3   19    1     -0.93      0.00
    4   19    1     -0.46      0.00
    5   19    1      0.96      0.00
    6   19    1      1.66      0.00
    7   19    1      1.60      0.00
    8   19    1      1.73      0.00
    9   19    1      0.36      0.00
   10   19    1      0.57      0.00
    1   20    1     -0.47      0.00
    2   20    1     -0.54      0.00
    3   20    1     -0.05      0.00
    4   20    1      0.16      0.00
    5   20    1      0.72      0.00
    6   20    1     -0.28      0.00
    7   20    1     -0.88      0.00
   -8  -19    2      0.14      0.00
   -7  -19    2      0.04      0.00
   -6  -19    2      1.06      0.00
   -5  -19    2      0.69      0.00
   -4  -19    2     -0.24      0.00
   -3  -19    2     -2.00      0.00
   -2  -19    2     -1.40      0.00
   -1  -19    2      0.12      0.00
    0  -19    2      1.60      0.00
    1  -19    2      1.11      0.00
    2  -19    2     -0.21      0.00
  -10  -18    2      0.78      0.00
   -9  -18    2      0.14      0.00
    4  -18    2     -0.84      0.00
  -11  -17    2     -0.11      0.00
  -10  -17    2      0.17      0.00
   -9  -17    2     -1.65      0.00
    6  -17    2      0.37      0.00
    9  -15    2     -4.27      0.00
    2    6    2     13.21      0.00
    2    7    2      6.51      0.00
    2    8    2      3.01      0.00
    2    9    2     -6.53      0.00
    3    9    2      4.33      0.00
   18    9    2      0.69      0.00
    1   10    2      2.92      0.00
    2   10    2     -1.16      0.00
    3   10    2      0.31      0.00
    1   11    2      0.60      0.00
    2   11    2      0.56      0.00
    3   11    2     -0.47      0.00
    1   12    2     -0.91      0.00
    2   12    2     -0.26      0.00
    3   12    2     -1.40      0.00
    4   12    2     -0.56      0.00
    1   13    2     -1.05      0.00
    2   13    2      0.32      0.00
    3   13    2      0.10      0.00
    4   13    2      1.32      0.00
    0   14    2      0.71      0.00
    1   14    2      0.38      0.00
    2   14    2     -0.10      0.00
    3   14    2     -1.28      0.00
    4   14    2     -1.18      0.00
    5   14    2      0.21      0.00
    0   15    2     -0.03      0.00
    1   15    2      0.34      0.00
    2   15    2      0.85      0.00
    3   15    2      0.91      0.00
    4   15    2      0.25      0.00
    5   15    2     -0.11      0.00
    6   15    2      0.22      0.00
   -1   16    2      0.11      0.00
    0   16    2      0.35      0.00
    1   16    2     -0.42      0.00
    2   16    2      0.02      0.00
    3   16    2      0.54      0.00
    4   16    2      0.42      0.00
    5   16    2      0.01      0.00
    6   16    2      0.74      0.00
    7   16    2      1.26      0.00
   13   16    2      1.23      0.00
   -5   17    2     -0.58      0.00
   -2   17    2      0.07      0.00
   -1   17    2      0.20      0.00
    0   17    2      1.27      0.00
    1   17    2      0.90      0.00
    2   17    2      0.87      0.00
    3   17    2      0.05      0.00
    4   17    2      0.34      0.00
    5   17    2     -0.86      0.00
    6   17    2     -1.96      0.00
    7   17    2     -1.32      0.00
   10   17    2     -1.62      0.00
   -4   18    2     -1.54      0.00
   -3   18    2     -1.76      0.00
   -2   18    2     -1.34      0.00
   -1   18    2     -0.47      0.00
    0   18    2      0.27      0.00
    1   18    2      0.52      0.00
    2   18    2      1.43      0.00
    3   18    2     -1.51      0.00
    4   18    2     -1.28      0.00
    5   18    2      0.11      0.00
    6   18    2      0.54      0.00
    7   18    2      1.04      0.00
    8   18    2     -0.39      0.00
   11   18    2     -1.04      0.00
   12   18    2     -1.84      0.00
   -2   19    2     -0.58      0.00
   -1   19    2      0.16      0.00
    0   19    2      0.23      0.00
    1   19    2     -0.61      0.00
    2   19    2      0.77      0.00
    3   19    2      0.25      0.00
    4   19    2      0.53      0.00
    5   19    2      0.61      0.00
    6   19    2     -0.35      0.00
    7   19    2     -0.50      0.00
    8   19    2     -1.14      0.00
    9   19    2     -0.53      0.00
   10   19    2     -0.98      0.00
    1   20    2      0.62      0.00
    2   20    2      0.22      0.00
    3   20    2     -0.59      0.00
    4   20    2     -0.15      0.00
    5   20    2      0.90      0.00
    6   20    2      1.70      0.00
    7   20    2      1.41      0.00
    8   20    2      0.03      0.00
   -7  -19    3     -0.39      0.00
   -6  -19    3      0.23      0.00
   -5  -19    3      1.20      0.00
   -3  -19    3      1.17      0.00
   -2  -19    3      1.71      0.00
   -1  -19    3      2.67      0.00
    0  -19    3      3.10      0.00
    1  -19    3      2.26      0.00
    2  -19    3      1.62      0.00
   -9  -18    3      0.65      0.00
   -8  -18    3      0.34      0.00
    4  -18    3     -0.30      0.00
  -10  -17    3      0.73      0.00
   -9  -17    3      0.62      0.00
  -12  -16    3     -0.07      0.00
  -13  -15    3      0.80      0.00
    3    8    3      7.47      0.00
    2    9    3     -8.28      0.00
    3    9    3     -5.81      0.00
    2   10    3     -1.57      0.00
    3   10    3     -1.97      0.00
    4   10    3      1.88      0.00
   18   10    3     -0.19      0.00
    2   11    3      1.60      0.00
    3   11    3     -1.11      0.00
    4   11    3     -1.31      0.00
    1   12    3     -4.55      0.00
    2   12    3     -1.13      0.00
    3   12    3      1.22      0.00
    4   12    3      0.12      0.00
    5   12    3     -0.65      0.00
    1   13    3      1.23      0.00
    2   13    3     -0.37      0.00
    3   13    3     -0.47      0.00
    4   13    3     -1.17      0.00
    5   13    3     -1.49      0.00
    0   14    3      0.61      0.00
    1   14    3      0.35      0.00
    2   14    3     -0.63      0.00
    3   14    3      0.32      0.00
    4   14    3      1.41      0.00
    5   14    3      1.55      0.00
    6   14    3      1.85      0.00
    0   15    3      0.19      0.00
    1   15    3      0.21      0.00
    2   15    3     -0.30      0.00
    3   15    3      0.46      0.00
    4   15    3      0.89      0.00
    5   15    3     -1.14      0.00
    6   15    3     -1.99      0.00
    7   15    3     -0.60      0.00
   15   15    3      1.22      0.00
   -1   16    3     -0.70      0.00
    0   16    3      0.06      0.00
    1   16    3      1.08      0.00
    2   16    3      0.00      0.00
    3   16    3      0.11      0.00
    4   16    3      1.33      0.00
    5   16    3      0.57      0.00
    6   16    3     -0.46      0.00
    7   16    3      0.16      0.00
    8   16    3      0.43      0.00
   15   16    3      1.01      0.00
   -1   17    3     -0.78      0.00
    0   17    3     -0.58      0.00
    1   17    3      1.04      0.00
    2   17    3      0.43      0.00
    3   17    3      0.64      0.00
    4   17    3      0.17      0.00
    5   17    3     -0.39      0.00
    6   17    3     -0.21      0.00
    7   17    3     -0.45      0.00
    8   17    3     -0.16      0.00
    9   17    3     -1.27      0.00
   14   17    3      1.41      0.00
   -3   18    3     -0.17      0.00
   -2   18    3     -0.33      0.00
   -1   18    3     -0.17      0.00
    0   18    3     -0.51      0.00
    1   18    3      0.81      0.00
    2   18    3     -0.48      0.00
    3   18    3     -0.09      0.00
    4   18    3     -0.28      0.00
    5   18    3     -0.23      0.00
    6   18    3      1.41      0.00
    7   18    3      1.08      0.00
    8   18    3      0.86      0.00
    9   18    3     -0.82      0.00
   10   18    3     -1.10      0.00
   11   18    3     -1.63      0.00
   12   18    3     -0.50      0.00
   -1   19    3     -0.10      0.00
    0   19    3      0.39      0.00
    1   19    3      1.44      0.00
    2   19    3      0.67      0.00
    3   19    3      0.71      0.00
    4   19    3      0.32      0.00
    5   19    3     -0.08      0.00
    6   19    3      0.13      0.00
    7   19    3     -0.74      0.00
    8   19    3     -0.30      0.00
    9   19    3     -0.45      0.00
   10   19    3      0.53      0.00
   11   19    3     -0.18      0.00
    2   20    3     -0.93      0.00
    3   20    3     -0.44      0.00
    4   20    3     -0.21      0.00
    5   20    3      0.10      0.00
    6   20    3      0.47      0.00
    7   20    3     -0.25      0.00
    8   20    3     -0.21      0.00
   -4  -19    4      1.14      0.00
   -3  -19    4      0.21      0.00
   -2  -19    4     -0.35      0.00
   -1  -19    4      0.33      0.00
    1  -19    4      2.22      0.00
   -8  -18    4     -1.32      0.00
   -7  -18    4     -1.41      0.00
    4  -18    4     -0.18      0.00
  -10  -17    4      0.30      0.00
   -9  -17    4      1.32      0.00
  -11  -16    4     -0.95      0.00
    2   10    4     -0.68      0.00
    3   10    4     -2.61      0.00
    4   10    4     -0.91      0.00
    5   10    4      2.99      0.00
    2   11    4      1.26      0.00
    3   11    4      2.31      0.00
    4   11    4     -1.46      0.00
    5   11    4     -1.10      0.00
    2   12    4     -2.15      0.00
    3   12    4     -0.01      0.00
    4   12    4     -1.23      0.00
    5   12    4     -0.99      0.00
    6   12    4     -0.71      0.00
    1   13    4     -0.58      0.00
    2   13    4     -2.54      0.00
    3   13    4     -0.53      0.00
    4   13    4      0.84      0.00
    5   13    4      0.90      0.00
    6   13    4      0.00      0.00
    1   14    4      1.88      0.00
    2   14    4      1.13      0.00
    3   14    4      0.14      0.00
    4   14    4      0.92      0.00
    5   14    4      0.97      0.00
    6   14    4     -0.56      0.00
    7   14    4     -1.23      0.00
    0   15    4     -0.39      0.00
    1   15    4     -0.38      0.00
    2   15    4     -0.35      0.00
    3   15    4     -1.33      0.00
    4   15    4     -0.81      0.00
    5   15    4      1.21      0.00
    6   15    4      0.24      0.00
    7   15    4     -1.26      0.00
    8   15    4      0.51      0.00
    0   16    4     -0.30      0.00
    1   16    4     -1.03      0.00
    2   16    4      0.33      0.00
    3   16    4      0.90      0.00
    4   16    4      0.80      0.00
    5   16    4      2.02      0.00
    6   16    4      1.56      0.00
    7   16    4      0.06      0.00
    8   16    4      0.88      0.00
    9   16    4      0.68      0.00
   -5   17    4     -0.13      0.00
   -1   17    4     -2.42      0.00
    0   17    4     -1.50      0.00
    1   17    4     -1.10      0.00
    2   17    4      1.60      0.00
    3   17    4      0.68      0.00
    4   17    4     -1.38      0.00
    5   17    4     -0.80      0.00
    6   17    4     -0.44      0.00
    7   17    4     -0.66      0.00
    8   17    4     -0.88      0.00
    9   17    4      0.41      0.00
   11   17    4     -0.36      0.00
   14   17    4      1.09      0.00
   -3   18    4     -0.58      0.00
   -2   18    4     -0.48      0.00
   -1   18    4     -0.27      0.00
    0   18    4      1.22      0.00
    1   18    4     -0.69      0.00
    2   18    4     -0.21      0.00
    3   18    4     -0.38      0.00
    4   18    4     -0.86      0.00
    5   18    4      0.21      0.00
    6   18    4      0.33      0.00
    7   18    4      0.66      0.00
    8   18    4     -0.48      0.00
    9   18    4     -0.21      0.00
   10   18    4     -0.82      0.00
   11   18    4     -0.31      0.00
   12   18    4      0.18      0.00
   13   18    4      0.32      0.00
   -1   19    4     -0.81      0.00
    0   19    4     -0.55      0.00
    1   19    4     -0.35      0.00
    2   19    4      0.33      0.00
    3   19    4     -0.20      0.00
    4   19    4     -0.43      0.00
    5   19    4      0.31      0.00
    6   19    4     -0.02      0.00
    7   19    4     -0.03      0.00
    8   19    4     -0.49      0.00
    9   19    4      0.55      0.00
   10   19    4      0.26      0.00
   11   19    4     -0.22      0.00
    2   20    4      0.45      0.00
    3   20    4      0.02      0.00
    4   20    4     -0.13      0.00
    5   20    4      0.09      0.00
    6   20    4      0.23      0.00
    7   20    4      0.39      0.00
    8   20    4      0.02      0.00
   -3  -19    5      0.91      0.00
   -2  -19    5      0.25      0.00
   -1  -19    5      0.46      0.00
   -7  -18    5     -0.20      0.00
   -6  -18    5     -0.96      0.00
   -5  -18    5     -0.88      0.00
   -3  -18    5      1.15      0.00
    2  -18    5     -0.47      0.00
    3  -18    5      0.17      0.00
    4  -18    5      0.88      0.00
   15   -9    5      2.72      0.00
    3   11    5     -0.06      0.00
    4   11    5      1.42      0.00
    5   11    5     -0.90      0.00
    3   12    5     -2.18      0.00
    4   12    5      0.85      0.00
    5   12    5     -0.40      0.00
    6   12    5     -0.39      0.00
    2   13    5      1.03      0.00
    3   13    5     -2.09      0.00
    4   13    5     -0.16      0.00
    5   13    5      0.53      0.00
    6   13    5     -0.07      0.00
    7   13    5     -0.17      0.00
    1   14    5     -0.44      0.00
    2   14    5      0.36      0.00
    3   14    5     -0.82      0.00
    4   14    5      0.85      0.00
    5   14    5      2.20      0.00
    6   14    5      0.55      0.00
    7   14    5     -0.08      0.00
    8   14    5     -1.14      0.00
    1   15    5     -1.42      0.00
    2   15    5     -0.35      0.00
    3   15    5     -0.73      0.00
    4   15    5     -0.79      0.00
    5   15    5      0.18      0.00
    6   15    5      0.37      0.00
    7   15    5      0.30      0.00
    8   15    5     -1.31      0.00
    0   16    5     -1.50      0.00
    1   16    5     -0.64      0.00
    2   16    5     -0.23      0.00
    3   16    5      0.20      0.00
    4   16    5     -0.71      0.00
    5   16    5     -1.23      0.00
    6   16    5      0.55      0.00
    7   16    5      1.64      0.00
    8   16    5     -0.02      0.00
    9   16    5     -0.46      0.00
   14   16    5      0.69      0.00
   15   16    5      0.60      0.00
   -1   17    5     -0.40      0.00
    0   17    5     -2.05      0.00
    1   17    5     -1.25      0.00
    2   17    5     -2.18      0.00
    3   17    5     -0.32      0.00
    4   17    5      1.34      0.00
    5   17    5     -0.16      0.00
    6   17    5      0.39      0.00
    7   17    5      0.95      0.00
    8   17    5      0.33      0.00
    9   17    5      0.07      0.00
   10   17    5      1.77      0.00
   13   17    5      0.71      0.00
   14   17    5      0.10      0.00
   -2   18    5     -0.74      0.00
   -1   18    5     -0.56      0.00
    0   18    5     -1.02      0.00
    1   18    5      1.53      0.00
    2   18    5      0.76      0.00
    3   18    5     -0.14      0.00
    4   18    5      0.57      0.00
    5   18    5     -0.47      0.00
    6   18    5     -0.05      0.00
    7   18    5      0.35      0.00
    8   18    5      0.57      0.00
    9   18    5     -0.88      0.00
   10   18    5     -0.21      0.00
   11   18    5     -0.92      0.00
   12   18    5     -2.26      0.00
   13   18    5     -1.35      0.00
    0   19    5     -0.49      0.00
    1   19    5      0.15      0.00
    2   19    5     -0.06      0.00
    3   19    5     -0.45      0.00
    4   19    5      0.00      0.00
    5   19    5     -0.19      0.00
    6   19    5      0.11      0.00
    7   19    5     -0.29      0.00
    8   19    5     -0.17      0.00
    9   19    5     -0.80      0.00
   10   19    5     -0.10      0.00
   11   19    5      0.60      0.00
    3   20    5      0.06      0.00
    4   20    5     -0.48      0.00
    5   20    5     -1.06      0.00
    6   20    5     -0.94      0.00
    7   20    5      0.07      0.00
    8   20    5      0.64      0.00
   -6  -18    6     -0.43      0.00
   -5  -18    6     -1.00      0.00
   -4  -18    6     -0.69      0.00
   -2  -18    6      0.19      0.00
    1  -18    6      0.66      0.00
    3  -18    6     -0.62      0.00
   -8  -17    6      0.47      0.00
    4  -17    6      0.19      0.00
   -9  -16    6      0.42      0.00
    4   12    6     -0.71      0.00
    5   12    6      2.14      0.00
    6   12    6      2.75      0.00
    3   13    6      0.85      0.00
    4   13    6     -1.38      0.00
    5   13    6     -0.25      0.00
    6   13    6      1.26      0.00
    7   13    6     -0.02      0.00
    2   14    6     -2.17      0.00
    3   14    6      0.15      0.00
    4   14    6     -0.93      0.00
    5   14    6     -1.10      0.00
    6   14    6     -0.13      0.00
    7   14    6     -1.85      0.00
    8   14    6     -0.32      0.00
    1   15    6     -1.13      0.00
    2   15    6     -1.86      0.00
    3   15    6     -0.63      0.00
    4   15    6     -1.00      0.00
    5   15    6     -0.90      0.00
    6   15    6      1.77      0.00
    7   15    6      0.89      0.00
    8   15    6      0.81      0.00
    9   15    6     -1.37      0.00
    1   16    6     -1.78      0.00
    2   16    6     -1.02      0.00
    3   16    6      0.06      0.00
    4   16    6      0.54      0.00
    5   16    6      0.33      0.00
    6   16    6      0.79      0.00
    7   16    6      0.51      0.00
    8   16    6      0.45      0.00
    9   16    6      0.35      0.00
   10   16    6      0.00      0.00
   -4   17    6      0.21      0.00
    0   17    6      1.31      0.00
    1   17    6     -0.02      0.00
    2   17    6      0.05      0.00
    3   17    6     -0.01      0.00
    4   17    6     -0.64      0.00
    5   17    6     -0.50      0.00
    6   17    6     -1.17      0.00
    7   17    6     -0.20      0.00
    8   17    6      0.02      0.00
    9   17    6      0.11      0.00
   10   17    6     -0.26      0.00
   11   17    6     -0.01      0.00
   12   17    6      0.58      0.00
   13   17    6     -0.38      0.00
   14   17    6     -0.40      0.00
   -2   18    6      0.47      0.00
   -1   18    6     -1.39      0.00
    0   18    6     -0.23      0.00
    1   18    6     -0.02      0.00
    2   18    6      0.39      0.00
    3   18    6     -0.19      0.00
    4   18    6     -0.80      0.00
    5   18    6      1.00      0.00
    6   18    6     -0.10      0.00
    7   18    6     -0.32      0.00
    8   18    6     -0.07      0.00
    9   18    6      0.98      0.00
   10   18    6      0.22      0.00
   11   18    6      0.25      0.00
   12   18    6      0.41      0.00
   13   18    6     -0.38      0.00
    0   19    6     -0.06      0.00
    1   19    6     -0.55      0.00
    2   19    6      0.64      0.00
    3   19    6      1.30      0.00
    4   19    6     -0.09      0.00
    5   19    6      0.87      0.00
    6   19    6      1.42      0.00
    7   19    6      1.61      0.00
    8   19    6      1.10      0.00
    9   19    6      0.59      0.00
   10   19    6     -0.95      0.00
   11   19    6     -1.05      0.00
    4   20    6      0.21      0.00
    5   20    6     -0.57      0.00
    6   20    6     -1.03      0.00
    7   20    6     -1.41      0.00
    8   20    6     -0.87      0.00
   -4  -18    7     -0.57      0.00
   -3  -18    7     -0.31      0.00
   -7  -17    7     -0.97      0.00
    4  -17    7      0.20      0.00
   -8  -16    7      1.22      0.00
   -9  -15    7     -2.55      0.00
    5   13    7      0.70      0.00
    6   13    7     -0.84      0.00
    3   14    7     -2.52      0.00
    4   14    7     -1.17      0.00
    5   14    7     -1.03      0.00
    6   14    7     -2.37      0.00
    7   14    7     -0.22      0.00
    8   14    7     -0.52      0.00
    2   15    7     -0.04      0.00
    3   15    7     -1.60      0.00
    4   15    7     -1.01      0.00
    5   15    7      0.63      0.00
    6   15    7     -0.25      0.00
    7   15    7      0.54      0.00
    8   15    7     -0.96      0.00
    9   15    7     -0.29      0.00
    1   16    7     -1.80      0.00
    2   16    7     -1.53      0.00
    3   16    7     -0.46      0.00
    4   16    7      0.39      0.00
    5   16    7      0.50      0.00
    6   16    7      0.01      0.00
    7   16    7      0.76      0.00
    8   16    7      0.27      0.00
    9   16    7     -0.13      0.00
   10   16    7      0.12      0.00
   -3   17    7      0.87      0.00
    1   17    7      2.54      0.00
    2   17    7      1.39      0.00
    3   17    7     -0.74      0.00
    4   17    7     -0.20      0.00
    5   17    7     -0.16      0.00
    6   17    7     -0.09      0.00
    7   17    7     -0.38      0.00
    8   17    7      0.47      0.00
    9   17    7     -0.19      0.00
   10   17    7      0.20      0.00
   11   17    7      0.04      0.00
   12   17    7     -1.23      0.00
   13   17    7     -0.83      0.00
   -1   18    7      1.11      0.00
    0   18    7     -0.28      0.00
    1   18    7      0.83      0.00
    2   18    7      1.77      0.00
    3   18    7      0.52      0.00
    4   18    7      0.59      0.00
    5   18    7      0.10      0.00
    6   18    7      1.32      0.00
    7   18    7      0.38      0.00
    8   18    7      0.57      0.00
    9   18    7     -0.02      0.00
   10   18    7     -0.01      0.00
   11   18    7      0.42      0.00
   12   18    7      0.50      0.00
   13   18    7      0.72      0.00
    1   19    7     -0.73      0.00
    2   19    7     -0.22      0.00
    3   19    7      0.02      0.00
    4   19    7      0.62      0.00
    5   19    7     -0.71      0.00
    6   19    7     -0.25      0.00
    7   19    7     -0.06      0.00
    8   19    7      0.13      0.00
    9   19    7      0.17      0.00
   10   19    7      0.06      0.00
   11   19    7     -0.43      0.00
    5   20    7      0.47      0.00
    6   20    7      0.53      0.00
    7   20    7      0.39      0.00
    8   20    7     -0.17      0.00
   -5  -17    8      0.19      0.00
   -4  -17    8      0.04      0.00
    3  -17    8      0.62      0.00
    8  -15    8      0.14      0.00
   17   -3    8      0.35      0.00
   18   -3    8     -0.37      0.00
    5   14    8     -1.09      0.00
    6   14    8      0.11      0.00
    7   14    8     -1.86      0.00
    3   15    8      0.30      0.00
    4   15    8     -0.88      0.00
    5   15    8     -1.04      0.00
    6   15    8      1.20      0.00
    7   15    8     -0.85      0.00
    8   15    8     -1.60      0.00
    9   15    8     -1.18      0.00
    2   16    8     -0.26      0.00
    3   16    8      1.16      0.00
    4   16    8      1.27      0.00
    5   16    8      0.38      0.00
    6   16    8      0.94      0.00
    7   16    8      0.78      0.00
    8   16    8      0.44      0.00
    9   16    8      0.06      0.00
   10   16    8      0.47      0.00
   11   16    8      0.36      0.00
    1   17    8      1.39      0.00
    2   17    8      0.79      0.00
    3   17    8      0.38      0.00
    4   17    8     -0.45      0.00
    5   17    8      0.25      0.00
    6   17    8      0.00      0.00
    7   17    8      0.18      0.00
    8   17    8     -0.13      0.00
    9   17    8     -0.03      0.00
   10   17    8     -0.50      0.00
   11   17    8     -0.02      0.00
   12   17    8      0.02      0.00
   13   17    8     -0.76      0.00
   14   17    8     -1.06      0.00
    0   18    8      1.13      0.00
    1   18    8      0.46      0.00
    2   18    8      0.31      0.00
    3   18    8      0.83      0.00
    4   18    8     -1.71      0.00
    5   18    8     -0.90      0.00
    6   18    8      0.10      0.00
    7   18    8      1.28      0.00
    8   18    8      0.57      0.00
    9   18    8      0.22      0.00
   10   18    8     -0.34      0.00
   11   18    8     -0.51      0.00
   12   18    8      0.40      0.00
   13   18    8      0.53      0.00
    2   19    8     -1.08      0.00
    3   19    8      0.63      0.00
    4   19    8      0.54      0.00
    5   19    8      0.63      0.00
    6   19    8      0.22      0.00
    7   19    8      0.43      0.00
    8   19    8     -0.01      0.00
    9   19    8     -0.31      0.00
   10   19    8      0.13      0.00
   11   19    8      0.12      0.00
   -3  -17    9     -0.77      0.00
    7  -15    9     -1.66      0.00
    5   15    9      0.16      0.00
    6   15    9      0.11      0.00
    7   15    9      1.80      0.00
    8   15    9      0.07      0.00
    3   16    9      0.51      0.00
    4   16    9      1.14      0.00
    5   16    9      0.45      0.00
    6   16    9     -1.29      0.00
    7   16    9     -0.19      0.00
    8   16    9      0.11      0.00
    9   16    9     -0.58      0.00
   10   16    9     -0.60      0.00
   11   16    9      0.06      0.00
    2   17    9      0.00      0.00
    3   17    9     -0.11      0.00
    4   17    9      0.29      0.00
    5   17    9     -0.20      0.00
    6   17    9     -0.29      0.00
    7   17    9      0.06      0.00
    8   17    9      0.58      0.00
    9   17    9      0.05      0.00
   10   17    9     -0.59      0.00
   11   17    9     -0.02      0.00
   12   17    9      0.98      0.00
   13   17    9      0.53      0.00
   14   17    9      0.57      0.00
    0   18    9      1.27      0.00
    1   18    9      0.40      0.00
    2   18    9     -0.06      0.00
    3   18    9     -1.29      0.00
    4   18    9     -0.25      0.00
    5   18    9     -0.60      0.00
    6   18    9      0.64      0.00
    7   18    9      1.68      0.00
    8   18    9      1.18      0.00
    9   18    9      0.15      0.00
   10   18    9     -0.48      0.00
   11   18    9      0.02      0.00
   12   18    9      0.54      0.00
   13   18    9      0.12      0.00
    3   19    9     -0.90      0.00
    4   19    9      0.54      0.00
    5   19    9      0.45      0.00
    6   19    9     -0.32      0.00
    7   19    9     -0.43      0.00
    8   19    9     -0.35      0.00
    9   19    9      0.03      0.00
   10   19    9     -0.12      0.00
   11   19    9      0.14      0.00
    1  -16   10     -2.05      0.00
   -6  -15   10     -1.71      0.00
    9  -14   10      0.49      0.00
   11  -12   10     -0.88      0.00
   19    8   10     -0.57      0.00
    5   16   10      0.93      0.00
    6   16   10     -0.06      0.00
    7   16   10     -0.43      0.00
    8   16   10      1.93      0.00
    9   16   10      2.26      0.00
   10   16   10      0.32      0.00
    0   17   10     -0.14      0.00
    3   17   10     -0.60      0.00
    4   17   10     -1.38      0.00
    5   17   10     -0.36      0.00
    6   17   10      0.59      0.00
    7   17   10     -0.23      0.00
    8   17   10     -0.83      0.00
    9   17   10     -1.59      0.00
   10   17   10     -1.48      0.00
   11   17   10     -0.47      0.00
   12   17   10      0.69      0.00
   13   17   10      1.12      0.00
   14   17   10     -0.91      0.00
    1   18   10     -0.25      0.00
    2   18   10     -1.79      0.00
    3   18   10     -1.64      0.00
    4   18   10     -1.64      0.00
    5   18   10     -0.74      0.00
    6   18   10     -0.33      0.00
    7   18   10     -0.38      0.00
    8   18   10      0.81      0.00
    9   18   10      0.73      0.00
   10   18   10      0.63      0.00
   11   18   10      0.19      0.00
   12   18   10     -0.15      0.00
    5   19   10      1.03      0.00
    6   19   10      1.81      0.00
    7   19   10      0.37      0.00
    8   19   10      0.06      0.00
    9   19   10     -0.34      0.00
   10   19   10     -0.06      0.00
    1  -16   11      0.18      0.00
    3  -16   11      0.64      0.00
   -6  -14   11      1.28      0.00
   19   10   11      0.81      0.00
   18   12   11      0.62      0.00
   15   16   11     -0.47      0.00
    3   17   11     -0.74      0.00
    5   17   11      0.31      0.00
    6   17   11     -0.05      0.00
    7   17   11      0.17      0.00
    8   17   11     -0.92      0.00
    9   17   11     -1.03      0.00
   10   17   11     -0.71      0.00
   11   17   11     -0.24      0.00
   12   17   11      0.65      0.00
   13   17   11      0.27      0.00
   14   17   11      0.71      0.00
    3   18   11     -0.73      0.00
    4   18   11     -1.07      0.00
    5   18   11     -0.26      0.00
    6   18   11      0.45      0.00
    7   18   11      1.40      0.00
    8   18   11      0.31      0.00
    9   18   11      0.25      0.00
   10   18   11      0.28      0.00
   11   18   11      0.51      0.00
   12   18   11      0.67      0.00
   11  -12   12      0.17      0.00
   16   15   12      0.24      0.00
   14   16   12     -1.51      0.00
   15   16   12     -0.55      0.00
    6   17   12     -0.13      0.00
    7   17   12      0.34      0.00
    8   17   12      1.01      0.00
    9   17   12      0.78      0.00
   10   17   12      0.29      0.00
   11   17   12      0.81      0.00
   12   17   12      0.44      0.00
   13   17   12      0.57      0.00
    4   18   12      0.40      0.00
    5   18   12      0.44      0.00
    6   18   12      0.50      0.00
    7   18   12     -0.71      0.00
    8   18   12     -0.50      0.00
    9   18   12     -0.45      0.00
   10   18   12     -0.43      0.00
   11   18   12     -0.31      0.00
   11  -11   13      0.53      0.00
   15   14   13     -1.00      0.00
   13   16   13     -0.92      0.00
    3   17   13     -1.39      0.00
    4   17   13     -1.65      0.00
    5   17   13     -1.05      0.00
   10   17   13      1.10      0.00
   11   17   13      1.04      0.00
   12   17   13      1.06      0.00
    7   18   13     -0.16      0.00
    8   18   13      0.15      0.00
    9   18   13      0.46      0.00
    3  -14   14      0.77      0.00
   19    3   14      0.71      0.00
   15   13   14      0.88      0.00
   16   13   14      1.70      0.00
   16   14   14     -0.68      0.00
   14   15   14     -0.45      0.00
   12   16   14      0.42      0.00
   13   16   14      0.10      0.00
    5   17   14     -0.80      0.00
    7   17   14     -1.81      0.00
    9   17   14      0.88      0.00
   10   17   14      0.54      0.00
   11   17   14      0.85      0.00
   16   12   15     -1.18      0.00
   16   13   15     -1.49      0.00
   18    8   16     -1.22      0.00
   18    9   16     -0.44      0.00
   17   11   16     -0.09      0.00
   14   14   16     -0.15      0.00
   13   15   16      0.99      0.00
    9   16   16     -0.39      0.00
   17   10   17     -0.68      0.00
   16    6   19      2.11      0.00
   16    8   19     -1.73      0.00
    0    0    0      0.00      0.00
# SQUEEZE RESULTS (Version = 270319)
# Note: Data are Listed for all Voids in the P1 Unit Cell
# i.e. Centre of Gravity, Solvent Accessible Volume,
# Recovered number of Electrons in the Void and
# Details about the Squeezed Material
loop_
  _platon_squeeze_void_nr
  _platon_squeeze_void_average_x
  _platon_squeeze_void_average_y
  _platon_squeeze_void_average_z
  _platon_squeeze_void_volume
  _platon_squeeze_void_count_electrons
  _platon_squeeze_void_content
   1 -0.002 -0.002  0.003      1310       378 ' '
# Missing Reflections Below sin(th)/lambda = 0.25
loop_
  _platon_missing_refln_index_h
  _platon_missing_refln_index_k
  _platon_missing_refln_index_l
  _platon_missing_refln_theta
    2    6    2     7.830
    2    7    2     9.083
_platon_squeeze_void_probe_radius                  1.20
_platon_squeeze_details
)
TITL asflex_OH in P-1
CELL   15.2100   15.6500   17.0990     82.34     65.07     75.54
SPGR P-1
# Solvent Accessible Volume =      1312
# Electrons Found in S.A.V. =       378
# Note: Atoms in Void are Labelled as Cxxx and Qxxx for all Others
C101 0.379 0.860 0.482 !       4.35 eA-3
C102 0.767 0.208 0.049 !       4.30 eA-3
C103 0.703 0.133 0.339 !       4.25 eA-3
Q104 0.845 0.397 0.190 !       3.39 eA-3
C105 0.737 0.276 0.206 !       3.30 eA-3
C106 0.435 0.015 0.453 !       2.53 eA-3
C107 0.077 0.635 0.371 !       2.14 eA-3
C108 0.982 0.892 0.200 !       2.08 eA-3
C109 0.158 0.618 0.352 !       1.99 eA-3
C110 0.065 0.761 0.089 !       1.75 eA-3
C111 0.046 0.672 0.376 !       1.66 eA-3
C112 0.043 0.035 0.079 !       1.61 eA-3
C113 0.044 0.677 0.458 !       1.61 eA-3
Q114 0.869 0.587 0.293 !       1.59 eA-3
C115 0.845 0.028 0.080 !       1.58 eA-3
C116 0.974 0.722 0.488 !       1.54 eA-3
C117 0.096 0.434 0.734 !       1.54 eA-3
C118 0.062 0.474 0.091 !       1.53 eA-3
C119 0.088 0.713 0.097 !       1.53 eA-3
Q120 1.006 0.322 0.391 !       1.44 eA-3
C121 0.063 0.081 0.046 !       1.42 eA-3
C122 0.054 0.131 0.046 !       1.32 eA-3
C123 0.987 0.627 0.109 !       1.31 eA-3
C124 0.028 0.594 0.128 !       1.24 eA-3
C125 0.062 0.659 0.277 !       1.21 eA-3
C126 0.064 0.177 0.126 !       1.21 eA-3
C127 0.938 0.505 0.406 !       1.18 eA-3
C128 0.042 0.108 0.096 !       1.17 eA-3
C129 0.984 0.485 0.388 !       1.15 eA-3
Q130 0.372 0.188 0.426 !       1.13 eA-3
C131 0.013 0.068 0.124 !       1.13 eA-3
C132 0.063 0.503 0.394 !       1.13 eA-3
C133 0.991 0.099 0.142 !       1.11 eA-3
C134 0.011 0.633 0.124 !       1.09 eA-3
C135 0.090 0.454 0.422 !       1.08 eA-3
C136 0.878 0.846 0.031 !       1.08 eA-3
C137 1.005 0.676 0.334 !       1.07 eA-3
C138 0.990 0.080 0.091 !       1.04 eA-3
C139 0.999 0.148 0.089 !       1.01 eA-3
C140 0.046 0.184 0.082 !       0.99 eA-3
C141 0.973 0.628 0.063 !       0.98 eA-3
C142 0.080 0.017 0.014 !       0.96 eA-3
C143 0.886 0.908 0.029 !       0.95 eA-3
C144 0.051 0.953 0.108 !       0.95 eA-3
C145 0.076 0.238 0.073 !       0.93 eA-3
Q146 0.999 0.319 0.216 !       0.90 eA-3
C147 0.103 0.961 0.008 !       0.89 eA-3
C148 0.934 0.809 0.023 !       0.89 eA-3
C149 0.927 0.467 0.029 !       0.88 eA-3
C150 0.039 0.665 0.127 !       0.87 eA-3
C151 0.882 0.531 0.417 !       0.86 eA-3
C152 0.995 0.571 0.193 !       0.86 eA-3
C153 0.983 0.455 0.013 !       0.85 eA-3
C154 0.915 0.944 0.030 !       0.83 eA-3
Q155 0.528 0.139 0.310 !       0.82 eA-3
C156 0.081 0.923 0.066 !       0.82 eA-3
C157 0.123 0.255 0.064 !       0.80 eA-3
C158 0.059 0.568 0.454 !       0.79 eA-3
C159 0.031 0.226 0.125 !       0.78 eA-3
C160 0.941 0.419 0.038 !       0.77 eA-3
C161 0.045 0.335 0.112 !       0.76 eA-3
C162 0.060 0.872 0.112 !       0.76 eA-3
C163 0.940 0.032 0.078 !       0.76 eA-3
Q164 0.387 0.203 0.506 !       0.76 eA-3
C165 0.058 0.263-0.005 !       0.76 eA-3
Q166 0.534 0.355 0.390 !       0.76 eA-3
C167 0.108 0.414 0.429 !       0.75 eA-3
Q168 0.480 0.428 0.055 !       0.75 eA-3
C169 0.020 0.627 0.015 !       0.74 eA-3
C170 0.949 0.054 0.035 !       0.73 eA-3
C171 0.049 0.480 0.471 !       0.72 eA-3
C172 0.997 0.731 0.242 !       0.71 eA-3
C173 0.981 0.692 0.108 !       0.71 eA-3
C174 0.184 0.465 0.378 !       0.70 eA-3
C175 0.060 0.705 0.189 !       0.70 eA-3
C176 0.168 0.504 0.345 !       0.70 eA-3
C177 0.997 0.519 0.171 !       0.69 eA-3
C178 0.033 0.797 0.160 !       0.69 eA-3
Q179 0.111 0.403 0.121 !       0.69 eA-3
C180 0.019 0.720 0.170 !       0.68 eA-3
C181 0.111 0.556 0.433 !       0.67 eA-3
C182 0.957 0.837 0.020 !       0.67 eA-3
C183 0.827 0.563 0.394 !       0.67 eA-3
C184 0.020 0.488 0.011 !       0.67 eA-3
Q185 0.125 0.456 0.035 !       0.66 eA-3
C186 0.900 0.749 0.359 !       0.66 eA-3
C187 0.858 0.235 0.043 !       0.65 eA-3
C188 1.002 0.815 0.042 !       0.63 eA-3
C189 0.814 0.851 0.047 !       0.63 eA-3
Q190 0.215 0.425 0.359 !       0.63 eA-3
C191 0.969 0.780 0.263 !       0.62 eA-3
Q192 0.485 0.924 0.407 !       0.62 eA-3
Q193 0.605 0.964 0.434 !       0.62 eA-3
Q194 0.190 0.295 0.404 !       0.62 eA-3
C195 0.073 0.586 0.009 !       0.62 eA-3
C196 0.034 0.689 0.218 !       0.61 eA-3
Q197 0.165 0.187 0.125 !       0.61 eA-3
C198 0.878 0.434 0.031 !       0.61 eA-3
C199 1.000 0.612 0.212 !       0.61 eA-3
)
;
_shelx_fab_checksum              17803
loop_
_space_group_symop_operation_xyz
'x, y, z'
'-x, -y, -z'
loop_
_atom_site_label
_atom_site_type_symbol
_atom_site_fract_x
_atom_site_fract_y
_atom_site_fract_z
_atom_site_U_iso_or_equiv
_atom_site_adp_type
_atom_site_occupancy
_atom_site_site_symmetry_order
_atom_site_calc_flag
_atom_site_refinement_flags_posn
_atom_site_refinement_flags_adp
_atom_site_refinement_flags_occupancy
_atom_site_disorder_assembly
_atom_site_disorder_group
Ni1 Ni 0.500000 1.000000 0.000000 0.0740(3) Uani 1 2 d S U P . .
N1 N 0.6118(3) 0.9624(3) -0.1187(2) 0.0774(11) Uani 1 1 d . U . . .
H1 H 0.634535 0.897409 -0.116673 0.093 Uiso 1 1 calc R U . . .
N2 N 0.4965(4) 0.9517(3) -0.1824(2) 0.0902(12) Uani 1 1 d . U . . .
N3 N 0.3942(3) 0.9651(3) -0.0255(2) 0.0810(11) Uani 1 1 d . U . . .
H3 H 0.402701 0.900159 -0.017330 0.097 Uiso 1 1 calc R U . . .
C1 C 0.6925(4) 1.0019(4) -0.1266(3) 0.0872(14) Uani 1 1 d . U . . .
H1A H 0.679306 1.064117 -0.144831 0.105 Uiso 1 1 calc R U . . .
H1B H 0.754640 0.971809 -0.171087 0.105 Uiso 1 1 calc R U . . .
C2 C 0.5805(4) 0.9862(4) -0.1908(3) 0.0904(15) Uani 1 1 d . U . . .
H2A H 0.563469 1.050698 -0.196430 0.108 Uiso 1 1 calc R U . . .
H2B H 0.636961 0.964726 -0.244166 0.108 Uiso 1 1 calc R U . . .
C3 C 0.3989(4) 0.9884(4) -0.1154(3) 0.0971(16) Uani 1 1 d . U . . .
H3A H 0.347933 0.965964 -0.122197 0.116 Uiso 1 1 calc R U . . .
H3B H 0.384193 1.052770 -0.123245 0.116 Uiso 1 1 calc R U . . .
C4 C 0.2962(4) 1.0050(4) 0.0403(3) 0.0893(15) Uani 1 1 d . U . . .
H4A H 0.246021 0.973301 0.045071 0.107 Uiso 1 1 calc R U . . .
H4B H 0.275571 1.066967 0.024517 0.107 Uiso 1 1 calc R U . . .
C5 C 0.5206(5) 0.8561(4) -0.1928(4) 0.1045(17) Uani 1 1 d . U . . .
H5A H 0.510172 0.826681 -0.136249 0.125 Uiso 1 1 calc R U . . .
H5B H 0.591247 0.838187 -0.230237 0.125 Uiso 1 1 calc R U . . .
C6 C 0.4592(8) 0.8229(7) -0.2315(6) 0.178(4) Uani 1 1 d . U . . .
H6A H 0.480477 0.758688 -0.237079 0.214 Uiso 1 1 calc R U . . .
H6B H 0.388565 0.836892 -0.193042 0.214 Uiso 1 1 calc R U . . .
O1 O 0.4733(9) 0.8621(6) -0.3088(5) 0.274(5) Uani 1 1 d . U . . .
Ni2 Ni 0.500000 0.500000 0.500000 0.0714(3) Uani 1 2 d S U P . .
N4 N 0.6371(3) 0.4899(3) 0.5014(2) 0.0820(11) Uani 1 1 d . U . . .
H4 H 0.678267 0.516576 0.446415 0.098 Uiso 1 1 calc R U . . .
N5 N 0.5842(4) 0.6305(3) 0.5750(3) 0.1033(13) Uani 1 1 d D U . . .
N6 N 0.4487(3) 0.6303(3) 0.5338(3) 0.0835(11) Uani 1 1 d . U . . .
H6 H 0.477470 0.666946 0.481453 0.100 Uiso 1 1 calc R U . . .
C7 C 0.6828(4) 0.3949(4) 0.5016(3) 0.0909(15) Uani 1 1 d . U . . .
H7A H 0.655329 0.368873 0.559900 0.109 Uiso 1 1 calc R U . . .
H7B H 0.754691 0.386523 0.482937 0.109 Uiso 1 1 calc R U . . .
C8 C 0.6325(4) 0.5390(4) 0.5738(3) 0.0934(15) Uani 1 1 d . U . . .
H8A H 0.597068 0.510409 0.628989 0.112 Uiso 1 1 calc R U . . .
H8B H 0.700269 0.534729 0.568339 0.112 Uiso 1 1 calc R U . . .
C9 C 0.4773(5) 0.6512(4) 0.5996(4) 0.0998(16) Uani 1 1 d . U . . .
H9A H 0.451685 0.714231 0.611345 0.120 Uiso 1 1 calc R U . . .
H9B H 0.446001 0.618153 0.653106 0.120 Uiso 1 1 calc R U . . .
C10 C 0.3390(4) 0.6491(4) 0.5594(3) 0.0949(16) Uani 1 1 d . U . . .
H10A H 0.313227 0.712978 0.557485 0.114 Uiso 1 1 calc R U . . .
H10B H 0.306232 0.626775 0.618477 0.114 Uiso 1 1 calc R U . . .
C11A C 0.6383(13) 0.6857(11) 0.5031(8) 0.111(4) Uani 0.496(11) 1 d D U P A 1
H11A H 0.595826 0.704166 0.471184 0.133 Uiso 0.496(11) 1 calc R U P A 1
H11B H 0.696264 0.643518 0.466278 0.133 Uiso 0.496(11) 1 calc R U P A 1
C12A C 0.680(2) 0.7697(15) 0.4978(10) 0.227(9) Uani 0.496(11) 1 d D U P A 1
H12A H 0.752719 0.754009 0.477128 0.273 Uiso 0.496(11) 1 calc R U P A 1
H12B H 0.662377 0.814724 0.458269 0.273 Uiso 0.496(11) 1 calc R U P A 1
O2A O 0.6368(11) 0.8015(11) 0.5826(9) 0.204(7) Uani 0.496(11) 1 d D U P A 1
H2A1 H 0.673808 0.819633 0.596321 0.306 Uiso 0.496(11) 1 d . U P A 1
C11B C 0.6402(15) 0.6863(14) 0.5055(11) 0.183(7) Uani 0.504(11) 1 d D U P A 2
H11C H 0.600395 0.746709 0.509930 0.219 Uiso 0.504(11) 1 calc R U P A 2
H11D H 0.653906 0.664194 0.449642 0.219 Uiso 0.504(11) 1 calc R U P A 2
C12B C 0.7381(15) 0.6871(16) 0.5103(11) 0.213(8) Uani 0.504(11) 1 d D U P A 2
H12C H 0.778597 0.626989 0.498779 0.255 Uiso 0.504(11) 1 calc R U P A 2
H12D H 0.771951 0.724750 0.461849 0.255 Uiso 0.504(11) 1 calc R U P A 2
O2B O 0.7427(16) 0.7134(14) 0.5833(11) 0.266(9) Uani 0.504(11) 1 d D U P A 2
H2B1 H 0.792907 0.711137 0.580709 0.399 Uiso 0.504(11) 1 d . U P A 2
Ni3 Ni 0.500000 0.500000 0.000000 0.0787(3) Uani 1 2 d S U P . .
N7 N 0.4844(3) 0.5627(3) -0.1091(2) 0.0867(12) Uani 1 1 d . U . . .
H7 H 0.471953 0.627180 -0.103191 0.104 Uiso 1 1 calc R U . . .
N8 N 0.6662(4) 0.5491(3) -0.1902(3) 0.1000(13) Uani 1 1 d . U . . .
N9 N 0.6454(3) 0.5091(3) -0.0417(3) 0.0910(12) Uani 1 1 d . U . . .
H9 H 0.645212 0.570369 -0.032602 0.109 Uiso 1 1 calc R U . . .
C13 C 0.3934(4) 0.5418(4) -0.1077(3) 0.0948(15) Uani 1 1 d . U . . .
H13A H 0.408442 0.481565 -0.126806 0.114 Uiso 1 1 calc R U . . .
H13B H 0.370119 0.582568 -0.147120 0.114 Uiso 1 1 calc R U . . .
C14 C 0.5729(5) 0.5376(4) -0.1895(3) 0.1054(17) Uani 1 1 d . U . . .
H14A H 0.580450 0.475460 -0.199594 0.126 Uiso 1 1 calc R U . . .
H14B H 0.561692 0.572796 -0.237570 0.126 Uiso 1 1 calc R U . . .
C15 C 0.7059(5) 0.4917(4) -0.1351(3) 0.1018(16) Uani 1 1 d . U . . .
H15A H 0.773449 0.498695 -0.150085 0.122 Uiso 1 1 calc R U . . .
H15B H 0.709907 0.430471 -0.145345 0.122 Uiso 1 1 calc R U . . .
C16 C 0.6857(4) 0.4496(4) 0.0175(3) 0.0961(16) Uani 1 1 d . U . . .
H16A H 0.704508 0.388272 -0.000063 0.115 Uiso 1 1 calc R U . . .
H16B H 0.744757 0.466419 0.014952 0.115 Uiso 1 1 calc R U . . .
C17 C 0.6679(5) 0.6430(4) -0.1951(4) 0.1087(18) Uani 1 1 d . U . . .
H17A H 0.616331 0.670636 -0.142088 0.130 Uiso 1 1 calc R U . . .
H17B H 0.651921 0.671479 -0.243474 0.130 Uiso 1 1 calc R U . . .
C18 C 0.7662(6) 0.6591(5) -0.2067(5) 0.133(2) Uani 1 1 d . U . . .
H18A H 0.819211 0.619009 -0.250022 0.160 Uiso 1 1 calc R U . . .
H18B H 0.769851 0.719580 -0.229471 0.160 Uiso 1 1 calc R U . . .
O3 O 0.7846(4) 0.6471(3) -0.1284(3) 0.1383(16) Uani 1 1 d . U . . .
H3C H 0.741162 0.681893 -0.091686 0.208 Uiso 1 1 calc R U . . .
Ni4 Ni 0.000000 1.000000 0.500000 0.0861(3) Uani 1 2 d S U P . .
N10 N 0.0724(3) 1.1007(3) 0.4427(3) 0.1002(13) Uani 1 1 d . U . . .
H10 H 0.028592 1.155860 0.471351 0.120 Uiso 1 1 calc R U . . .
N11 N 0.0079(4) 1.1295(4) 0.3275(3) 0.1146(15) Uani 1 1 d D U . . .
N12 N -0.0870(3) 1.0265(3) 0.4312(3) 0.0949(13) Uani 1 1 d . U . . .
H12 H -0.142688 1.076189 0.459253 0.114 Uiso 1 1 calc R U . . .
C19 C 0.1604(5) 1.0809(5) 0.4640(4) 0.120(2) Uani 1 1 d . U . . .
H19A H 0.187001 1.134056 0.454812 0.144 Uiso 1 1 calc R U . . .
H19B H 0.212236 1.035149 0.426475 0.144 Uiso 1 1 calc R U . . .
C20 C 0.0941(5) 1.1137(5) 0.3483(4) 0.121(2) Uani 1 1 d . U . . .
H20A H 0.126571 1.163848 0.325781 0.145 Uiso 1 1 calc R U . . .
H20B H 0.141315 1.061154 0.318462 0.145 Uiso 1 1 calc R U . . .
C21 C -0.0354(5) 1.0549(5) 0.3386(3) 0.1134(18) Uani 1 1 d . U . . .
H21A H 0.016974 1.005236 0.308036 0.136 Uiso 1 1 calc R U . . .
H21B H -0.083290 1.069259 0.311977 0.136 Uiso 1 1 calc R U . . .
C22 C -0.1295(5) 0.9509(5) 0.4419(4) 0.113(2) Uani 1 1 d . U . . .
H22A H -0.080624 0.903971 0.403945 0.136 Uiso 1 1 calc R U . . .
H22B H -0.187337 0.967127 0.427118 0.136 Uiso 1 1 calc R U . . .
C23 C -0.0657(5) 1.2125(4) 0.3564(4) 0.144(2) Uani 1 1 d D U . . .
H23A H -0.096330 1.208570 0.419563 0.173 Uiso 1 1 calc R U . . .
H23B H -0.117798 1.213564 0.336623 0.173 Uiso 1 1 calc R U . . .
C24 C -0.0367(10) 1.3035(7) 0.3309(5) 0.228(5) Uani 1 1 d D U . . .
H24A H 0.014887 1.303574 0.272203 0.273 Uiso 1 1 calc R U . . .
H24B H -0.094505 1.350426 0.334448 0.273 Uiso 1 1 calc R U . . .
O4 O 0.0007(10) 1.3152(8) 0.3949(9) 0.352(6) Uani 1 1 d D U . . .
H4C H 0.000000 1.371084 0.403353 0.528 Uiso 1 1 d . U . . .
O5 O 0.5241(2) 0.8693(2) 0.05706(18) 0.0805(9) Uani 1 1 d . U . . .
O6 O 0.6492(3) 0.7860(2) -0.04414(19) 0.0941(11) Uani 1 1 d . U . . .
O7 O 0.5521(2) 0.5463(2) 0.36987(18) 0.0768(9) Uani 1 1 d . U . . .
O8 O 0.7177(3) 0.5293(3) 0.3097(2) 0.1088(12) Uani 1 1 d . U . . .
O9 O 0.4623(3) 0.6227(2) 0.05955(19) 0.0844(9) Uani 1 1 d . U . . .
O10 O 0.4013(3) 0.7365(2) -0.0131(2) 0.0892(10) Uani 1 1 d . U . . .
O11 O 0.1025(3) 0.9114(3) 0.4006(2) 0.0966(11) Uani 1 1 d . U . . .
O12 O 0.2293(3) 0.8532(3) 0.4361(2) 0.1075(12) Uani 1 1 d . U . . .
C25 C 0.5890(4) 0.7989(3) 0.0329(3) 0.0737(12) Uani 1 1 d . U . . .
C26 C 0.5953(4) 0.7302(3) 0.0996(3) 0.0694(12) Uani 1 1 d . U . . .
C27 C 0.5111(3) 0.7133(3) 0.1736(3) 0.0674(11) Uani 1 1 d . U . . .
C28 C 0.5286(4) 0.6547(3) 0.2376(3) 0.0694(12) Uani 1 1 d . U . . .
H28 H 0.473457 0.641899 0.286038 0.083 Uiso 1 1 calc R U . . .
C29 C 0.6224(4) 0.6148(3) 0.2337(3) 0.0749(12) Uani 1 1 d . U . . .
C30 C 0.7053(4) 0.6284(3) 0.1593(3) 0.0791(13) Uani 1 1 d . U . . .
H30 H 0.769944 0.600282 0.153367 0.095 Uiso 1 1 calc R U . . .
C31 C 0.6889(4) 0.6848(3) 0.0943(3) 0.0775(13) Uani 1 1 d . U . . .
H31 H 0.744360 0.692831 0.043710 0.093 Uiso 1 1 calc R U . . .
C32 C 0.6317(4) 0.5586(3) 0.3101(3) 0.0765(13) Uani 1 1 d . U . . .
C33 C 0.4128(4) 0.6998(4) 0.0531(3) 0.0762(13) Uani 1 1 d . U . . .
C34 C 0.3589(4) 0.7495(3) 0.1363(3) 0.0726(12) Uani 1 1 d . U . . .
C35 C 0.4072(3) 0.7527(3) 0.1910(2) 0.0644(11) Uani 1 1 d . U . . .
C36 C 0.3452(4) 0.7927(3) 0.2714(3) 0.0689(11) Uani 1 1 d . U . . .
H36 H 0.374893 0.795741 0.309000 0.083 Uiso 1 1 calc R U . . .
C37 C 0.2475(4) 0.8264(3) 0.2978(3) 0.0707(12) Uani 1 1 d . U . . .
C38 C 0.2021(4) 0.8244(3) 0.2430(3) 0.0759(13) Uani 1 1 d . U . . .
H38 H 0.133722 0.848256 0.260460 0.091 Uiso 1 1 calc R U . . .
C39 C 0.2571(4) 0.7872(3) 0.1620(3) 0.0761(13) Uani 1 1 d . U . . .
H39 H 0.226080 0.787250 0.124698 0.091 Uiso 1 1 calc R U . . .
C40 C 0.1868(4) 0.8680(4) 0.3849(3) 0.0838(14) Uani 1 1 d . U . . .
O1S O 0.7764(7) 0.9660(6) 0.2743(6) 0.235(4) Uani 1 1 d . U . . .
N1S N 0.6944(7) 0.8586(6) 0.2779(6) 0.185(3) Uani 1 1 d . U . . .
C1S C 0.6965(10) 0.9374(8) 0.2942(8) 0.190(4) Uani 1 1 d . U . . .
H1S H 0.635341 0.976129 0.322485 0.228 Uiso 1 1 calc R U . . .
C2S C 0.6014(8) 0.8365(7) 0.2921(6) 0.197(4) Uani 1 1 d . U . . .
H2S1 H 0.550132 0.890033 0.301279 0.296 Uiso 1 1 calc R U . . .
H2S2 H 0.582420 0.797253 0.342496 0.296 Uiso 1 1 calc R U . . .
H2S3 H 0.609723 0.807455 0.242003 0.296 Uiso 1 1 calc R U . . .
C3S C 0.7838(12) 0.7935(11) 0.2387(16) 0.401(13) Uani 1 1 d . U . . .
H3S1 H 0.812763 0.779781 0.191792 0.601 Uiso 1 1 d . U . . .
H3S2 H 0.773746 0.735723 0.285625 0.601 Uiso 1 1 d . U . . .
H3S3 H 0.835302 0.810049 0.264991 0.601 Uiso 1 1 d . U . . .
loop_
_atom_site_aniso_label
_atom_site_aniso_U_11
_atom_site_aniso_U_22
_atom_site_aniso_U_33
_atom_site_aniso_U_23
_atom_site_aniso_U_13
_atom_site_aniso_U_12
Ni1 0.0818(6) 0.0807(5) 0.0380(4) -0.0023(4) -0.0096(4) -0.0070(4)
N1 0.085(3) 0.083(3) 0.045(2) -0.0050(17) -0.0126(19) -0.008(2)
N2 0.109(3) 0.096(3) 0.050(2) -0.006(2) -0.021(2) -0.016(3)
N3 0.094(3) 0.084(2) 0.0439(19) -0.0020(17) -0.0145(19) -0.008(2)
C1 0.081(4) 0.100(4) 0.052(3) -0.005(2) -0.003(2) -0.012(3)
C2 0.099(4) 0.109(4) 0.040(2) -0.005(2) -0.009(2) -0.015(3)
C3 0.102(4) 0.116(4) 0.058(3) 0.006(3) -0.020(3) -0.023(3)
C4 0.080(3) 0.104(4) 0.060(3) -0.006(3) -0.012(3) -0.005(3)
C5 0.129(5) 0.101(4) 0.069(3) -0.001(3) -0.031(3) -0.017(3)
C6 0.218(9) 0.233(9) 0.139(7) 0.001(6) -0.120(7) -0.061(7)
O1 0.457(14) 0.235(8) 0.156(6) -0.040(5) -0.156(8) -0.041(8)
Ni2 0.0772(6) 0.0825(5) 0.0454(4) -0.0014(4) -0.0203(4) -0.0103(4)
N4 0.081(3) 0.100(3) 0.052(2) 0.0023(19) -0.018(2) -0.016(2)
N5 0.115(4) 0.116(3) 0.084(3) -0.015(2) -0.039(3) -0.029(3)
N6 0.092(3) 0.088(3) 0.063(2) -0.0069(19) -0.025(2) -0.016(2)
C7 0.084(4) 0.104(4) 0.069(3) -0.011(3) -0.022(3) -0.005(3)
C8 0.089(4) 0.122(4) 0.072(3) -0.013(3) -0.033(3) -0.021(3)
C9 0.107(4) 0.098(4) 0.092(4) -0.017(3) -0.036(3) -0.019(3)
C10 0.094(4) 0.094(4) 0.074(3) -0.006(3) -0.023(3) 0.000(3)
C11A 0.117(8) 0.165(9) 0.101(8) 0.022(7) -0.081(7) -0.063(8)
C12A 0.318(19) 0.176(14) 0.190(13) -0.049(11) -0.062(14) -0.108(12)
O2A 0.191(14) 0.236(15) 0.196(12) -0.052(10) -0.059(10) -0.075(12)
C11B 0.176(11) 0.135(10) 0.143(12) -0.011(9) 0.036(9) -0.049(11)
C12B 0.240(13) 0.207(15) 0.171(12) 0.051(13) -0.028(13) -0.141(13)
O2B 0.32(2) 0.247(18) 0.176(14) -0.001(13) -0.040(14) -0.081(17)
Ni3 0.0860(7) 0.0879(6) 0.0463(4) -0.0142(4) -0.0172(4) -0.0025(5)
N7 0.099(3) 0.088(3) 0.060(2) -0.0117(19) -0.026(2) -0.004(2)
N8 0.112(4) 0.099(3) 0.064(3) -0.010(2) -0.014(3) -0.013(3)
N9 0.098(3) 0.094(3) 0.065(2) -0.016(2) -0.017(2) -0.014(2)
C13 0.105(4) 0.097(4) 0.079(4) -0.015(3) -0.039(3) -0.007(3)
C14 0.113(4) 0.125(4) 0.057(3) -0.016(3) -0.019(3) -0.010(4)
C15 0.111(4) 0.109(4) 0.068(3) -0.015(3) -0.021(3) -0.014(3)
C16 0.089(4) 0.109(4) 0.082(4) -0.013(3) -0.032(3) -0.006(3)
C17 0.123(5) 0.103(4) 0.069(3) -0.009(3) -0.008(3) -0.023(4)
C18 0.130(6) 0.132(5) 0.092(4) -0.016(4) 0.003(4) -0.030(4)
O3 0.116(4) 0.151(4) 0.117(4) -0.033(3) -0.021(3) -0.006(3)
Ni4 0.0648(6) 0.1237(8) 0.0552(5) -0.0309(5) -0.0087(4) -0.0084(5)
N10 0.079(3) 0.139(4) 0.069(3) -0.028(2) -0.009(2) -0.023(3)
N11 0.086(4) 0.174(5) 0.062(3) -0.014(3) -0.010(2) -0.019(3)
N12 0.075(3) 0.131(4) 0.065(2) -0.033(2) -0.016(2) -0.005(2)
C19 0.085(4) 0.162(6) 0.101(5) -0.039(4) -0.008(3) -0.041(4)
C20 0.102(4) 0.158(6) 0.071(3) -0.023(3) 0.002(3) -0.030(4)
C21 0.087(4) 0.175(5) 0.057(3) -0.038(3) -0.014(3) 0.000(4)
C22 0.085(4) 0.153(5) 0.103(5) -0.046(4) -0.030(4) -0.022(4)
C23 0.142(6) 0.153(5) 0.069(4) 0.005(4) -0.001(4) 0.006(4)
C24 0.312(13) 0.261(8) 0.098(6) 0.035(7) -0.026(7) -0.166(9)
O4 0.353(6) 0.354(6) 0.354(6) -0.015(2) -0.147(3) -0.079(2)
O5 0.088(2) 0.081(2) 0.0467(16) 0.0000(14) -0.0080(16) -0.0080(17)
O6 0.100(3) 0.093(2) 0.0472(18) 0.0014(15) -0.0035(17) 0.0017(19)
O7 0.075(2) 0.098(2) 0.0467(16) 0.0086(15) -0.0179(16) -0.0181(18)
O8 0.081(3) 0.156(4) 0.076(2) 0.023(2) -0.032(2) -0.017(2)
O9 0.096(3) 0.088(2) 0.0560(18) -0.0196(16) -0.0269(17) 0.0054(19)
O10 0.114(3) 0.098(2) 0.0474(18) -0.0048(16) -0.0293(18) -0.013(2)
O11 0.065(2) 0.144(3) 0.064(2) -0.041(2) -0.0114(17) 0.000(2)
O12 0.087(3) 0.152(3) 0.057(2) -0.035(2) -0.0145(19) 0.009(2)
C25 0.073(3) 0.084(3) 0.045(2) -0.009(2) -0.008(2) -0.008(2)
C26 0.066(3) 0.083(3) 0.041(2) -0.0040(19) -0.008(2) -0.008(2)
C27 0.072(3) 0.073(3) 0.047(2) -0.0069(19) -0.017(2) -0.007(2)
C28 0.072(3) 0.082(3) 0.042(2) -0.005(2) -0.013(2) -0.012(2)
C29 0.079(3) 0.086(3) 0.051(2) -0.006(2) -0.021(2) -0.009(3)
C30 0.071(3) 0.089(3) 0.060(3) -0.001(2) -0.014(2) -0.009(2)
C31 0.074(3) 0.091(3) 0.048(2) 0.003(2) -0.009(2) -0.016(3)
C32 0.078(4) 0.084(3) 0.058(3) 0.000(2) -0.023(3) -0.009(3)
C33 0.076(3) 0.091(3) 0.046(2) -0.012(2) -0.009(2) -0.016(3)
C34 0.075(3) 0.082(3) 0.047(2) -0.004(2) -0.017(2) -0.007(2)
C35 0.068(3) 0.074(3) 0.040(2) -0.0002(18) -0.015(2) -0.010(2)
C36 0.072(3) 0.080(3) 0.046(2) 0.000(2) -0.019(2) -0.012(2)
C37 0.064(3) 0.088(3) 0.049(2) -0.010(2) -0.010(2) -0.014(2)
C38 0.065(3) 0.092(3) 0.058(3) -0.012(2) -0.015(2) -0.008(2)
C39 0.070(3) 0.094(3) 0.054(3) -0.012(2) -0.017(2) -0.010(3)
C40 0.071(4) 0.116(4) 0.050(3) -0.019(3) -0.016(3) -0.004(3)
O1S 0.225(8) 0.259(8) 0.266(9) -0.080(7) -0.137(8) -0.023(6)
N1S 0.177(7) 0.164(6) 0.235(9) -0.058(6) -0.105(7) -0.004(5)
C1S 0.226(11) 0.160(8) 0.221(10) -0.049(7) -0.131(10) -0.010(7)
C2S 0.214(9) 0.231(11) 0.168(9) 0.004(8) -0.083(8) -0.081(8)
C3S 0.229(11) 0.264(15) 0.67(3) -0.26(2) -0.124(19) 0.029(11)
loop_
_atom_type_symbol
_atom_type_description
_atom_type_scat_dispersion_real
_atom_type_scat_dispersion_imag
_atom_type_scat_source
C C 0.0030 0.0016 'International Tables Vol C Tables 4.2.6.8 and 6.1.1.4'
H H 0.0000 0.0000 'International Tables Vol C Tables 4.2.6.8 and 6.1.1.4'
N N 0.0059 0.0032 'International Tables Vol C Tables 4.2.6.8 and 6.1.1.4'
O O 0.0105 0.0059 'International Tables Vol C Tables 4.2.6.8 and 6.1.1.4'
Ni Ni 0.3420 1.0875 'International Tables Vol C Tables 4.2.6.8 and 6.1.1.4'
loop_
_geom_angle_atom_site_label_1
_geom_angle_atom_site_label_2
_geom_angle_atom_site_label_3
_geom_angle
_geom_angle_site_symmetry_1
_geom_angle_site_symmetry_3
N3 Ni1 N3 180.0 . 2_675
N3 Ni1 N1 93.77(16) . .
N3 Ni1 N1 86.23(16) 2_675 .
N3 Ni1 N1 86.23(16) . 2_675
N3 Ni1 N1 93.77(16) 2_675 2_675
N1 Ni1 N1 180.0 . 2_675
N3 Ni1 O5 87.51(14) . .
N3 Ni1 O5 92.49(15) 2_675 .
N1 Ni1 O5 92.74(14) . .
N1 Ni1 O5 87.26(14) 2_675 .
N3 Ni1 O5 92.49(15) . 2_675
N3 Ni1 O5 87.51(15) 2_675 2_675
N1 Ni1 O5 87.26(14) . 2_675
N1 Ni1 O5 92.74(14) 2_675 2_675
O5 Ni1 O5 180.0 . 2_675
C1 N1 C2 113.8(4) . .
C1 N1 Ni1 104.9(3) . .
C2 N1 Ni1 113.7(3) . .
C1 N1 H1 108.1 . .
C2 N1 H1 108.1 . .
Ni1 N1 H1 108.1 . .
C2 N2 C5 113.3(5) . .
C2 N2 C3 117.6(4) . .
C5 N2 C3 116.3(5) . .
C4 N3 C3 111.2(4) . .
C4 N3 Ni1 107.6(3) . .
C3 N3 Ni1 115.4(3) . .
C4 N3 H3 107.5 . .
C3 N3 H3 107.5 . .
Ni1 N3 H3 107.5 . .
N1 C1 C4 111.3(4) . 2_675
N1 C1 H1A 109.4 . .
C4 C1 H1A 109.4 2_675 .
N1 C1 H1B 109.4 . .
C4 C1 H1B 109.4 2_675 .
H1A C1 H1B 108.0 . .
N2 C2 N1 115.0(4) . .
N2 C2 H2A 108.5 . .
N1 C2 H2A 108.5 . .
N2 C2 H2B 108.5 . .
N1 C2 H2B 108.5 . .
H2A C2 H2B 107.5 . .
N2 C3 N3 112.5(4) . .
N2 C3 H3A 109.1 . .
N3 C3 H3A 109.1 . .
N2 C3 H3B 109.1 . .
N3 C3 H3B 109.1 . .
H3A C3 H3B 107.8 . .
N3 C4 C1 106.9(4) . 2_675
N3 C4 H4A 110.3 . .
C1 C4 H4A 110.3 2_675 .
N3 C4 H4B 110.3 . .
C1 C4 H4B 110.3 2_675 .
H4A C4 H4B 108.6 . .
N2 C5 C6 115.0(6) . .
N2 C5 H5A 108.5 . .
C6 C5 H5A 108.5 . .
N2 C5 H5B 108.5 . .
C6 C5 H5B 108.5 . .
H5A C5 H5B 107.5 . .
O1 C6 C5 109.1(8) . .
O1 C6 H6A 109.9 . .
C5 C6 H6A 109.9 . .
O1 C6 H6B 109.9 . .
C5 C6 H6B 109.9 . .
H6A C6 H6B 108.3 . .
N6 Ni2 N6 180.0 2_666 .
N6 Ni2 N4 85.28(17) 2_666 .
N6 Ni2 N4 94.72(17) . .
N6 Ni2 N4 94.72(17) 2_666 2_666
N6 Ni2 N4 85.29(17) . 2_666
N4 Ni2 N4 180.0 . 2_666
N6 Ni2 O7 92.76(14) 2_666 .
N6 Ni2 O7 87.24(14) . .
N4 Ni2 O7 90.91(14) . .
N4 Ni2 O7 89.09(14) 2_666 .
N6 Ni2 O7 87.24(14) 2_666 2_666
N6 Ni2 O7 92.76(14) . 2_666
N4 Ni2 O7 89.09(14) . 2_666
N4 Ni2 O7 90.91(14) 2_666 2_666
O7 Ni2 O7 180.0 . 2_666
C7 N4 C8 114.1(4) . .
C7 N4 Ni2 107.0(3) . .
C8 N4 Ni2 113.2(3) . .
C7 N4 H4 107.4 . .
C8 N4 H4 107.4 . .
Ni2 N4 H4 107.4 . .
C8 N5 C9 117.4(5) . .
C8 N5 C11B 115.3(11) . .
C9 N5 C11B 115.7(10) . .
C8 N5 C11A 115.2(9) . .
C9 N5 C11A 114.2(8) . .
C9 N6 C10 114.0(4) . .
C9 N6 Ni2 113.5(3) . .
C10 N6 Ni2 105.8(3) . .
C9 N6 H6 107.8 . .
C10 N6 H6 107.8 . .
Ni2 N6 H6 107.8 . .
N4 C7 C10 108.2(4) . 2_666
N4 C7 H7A 110.1 . .
C10 C7 H7A 110.1 2_666 .
N4 C7 H7B 110.1 . .
C10 C7 H7B 110.1 2_666 .
H7A C7 H7B 108.4 . .
N5 C8 N4 113.5(4) . .
N5 C8 H8A 108.9 . .
N4 C8 H8A 108.9 . .
N5 C8 H8B 108.9 . .
N4 C8 H8B 108.9 . .
H8A C8 H8B 107.7 . .
N5 C9 N6 113.6(5) . .
N5 C9 H9A 108.8 . .
N6 C9 H9A 108.8 . .
N5 C9 H9B 108.8 . .
N6 C9 H9B 108.8 . .
H9A C9 H9B 107.7 . .
N6 C10 C7 109.4(4) . 2_666
N6 C10 H10A 109.8 . .
C7 C10 H10A 109.8 2_666 .
N6 C10 H10B 109.8 . .
C7 C10 H10B 109.8 2_666 .
H10A C10 H10B 108.2 . .
N5 C11A C12A 133.4(11) . .
N5 C11A H11A 103.9 . .
C12A C11A H11A 103.9 . .
N5 C11A H11B 103.9 . .
C12A C11A H11B 103.9 . .
H11A C11A H11B 105.4 . .
O2A C12A C11A 106.4(11) . .
O2A C12A H12A 110.5 . .
C11A C12A H12A 110.5 . .
O2A C12A H12B 110.5 . .
C11A C12A H12B 110.5 . .
H12A C12A H12B 108.6 . .
C12A O2A H2A1 114.7(16) . .
N5 C11B C12B 110.9(12) . .
N5 C11B H11C 109.4 . .
C12B C11B H11C 109.4 . .
N5 C11B H11D 109.4 . .
C12B C11B H11D 109.4 . .
H11C C11B H11D 108.0 . .
O2B C12B C11B 122.8(15) . .
O2B C12B H12C 106.6 . .
C11B C12B H12C 106.6 . .
O2B C12B H12D 106.6 . .
C11B C12B H12D 106.6 . .
H12C C12B H12D 106.6 . .
C12B O2B H2B1 116(2) . .
N9 Ni3 N9 180.0 . 2_665
N9 Ni3 N7 94.31(18) . .
N9 Ni3 N7 85.69(18) 2_665 .
N9 Ni3 N7 85.69(18) . 2_665
N9 Ni3 N7 94.31(18) 2_665 2_665
N7 Ni3 N7 180.0 . 2_665
N9 Ni3 O9 93.66(16) . 2_665
N9 Ni3 O9 86.34(15) 2_665 2_665
N7 Ni3 O9 88.32(14) . 2_665
N7 Ni3 O9 91.68(14) 2_665 2_665
N9 Ni3 O9 86.34(15) . .
N9 Ni3 O9 93.66(15) 2_665 .
N7 Ni3 O9 91.68(14) . .
N7 Ni3 O9 88.32(14) 2_665 .
O9 Ni3 O9 180.0 2_665 .
C14 N7 C13 113.3(4) . .
C14 N7 Ni3 113.3(4) . .
C13 N7 Ni3 105.3(3) . .
C14 N7 H7 108.2 . .
C13 N7 H7 108.2 . .
Ni3 N7 H7 108.2 . .
C15 N8 C17 118.0(5) . .
C15 N8 C14 117.7(5) . .
C17 N8 C14 111.0(5) . .
C15 N9 C16 114.1(4) . .
C15 N9 Ni3 114.0(4) . .
C16 N9 Ni3 106.5(3) . .
C15 N9 H9 107.3 . .
C16 N9 H9 107.3 . .
Ni3 N9 H9 107.3 . .
N7 C13 C16 109.1(4) . 2_665
N7 C13 H13A 109.9 . .
C16 C13 H13A 109.9 2_665 .
N7 C13 H13B 109.9 . .
C16 C13 H13B 109.9 2_665 .
H13A C13 H13B 108.3 . .
N8 C14 N7 115.0(4) . .
N8 C14 H14A 108.5 . .
N7 C14 H14A 108.5 . .
N8 C14 H14B 108.5 . .
N7 C14 H14B 108.5 . .
H14A C14 H14B 107.5 . .
N8 C15 N9 113.1(5) . .
N8 C15 H15A 109.0 . .
N9 C15 H15A 109.0 . .
N8 C15 H15B 109.0 . .
N9 C15 H15B 109.0 . .
H15A C15 H15B 107.8 . .
C13 C16 N9 108.4(5) 2_665 .
C13 C16 H16A 110.0 2_665 .
N9 C16 H16A 110.0 . .
C13 C16 H16B 110.0 2_665 .
N9 C16 H16B 110.0 . .
H16A C16 H16B 108.4 . .
N8 C17 C18 113.6(6) . .
N8 C17 H17A 108.9 . .
C18 C17 H17A 108.9 . .
N8 C17 H17B 108.9 . .
C18 C17 H17B 108.9 . .
H17A C17 H17B 107.7 . .
O3 C18 C17 114.9(5) . .
O3 C18 H18A 108.5 . .
C17 C18 H18A 108.5 . .
O3 C18 H18B 108.5 . .
C17 C18 H18B 108.5 . .
H18A C18 H18B 107.5 . .
C18 O3 H3C 109.5 . .
N10 Ni4 N10 180.0 2_576 .
N10 Ni4 N12 94.9(2) 2_576 2_576
N10 Ni4 N12 85.1(2) . 2_576
N10 Ni4 N12 85.1(2) 2_576 .
N10 Ni4 N12 94.9(2) . .
N12 Ni4 N12 180.0 2_576 .
N10 Ni4 O11 87.68(16) 2_576 .
N10 Ni4 O11 92.32(16) . .
N12 Ni4 O11 93.64(15) 2_576 .
N12 Ni4 O11 86.36(15) . .
N10 Ni4 O11 92.32(16) 2_576 2_576
N10 Ni4 O11 87.68(16) . 2_576
N12 Ni4 O11 86.35(15) 2_576 2_576
N12 Ni4 O11 93.65(15) . 2_576
O11 Ni4 O11 180.0 . 2_576
C19 N10 C20 115.3(5) . .
C19 N10 Ni4 105.3(4) . .
C20 N10 Ni4 113.0(4) . .
C19 N10 H10 107.6 . .
C20 N10 H10 107.6 . .
Ni4 N10 H10 107.6 . .
C21 N11 C20 115.7(6) . .
C21 N11 C23 113.6(5) . .
C20 N11 C23 116.9(6) . .
C22 N12 C21 113.8(5) . .
C22 N12 Ni4 107.5(4) . .
C21 N12 Ni4 114.4(4) . .
C22 N12 H12 106.9 . .
C21 N12 H12 106.9 . .
Ni4 N12 H12 106.9 . .
N10 C19 C22 108.8(5) . 2_576
N10 C19 H19A 109.9 . .
C22 C19 H19A 109.9 2_576 .
N10 C19 H19B 109.9 . .
C22 C19 H19B 109.9 2_576 .
H19A C19 H19B 108.3 . .
N11 C20 N10 115.0(5) . .
N11 C20 H20A 108.5 . .
N10 C20 H20A 108.5 . .
N11 C20 H20B 108.5 . .
N10 C20 H20B 108.5 . .
H20A C20 H20B 107.5 . .
N11 C21 N12 114.1(5) . .
N11 C21 H21A 108.7 . .
N12 C21 H21A 108.7 . .
N11 C21 H21B 108.7 . .
N12 C21 H21B 108.7 . .
H21A C21 H21B 107.6 . .
N12 C22 C19 107.6(5) . 2_576
N12 C22 H22A 110.2 . .
C19 C22 H22A 110.2 2_576 .
N12 C22 H22B 110.2 . .
C19 C22 H22B 110.2 2_576 .
H22A C22 H22B 108.5 . .
N11 C23 C24 121.9(7) . .
N11 C23 H23A 106.9 . .
C24 C23 H23A 106.9 . .
N11 C23 H23B 106.9 . .
C24 C23 H23B 106.9 . .
H23A C23 H23B 106.7 . .
O4 C24 C23 104.0(7) . .
O4 C24 H24A 111.0 . .
C23 C24 H24A 111.0 . .
O4 C24 H24B 111.0 . .
C23 C24 H24B 111.0 . .
H24A C24 H24B 109.0 . .
C24 O4 H4C 116.6(12) . .
C25 O5 Ni1 134.7(3) . .
C32 O7 Ni2 138.9(3) . .
C33 O9 Ni3 135.8(3) . .
C40 O11 Ni4 133.4(3) . .
O6 C25 O5 123.1(4) . .
O6 C25 C26 119.1(4) . .
O5 C25 C26 117.7(4) . .
C31 C26 C27 117.8(4) . .
C31 C26 C25 118.6(4) . .
C27 C26 C25 123.3(4) . .
C28 C27 C26 117.5(4) . .
C28 C27 C35 116.0(4) . .
C26 C27 C35 126.5(4) . .
C29 C28 C27 123.8(4) . .
C29 C28 H28 118.1 . .
C27 C28 H28 118.1 . .
C28 C29 C30 118.7(4) . .
C28 C29 C32 118.8(4) . .
C30 C29 C32 122.5(5) . .
C31 C30 C29 118.0(5) . .
C31 C30 H30 121.0 . .
C29 C30 H30 121.0 . .
C30 C31 C26 124.0(4) . .
C30 C31 H31 118.0 . .
C26 C31 H31 118.0 . .
O7 C32 O8 125.5(5) . .
O7 C32 C29 116.1(5) . .
O8 C32 C29 118.4(5) . .
O10 C33 O9 127.1(4) . .
O10 C33 C34 118.0(5) . .
O9 C33 C34 114.8(4) . .
C39 C34 C35 120.2(4) . .
C39 C34 C33 118.2(4) . .
C35 C34 C33 121.4(4) . .
C36 C35 C34 115.4(4) . .
C36 C35 C27 118.9(4) . .
C34 C35 C27 125.6(4) . .
C37 C36 C35 125.0(4) . .
C37 C36 H36 117.5 . .
C35 C36 H36 117.5 . .
C36 C37 C38 118.8(4) . .
C36 C37 C40 121.5(5) . .
C38 C37 C40 119.7(5) . .
C37 C38 C39 120.5(5) . .
C37 C38 H38 119.8 . .
C39 C38 H38 119.8 . .
C38 C39 C34 120.0(5) . .
C38 C39 H39 120.0 . .
C34 C39 H39 120.0 . .
O11 C40 O12 125.6(5) . .
O11 C40 C37 119.3(5) . .
O12 C40 C37 115.1(5) . .
C1S N1S C3S 121.7(11) . .
C1S N1S C2S 120.9(10) . .
C3S N1S C2S 117.2(10) . .
O1S C1S N1S 125.0(12) . .
O1S C1S H1S 117.5 . .
N1S C1S H1S 117.5 . .
N1S C2S H2S1 109.5 . .
N1S C2S H2S2 109.5 . .
H2S1 C2S H2S2 109.5 . .
N1S C2S H2S3 109.5 . .
H2S1 C2S H2S3 109.5 . .
H2S2 C2S H2S3 109.5 . .
N1S C3S H3S1 131(3) . .
N1S C3S H3S2 103.7(16) . .
H3S1 C3S H3S2 112.9(15) . .
N1S C3S H3S3 101.9(12) . .
H3S1 C3S H3S3 110.5(18) . .
H3S2 C3S H3S3 88.6(18) . .
loop_
_geom_bond_atom_site_label_1
_geom_bond_atom_site_label_2
_geom_bond_distance
_geom_bond_site_symmetry_2
Ni1 N3 2.043(4) .
Ni1 N3 2.043(4) 2_675
Ni1 N1 2.066(4) .
Ni1 N1 2.066(4) 2_675
Ni1 O5 2.159(3) .
Ni1 O5 2.159(3) 2_675
N1 C1 1.456(6) .
N1 C2 1.472(6) .
N1 H1 0.9900 .
N2 C2 1.454(7) .
N2 C5 1.464(7) .
N2 C3 1.470(7) .
N3 C4 1.479(6) .
N3 C3 1.507(6) .
N3 H3 0.9900 .
C1 C4 1.545(7) 2_675
C1 H1A 0.9800 .
C1 H1B 0.9800 .
C2 H2A 0.9800 .
C2 H2B 0.9800 .
C3 H3A 0.9800 .
C3 H3B 0.9800 .
C4 H4A 0.9800 .
C4 H4B 0.9800 .
C5 C6 1.561(9) .
C5 H5A 0.9800 .
C5 H5B 0.9800 .
C6 O1 1.334(10) .
C6 H6A 0.9800 .
C6 H6B 0.9800 .
Ni2 N6 2.060(4) 2_666
Ni2 N6 2.060(4) .
Ni2 N4 2.062(4) .
Ni2 N4 2.062(4) 2_666
Ni2 O7 2.115(3) .
Ni2 O7 2.115(3) 2_666
N4 C7 1.476(6) .
N4 C8 1.511(6) .
N4 H4 0.9900 .
N5 C8 1.435(7) .
N5 C9 1.458(7) .
N5 C11B 1.463(9) .
N5 C11A 1.467(9) .
N6 C9 1.463(6) .
N6 C10 1.495(7) .
N6 H6 0.9900 .
C7 C10 1.505(7) 2_666
C7 H7A 0.9800 .
C7 H7B 0.9800 .
C8 H8A 0.9800 .
C8 H8B 0.9800 .
C9 H9A 0.9800 .
C9 H9B 0.9800 .
C10 H10A 0.9800 .
C10 H10B 0.9800 .
C11A C12A 1.575(9) .
C11A H11A 0.9800 .
C11A H11B 0.9800 .
C12A O2A 1.416(9) .
C12A H12A 0.9800 .
C12A H12B 0.9800 .
O2A H2A1 0.814(13) .
C11B C12B 1.528(10) .
C11B H11C 0.9800 .
C11B H11D 0.9800 .
C12B O2B 1.400(9) .
C12B H12C 0.9800 .
C12B H12D 0.9800 .
O2B H2B1 0.74(2) .
Ni3 N9 2.055(5) .
Ni3 N9 2.055(5) 2_665
Ni3 N7 2.067(4) .
Ni3 N7 2.067(4) 2_665
Ni3 O9 2.129(3) 2_665
Ni3 O9 2.129(3) .
N7 C14 1.475(7) .
N7 C13 1.488(7) .
N7 H7 0.9900 .
N8 C15 1.429(7) .
N8 C17 1.466(7) .
N8 C14 1.469(7) .
N9 C15 1.491(6) .
N9 C16 1.502(7) .
N9 H9 0.9900 .
C13 C16 1.501(7) 2_665
C13 H13A 0.9800 .
C13 H13B 0.9800 .
C14 H14A 0.9800 .
C14 H14B 0.9800 .
C15 H15A 0.9800 .
C15 H15B 0.9800 .
C16 H16A 0.9800 .
C16 H16B 0.9800 .
C17 C18 1.503(9) .
C17 H17A 0.9800 .
C17 H17B 0.9800 .
C18 O3 1.460(8) .
C18 H18A 0.9800 .
C18 H18B 0.9800 .
O3 H3C 0.8300 .
Ni4 N10 2.050(5) 2_576
Ni4 N10 2.050(5) .
Ni4 N12 2.054(4) 2_576
Ni4 N12 2.054(4) .
Ni4 O11 2.135(3) .
Ni4 O11 2.135(3) 2_576
N10 C19 1.481(8) .
N10 C20 1.499(7) .
N10 H10 0.9900 .
N11 C21 1.432(8) .
N11 C20 1.455(8) .
N11 C23 1.470(6) .
N12 C22 1.440(7) .
N12 C21 1.503(7) .
N12 H12 0.9900 .
C19 C22 1.525(9) 2_576
C19 H19A 0.9800 .
C19 H19B 0.9800 .
C20 H20A 0.9800 .
C20 H20B 0.9800 .
C21 H21A 0.9800 .
C21 H21B 0.9800 .
C22 H22A 0.9800 .
C22 H22B 0.9800 .
C23 C24 1.549(7) .
C23 H23A 0.9800 .
C23 H23B 0.9800 .
C24 O4 1.479(8) .
C24 H24A 0.9800 .
C24 H24B 0.9800 .
O4 H4C 0.902(10) .
O5 C25 1.263(5) .
O6 C25 1.255(5) .
O7 C32 1.253(6) .
O8 C32 1.271(6) .
O9 C33 1.272(6) .
O10 C33 1.259(6) .
O11 C40 1.225(6) .
O12 C40 1.260(6) .
C25 C26 1.477(6) .
C26 C31 1.393(6) .
C26 C27 1.423(6) .
C27 C28 1.402(6) .
C27 C35 1.460(6) .
C28 C29 1.385(6) .
C28 H28 0.9400 .
C29 C30 1.401(6) .
C29 C32 1.513(7) .
C30 C31 1.393(6) .
C30 H30 0.9400 .
C31 H31 0.9400 .
C33 C34 1.516(6) .
C34 C39 1.406(6) .
C34 C35 1.424(6) .
C35 C36 1.418(6) .
C36 C37 1.341(6) .
C36 H36 0.9400 .
C37 C38 1.386(6) .
C37 C40 1.515(6) .
C38 C39 1.397(6) .
C38 H38 0.9400 .
C39 H39 0.9400 .
O1S C1S 1.294(12) .
N1S C1S 1.311(11) .
N1S C3S 1.435(15) .
N1S C2S 1.453(11) .
C1S H1S 0.9400 .
C2S H2S1 0.9700 .
C2S H2S2 0.9700 .
C2S H2S3 0.9700 .
C3S H3S1 0.76(2) .
C3S H3S2 1.12(2) .
C3S H3S3 1.146(19) .
loop_
_geom_hbond_atom_site_label_D
_geom_hbond_atom_site_label_H
_geom_hbond_atom_site_label_A
_geom_hbond_distance_DH
_geom_hbond_distance_HA
_geom_hbond_distance_DA
_geom_hbond_angle_DHA
_geom_hbond_site_symmetry_A
_geom_hbond_publ_flag
N1 H1 O6 0.99 2.02 2.909(5) 147.8 . yes
N3 H3 O10 0.99 2.56 3.532(5) 168.0 . yes
N4 H4 O8 0.99 2.15 3.013(5) 144.9 . yes
N7 H7 O10 0.99 2.20 3.068(5) 145.5 . yes
N9 H9 O3 0.99 2.54 3.182(7) 122.6 . yes
O3 H3C O6 0.83 1.88 2.672(6) 159.7 . yes
N12 H12 O12 0.99 1.99 2.888(5) 149.3 2_576 yes
loop_
_geom_torsion_atom_site_label_1
_geom_torsion_atom_site_label_2
_geom_torsion_atom_site_label_3
_geom_torsion_atom_site_label_4
_geom_torsion
_geom_torsion_site_symmetry_4
C2 N1 C1 C4 165.3(4) 2_675
Ni1 N1 C1 C4 40.4(5) 2_675
C5 N2 C2 N1 -71.1(5) .
C3 N2 C2 N1 69.2(6) .
C1 N1 C2 N2 -176.8(4) .
Ni1 N1 C2 N2 -56.7(5) .
C2 N2 C3 N3 -66.9(6) .
C5 N2 C3 N3 72.2(6) .
C4 N3 C3 N2 178.4(4) .
Ni1 N3 C3 N2 55.5(5) .
C3 N3 C4 C1 -165.6(4) 2_675
Ni1 N3 C4 C1 -38.4(5) 2_675
C2 N2 C5 C6 -149.6(6) .
C3 N2 C5 C6 69.5(7) .
N2 C5 C6 O1 58.7(10) .
C8 N4 C7 C10 166.8(4) 2_666
Ni2 N4 C7 C10 40.8(5) 2_666
C9 N5 C8 N4 70.3(6) .
C11B N5 C8 N4 -71.4(10) .
C11A N5 C8 N4 -68.7(7) .
C7 N4 C8 N5 -177.6(5) .
Ni2 N4 C8 N5 -54.9(5) .
C8 N5 C9 N6 -72.2(6) .
C11B N5 C9 N6 69.4(11) .
C11A N5 C9 N6 67.2(9) .
C10 N6 C9 N5 178.5(4) .
Ni2 N6 C9 N5 57.3(5) .
C9 N6 C10 C7 -166.0(4) 2_666
Ni2 N6 C10 C7 -40.5(5) 2_666
C8 N5 C11A C12A -121(2) .
C9 N5 C11A C12A 99(2) .
N5 C11A C12A O2A -13(4) .
C8 N5 C11B C12B -61.8(18) .
C9 N5 C11B C12B 155.9(13) .
N5 C11B C12B O2B -58(3) .
C14 N7 C13 C16 167.3(5) 2_665
Ni3 N7 C13 C16 42.9(5) 2_665
C15 N8 C14 N7 69.1(7) .
C17 N8 C14 N7 -71.2(6) .
C13 N7 C14 N8 -174.4(5) .
Ni3 N7 C14 N8 -54.4(6) .
C17 N8 C15 N9 67.9(7) .
C14 N8 C15 N9 -69.6(6) .
C16 N9 C15 N8 180.0(5) .
Ni3 N9 C15 N8 57.4(6) .
C15 N9 C16 C13 -166.0(5) 2_665
Ni3 N9 C16 C13 -39.4(5) 2_665
C15 N8 C17 C18 46.7(7) .
C14 N8 C17 C18 -173.1(5) .
N8 C17 C18 O3 -78.0(7) .
C20 N10 C19 C22 -167.2(5) 2_576
Ni4 N10 C19 C22 -41.9(5) 2_576
C21 N11 C20 N10 -71.5(7) .
C23 N11 C20 N10 66.5(8) .
C19 N10 C20 N11 177.6(6) .
Ni4 N10 C20 N11 56.4(7) .
C20 N11 C21 N12 70.0(6) .
C23 N11 C21 N12 -69.4(7) .
C22 N12 C21 N11 -179.4(5) .
Ni4 N12 C21 N11 -55.3(6) .
C21 N12 C22 C19 168.9(5) 2_576
Ni4 N12 C22 C19 41.1(5) 2_576
C21 N11 C23 C24 -165.2(6) .
C20 N11 C23 C24 55.9(8) .
N11 C23 C24 O4 -83.6(11) .
Ni1 O5 C25 O6 -14.7(8) .
Ni1 O5 C25 C26 163.3(3) .
O6 C25 C26 C31 39.0(7) .
O5 C25 C26 C31 -139.0(5) .
O6 C25 C26 C27 -146.9(5) .
O5 C25 C26 C27 35.0(7) .
C31 C26 C27 C28 2.6(6) .
C25 C26 C27 C28 -171.5(4) .
C31 C26 C27 C35 -179.2(4) .
C25 C26 C27 C35 6.7(7) .
C26 C27 C28 C29 1.7(7) .
C35 C27 C28 C29 -176.7(4) .
C27 C28 C29 C30 -4.4(7) .
C27 C28 C29 C32 175.2(4) .
C28 C29 C30 C31 2.7(7) .
C32 C29 C30 C31 -176.8(4) .
C29 C30 C31 C26 1.6(7) .
C27 C26 C31 C30 -4.3(7) .
C25 C26 C31 C30 170.1(4) .
Ni2 O7 C32 O8 13.0(8) .
Ni2 O7 C32 C29 -165.7(3) .
C28 C29 C32 O7 5.6(7) .
C30 C29 C32 O7 -174.8(4) .
C28 C29 C32 O8 -173.1(4) .
C30 C29 C32 O8 6.4(7) .
Ni3 O9 C33 O10 -30.0(8) .
Ni3 O9 C33 C34 147.0(4) .
O10 C33 C34 C39 48.7(6) .
O9 C33 C34 C39 -128.5(5) .
O10 C33 C34 C35 -136.1(5) .
O9 C33 C34 C35 46.7(6) .
C39 C34 C35 C36 2.1(6) .
C33 C34 C35 C36 -173.0(4) .
C39 C34 C35 C27 177.4(4) .
C33 C34 C35 C27 2.3(7) .
C28 C27 C35 C36 50.2(6) .
C26 C27 C35 C36 -128.0(5) .
C28 C27 C35 C34 -125.0(5) .
C26 C27 C35 C34 56.7(7) .
C34 C35 C36 C37 0.0(7) .
C27 C35 C36 C37 -175.7(4) .
C35 C36 C37 C38 -1.3(7) .
C35 C36 C37 C40 -180.0(4) .
C36 C37 C38 C39 0.6(7) .
C40 C37 C38 C39 179.3(5) .
C37 C38 C39 C34 1.4(7) .
C35 C34 C39 C38 -2.8(7) .
C33 C34 C39 C38 172.4(4) .
Ni4 O11 C40 O12 13.8(9) .
Ni4 O11 C40 C37 -167.0(3) .
C36 C37 C40 O11 167.4(5) .
C38 C37 C40 O11 -11.3(8) .
C36 C37 C40 O12 -13.4(7) .
C38 C37 C40 O12 168.0(5) .
C3S N1S C1S O1S 3(2) .
C2S N1S C1S O1S -171.6(11) .
