#------------------------------------------------------------------------------
#$Date: 2019-05-25 03:10:27 +0300 (Sat, 25 May 2019) $
#$Revision: 215502 $
#$URL: file:///home/coder/svn-repositories/cod/cif/7/12/35/7123539.cif $
#------------------------------------------------------------------------------
#
# This file is available in the Crystallography Open Database (COD),
# http://www.crystallography.net/
#
# All data on this site have been placed in the public domain by the
# contributors.
#
data_7123539
loop_
_publ_author_name
'Jeoung, Sungeun'
'Lee, Songho'
'Lee, Jae Hwa'
'Lee, Soochan'
'Choe, Wonyoung'
'Moon, Dohyun'
'Moon, Hoi Ri'
_publ_section_title
;
 Tuning of the flexibility in metal-organic frameworks based on pendant
 arm macrocycles
;
_journal_name_full               'Chemical Communications'
_journal_paper_doi               10.1039/C9CC02819F
_journal_year                    2019
_chemical_formula_moiety         'C88 H132 N24 Ni4 O16'
_chemical_formula_sum            'C88 H132 N24 Ni4 O16'
_chemical_formula_weight         2017.01
_chemical_name_systematic        cp-flexMOF(CH2)
_space_group_crystal_system      triclinic
_space_group_IT_number           2
_space_group_name_Hall           '-P 1'
_space_group_name_H-M_alt        'P -1'
_symmetry_space_group_name_Hall  '-P 1'
_symmetry_space_group_name_H-M   'P -1'
_atom_sites_solution_hydrogens   geom
_audit_creation_method           SHELXL-2018/3
_audit_update_record
;
2019-05-17 deposited with the CCDC.    2019-05-24 downloaded from the CCDC.
;
_cell_angle_alpha                90.112(7)
_cell_angle_beta                 78.434(10)
_cell_angle_gamma                87.888(10)
_cell_formula_units_Z            1
_cell_length_a                   9.829(3)
_cell_length_b                   14.867(3)
_cell_length_c                   16.595(4)
_cell_measurement_reflns_used    37673
_cell_measurement_temperature    100(2)
_cell_measurement_theta_max      33.225
_cell_measurement_theta_min      1.820
_cell_volume                     2374.0(10)
_computing_cell_refinement       'HKL3000sm(Otwinowski & Minor, 1997)'
_computing_data_collection       'PAL BL2D-SMDC Program(Shin et.al, 2016)'
_computing_data_reduction        'HKL3000sm(Otwinowski & Minor, 1997)'
_computing_molecular_graphics    ORTEP3
_computing_publication_material  CIFTAB
_computing_structure_refinement  'SHELXL-2018>(Sheldrick, 2018)'
_computing_structure_solution    'SHELXT-2018(Sheldrick, 2018)'
_diffrn_ambient_temperature      100(2)
_diffrn_measured_fraction_theta_full 0.921
_diffrn_measured_fraction_theta_max 0.920
_diffrn_measurement_device_type  'ADSC Q210 CCD area detector'
_diffrn_measurement_method       'omega scan'
_diffrn_radiation_type           synchrotron
_diffrn_radiation_wavelength     0.700
_diffrn_reflns_av_R_equivalents  0.0671
_diffrn_reflns_av_unetI/netI     0.1027
_diffrn_reflns_Laue_measured_fraction_full 0.921
_diffrn_reflns_Laue_measured_fraction_max 0.920
_diffrn_reflns_limit_h_max       11
_diffrn_reflns_limit_h_min       -11
_diffrn_reflns_limit_k_max       17
_diffrn_reflns_limit_k_min       -17
_diffrn_reflns_limit_l_max       20
_diffrn_reflns_limit_l_min       -20
_diffrn_reflns_number            15074
_diffrn_reflns_point_group_measured_fraction_full 0.921
_diffrn_reflns_point_group_measured_fraction_max 0.920
_diffrn_reflns_theta_full        24.835
_diffrn_reflns_theta_max         25.000
_diffrn_reflns_theta_min         2.199
_diffrn_source                   'PLSII 2D bending magnet'
_exptl_absorpt_coefficient_mu    0.821
_exptl_absorpt_correction_T_max  1.000
_exptl_absorpt_correction_T_min  0.960
_exptl_absorpt_correction_type   empirical
_exptl_absorpt_process_details   'HKL3000sm Scalepack(Otwinowski et.al,2003)'
_exptl_crystal_colour            purple
_exptl_crystal_density_diffrn    1.411
_exptl_crystal_description       needle
_exptl_crystal_F_000             1068
_exptl_crystal_size_max          0.050
_exptl_crystal_size_mid          0.030
_exptl_crystal_size_min          0.010
_refine_diff_density_max         0.781
_refine_diff_density_min         -0.487
_refine_diff_density_rms         0.103
_refine_ls_extinction_method     none
_refine_ls_goodness_of_fit_ref   1.001
_refine_ls_hydrogen_treatment    constr
_refine_ls_matrix_type           full
_refine_ls_number_parameters     601
_refine_ls_number_reflns         8042
_refine_ls_number_restraints     546
_refine_ls_restrained_S_all      0.974
_refine_ls_R_factor_all          0.1622
_refine_ls_R_factor_gt           0.0852
_refine_ls_shift/su_max          0.000
_refine_ls_shift/su_mean         0.000
_refine_ls_structure_factor_coef Fsqd
_refine_ls_weighting_details
'w=1/[\s^2^(Fo^2^)+(0.1536P)^2^] where P=(Fo^2^+2Fc^2^)/3'
_refine_ls_weighting_scheme      calc
_refine_ls_wR_factor_gt          0.2236
_refine_ls_wR_factor_ref         0.2702
_reflns_Friedel_coverage         0.000
_reflns_number_gt                3997
_reflns_number_total             8042
_reflns_threshold_expression     'I > 2\s(I)'
_cod_data_source_file            c9cc02819f2.cif
_cod_data_source_block           cp_CH2_sq
_cod_database_code               7123539
_shelx_shelxl_version_number     2018/3
_shelx_space_group_comment
;
The symmetry employed for this shelxl refinement is uniquely defined
by the following loop, which should always be used as a source of
symmetry information in preference to the above space-group names.
They are only intended as comments.
;
_shelx_estimated_absorpt_t_min   0.960
_shelx_estimated_absorpt_t_max   0.992
_shelx_res_file
;
TITL cp_CH2 in P-1
    cp_CH2_sq.res
    created by SHELXL-2018/3 at 20:35:32 on 02-May-2019
CELL  0.70000   9.8290  14.8670  16.5950   90.112   78.434   87.888
ZERR    1.000   0.0030   0.0030   0.0040    0.007    0.010    0.010
LATT 1
SFAC C  H  N  O   Ni
DISP C          0.0030         0.0016          10.98
DISP H          0.0000         0.0000           0.67
DISP N          0.0059         0.0032          18.71
DISP O          0.0105         0.0059          30.82
DISP Ni         0.3420         1.0875        4371.60
UNIT 88 132 24 16 4
L.S. 20 0   11
OMIT -3 50
OMIT 6 1 4
OMIT -1 3 1
OMIT -1 2 2
OMIT 0 2 1
OMIT 4 1 14
OMIT 6 1 6
OMIT 6 1 2
OMIT 0 1 1
OMIT 0 -1 1
ACTA
BOND $H
FMAP -2
PLAN -10
CONF
TEMP -173
SIZE 0.050 0.030 0.010
ABIN
HTAB N1 O1
HTAB N5 O3
HTAB N7 O5
HTAB N8 O7
HTAB N11 O7
SIMU
DELU
WGHT    0.153600
FVAR       0.28929
NI1   5    0.500000    0.500000    0.000000    10.50000    0.06839    0.05236 =
         0.03951    0.00071   -0.00537    0.00753
NI2   5    1.000000    0.000000    0.000000    10.50000    0.06159    0.05099 =
         0.04830   -0.00770   -0.00007    0.00947
NI3   5    0.500000    0.500000    0.500000    10.50000    0.08013    0.06313 =
         0.04037   -0.00880   -0.00545    0.01430
NI4   5    0.500000    0.000000    0.500000    10.50000    0.08196    0.06581 =
         0.04796    0.00668   -0.00283    0.00534
O1    4    0.235511    0.373228    0.114533    11.00000    0.07673    0.06488 =
         0.05874    0.00073   -0.01289   -0.00455
O2    4    0.465285    0.395483    0.086754    11.00000    0.07059    0.06162 =
         0.04378    0.00560   -0.00034    0.00640
O3    4    1.060717    0.033843    0.197796    11.00000    0.07666    0.09119 =
         0.06302   -0.01786   -0.01514    0.03015
O4    4    0.905966    0.063024    0.116991    11.00000    0.07099    0.06508 =
         0.04973   -0.01278   -0.00573    0.01221
O5    4    0.679603    0.293573    0.509269    11.00000    0.13128    0.10447 =
         0.05158   -0.01843   -0.02713    0.05454
O6    4    0.588892    0.384119    0.425302    11.00000    0.08622    0.06237 =
         0.04534   -0.01298   -0.01360    0.02237
O7    4    0.334984    0.217019    0.498991    11.00000    0.10987    0.07482 =
         0.04721    0.00412    0.01103    0.01755
O8    4    0.490628    0.117967    0.427893    11.00000    0.09641    0.06790 =
         0.05373    0.00831   -0.00144    0.01308
N1    3    0.289958    0.526658    0.010352    11.00000    0.07200    0.06158 =
         0.04586   -0.00060   -0.01291    0.01322
AFIX  13
H1    2    0.240288    0.487538    0.054852    11.00000   -1.20000
AFIX   0
N2    3    0.521415    0.580549    0.097239    11.00000    0.07801    0.06766 =
         0.04078   -0.00293   -0.00470    0.00905
AFIX  13
H2    2    0.488225    0.545510    0.148331    11.00000   -1.20000
AFIX   0
N3    3    0.287833    0.651088    0.109429    11.00000    0.07888    0.06381 =
         0.05149   -0.00747   -0.00804    0.01396
N4    3    1.055368    0.128992   -0.038200    11.00000    0.08086    0.05336 =
         0.06032   -0.00722   -0.00965    0.00679
AFIX  13
H4    2    1.039536    0.168723    0.011757    11.00000   -1.20000
AFIX   0
N5    3    1.179654   -0.029826    0.036378    11.00000    0.06800    0.06585 =
         0.04409   -0.01218   -0.00519    0.00821
AFIX  13
H5    2    1.172192   -0.002323    0.092207    11.00000   -1.20000
AFIX   0
N6    3    1.299093    0.101183   -0.029193    11.00000    0.06870    0.07229 =
         0.07398   -0.01631    0.00175    0.00304
N7    3    0.576133    0.455622    0.599344    11.00000    0.09119    0.05987 =
         0.04222   -0.00939   -0.00337    0.01434
AFIX  13
H7    2    0.613759    0.392529    0.587452    11.00000   -1.20000
AFIX   0
N8    3    0.317617    0.433067    0.533041    11.00000    0.08887    0.07372 =
         0.04626   -0.01189   -0.00274    0.01434
AFIX  13
H8    2    0.337529    0.368255    0.517249    11.00000   -1.20000
AFIX   0
N9    3    0.350015    0.403571    0.673869    11.00000    0.09801    0.07946 =
         0.04789    0.00073   -0.00365    0.01530
N10   3    0.683497    0.044328    0.524513    11.00000    0.11105    0.09150 =
         0.07583    0.00302   -0.01938    0.00815
AFIX  13
H10   2    0.687403    0.109764    0.510771    11.00000   -1.20000
AFIX   0
N11   3    0.386818    0.056133    0.604814    11.00000    0.11729    0.06883 =
         0.06615    0.00879    0.00758    0.00596
AFIX  13
H11   2    0.369037    0.121049    0.593321    11.00000   -1.20000
AFIX   0
N12   3    0.586848    0.092365    0.660341    11.00000    0.13837    0.12149 =
         0.07520   -0.00618   -0.01857    0.01372
C1    1    0.354653    0.367373    0.131501    11.00000    0.06627    0.04617 =
         0.04870   -0.00325   -0.00816    0.00347
C2    1    0.372166    0.322993    0.210329    11.00000    0.06493    0.04733 =
         0.04559   -0.00246   -0.00070    0.00064
C3    1    0.254094    0.301335    0.269527    11.00000    0.06252    0.04620 =
         0.05105   -0.00143   -0.00219    0.00124
AFIX  43
H3    2    0.163122    0.314384    0.260332    11.00000   -1.20000
AFIX   0
C4    1    0.274053    0.260594    0.341357    11.00000    0.06865    0.05797 =
         0.04947   -0.00349    0.00575    0.00454
AFIX  43
H4A   2    0.194795    0.247471    0.382094    11.00000   -1.20000
AFIX   0
C5    1    0.404679    0.238104    0.356446    11.00000    0.06766    0.05381 =
         0.04323   -0.00074    0.00288    0.00558
C6    1    0.524780    0.258651    0.296831    11.00000    0.06693    0.04645 =
         0.04411   -0.00736   -0.00295    0.00994
C7    1    0.503631    0.303293    0.225829    11.00000    0.06498    0.04868 =
         0.03506   -0.00130   -0.00063    0.00128
AFIX  43
H7A   2    0.582420    0.320783    0.186722    11.00000   -1.20000
AFIX   0
C8    1    0.411075    0.187278    0.435165    11.00000    0.07708    0.05689 =
         0.05591    0.00247    0.00352    0.00482
C9    1    0.657558    0.317401    0.440434    11.00000    0.08115    0.06518 =
         0.05007   -0.01286   -0.01338    0.01653
C10   1    0.731062    0.257185    0.368082    11.00000    0.06935    0.05098 =
         0.05063   -0.00625   -0.00367    0.00605
C11   1    0.669822    0.232625    0.303759    11.00000    0.06192    0.04792 =
         0.04420   -0.00380   -0.00533    0.00447
C12   1    0.745850    0.176360    0.240659    11.00000    0.05741    0.05572 =
         0.03986    0.00094   -0.00394    0.00328
AFIX  43
H12   2    0.705287    0.160412    0.195514    11.00000   -1.20000
AFIX   0
C13   1    0.879135    0.143950    0.243584    11.00000    0.05830    0.05519 =
         0.04594   -0.00231   -0.00419    0.00405
C14   1    0.941713    0.169642    0.307883    11.00000    0.06247    0.06942 =
         0.05378   -0.00778   -0.00715    0.00425
AFIX  43
H14   2    1.033435    0.149030    0.310306    11.00000   -1.20000
AFIX   0
C15   1    0.865261    0.226519    0.368418    11.00000    0.08026    0.06053 =
         0.05984   -0.01203   -0.01803    0.00912
AFIX  43
H15   2    0.907448    0.245160    0.412102    11.00000   -1.20000
AFIX   0
C16   1    0.955861    0.073932    0.181320    11.00000    0.06756    0.07054 =
         0.04242   -0.00413   -0.00072    0.00510
C17   1    0.256743    0.496848   -0.066741    11.00000    0.07988    0.07799 =
         0.05935   -0.00389   -0.01960    0.00008
AFIX  23
H17A  2    0.286454    0.541806   -0.110024    11.00000   -1.20000
H17B  2    0.155097    0.490908   -0.059970    11.00000   -1.20000
AFIX   0
C18   1    0.670701    0.591376    0.091464    11.00000    0.07791    0.07269 =
         0.05593   -0.00700   -0.01652    0.00411
AFIX  23
H18A  2    0.688856    0.610925    0.145263    11.00000   -1.20000
H18B  2    0.704758    0.637567    0.050166    11.00000   -1.20000
AFIX   0
C19   1    0.246159    0.623400    0.034213    11.00000    0.07688    0.05546 =
         0.05964    0.00189   -0.01428    0.01383
AFIX  23
H19A  2    0.287914    0.663278   -0.011046    11.00000   -1.20000
H19B  2    0.143860    0.630620    0.041610    11.00000   -1.20000
AFIX   0
C20   1    0.431526    0.664524    0.103854    11.00000    0.08752    0.05245 =
         0.06159   -0.00321   -0.01065    0.00879
AFIX  23
H20A  2    0.443222    0.698782    0.153074    11.00000   -1.20000
H20B  2    0.464773    0.702066    0.055181    11.00000   -1.20000
AFIX   0
C21   1    0.225403    0.599584    0.182972    11.00000    0.09298    0.07052 =
         0.05440   -0.00437   -0.00341    0.00692
AFIX  23
H21A  2    0.260140    0.536150    0.175543    11.00000   -1.20000
H21B  2    0.256245    0.624260    0.231505    11.00000   -1.20000
AFIX   0
C22   1    0.073031    0.602032    0.199130    11.00000    0.09754    0.08777 =
         0.05536    0.00093    0.00987    0.01211
AFIX  43
H22   2    0.026896    0.659561    0.207749    11.00000   -1.20000
AFIX   0
C23   1   -0.005239    0.532161    0.202761    11.00000    0.08318    0.10975 =
         0.05215   -0.00432    0.00077    0.00010
AFIX  93
H23A  2    0.036297    0.473278    0.194536    11.00000   -1.20000
H23B  2   -0.103552    0.540359    0.213621    11.00000   -1.20000
AFIX   0
C24   1    0.953025    0.156858   -0.087809    11.00000    0.09329    0.05922 =
         0.05997   -0.00545   -0.01302    0.01478
AFIX  23
H24A  2    0.953806    0.222886   -0.095374    11.00000   -1.20000
H24B  2    0.977624    0.127710   -0.142758    11.00000   -1.20000
AFIX   0
C25   1    1.185224   -0.131100    0.046512    11.00000    0.07353    0.06334 =
         0.05991   -0.00692   -0.00522    0.02028
AFIX  23
H25A  2    1.211739   -0.161309   -0.007889    11.00000   -1.20000
H25B  2    1.254681   -0.148830    0.079838    11.00000   -1.20000
AFIX   0
C26   1    1.304708    0.003956   -0.016058    11.00000    0.05506    0.06902 =
         0.07585   -0.01552   -0.00667    0.00622
AFIX  23
H26A  2    1.319734   -0.027105   -0.070117    11.00000   -1.20000
H26B  2    1.385579   -0.011520    0.009155    11.00000   -1.20000
AFIX   0
C27   1    1.203690    0.133002   -0.078402    11.00000    0.07833    0.06491 =
         0.06581    0.00068    0.01035    0.00347
AFIX  23
H27A  2    1.219703    0.096888   -0.129851    11.00000   -1.20000
H27B  2    1.223995    0.196159   -0.093668    11.00000   -1.20000
AFIX   0
C28   1    1.291436    0.154972    0.048462    11.00000    0.06584    0.08080 =
         0.09146   -0.02805   -0.00185    0.00849
AFIX  23
H28A  2    1.292173    0.219831    0.035047    11.00000   -1.20000
H28B  2    1.202462    0.143797    0.086466    11.00000   -1.20000
AFIX   0
C29   1    1.408661    0.132498    0.090878    11.00000    0.06224    0.08773 =
         0.11367   -0.04055   -0.01485    0.01160
AFIX  43
H29   2    1.500191    0.144340    0.062681    11.00000   -1.20000
AFIX   0
C30   1    1.393551    0.097621    0.164221    11.00000    0.08680    0.10317 =
         0.09357   -0.04545   -0.01656    0.00468
AFIX  93
H30A  2    1.303434    0.084946    0.194101    11.00000   -1.20000
H30B  2    1.472684    0.084942    0.187655    11.00000   -1.20000
AFIX   0
C31   1    0.691441    0.511890    0.603599    11.00000    0.07701    0.07946 =
         0.06339   -0.00363   -0.02030    0.01738
AFIX  23
H31A  2    0.752342    0.482014    0.637127    11.00000   -1.20000
H31B  2    0.656008    0.569976    0.630483    11.00000   -1.20000
AFIX   0
C32   1    0.225887    0.471229    0.481762    11.00000    0.08871    0.07885 =
         0.06228   -0.01329   -0.02064    0.01361
AFIX  23
H32A  2    0.181849    0.528481    0.506455    11.00000   -1.20000
H32B  2    0.151444    0.429073    0.478587    11.00000   -1.20000
AFIX   0
C33   1    0.471802    0.455401    0.677295    11.00000    0.09846    0.08135 =
         0.04504   -0.00266   -0.00651    0.01762
AFIX  23
H33A  2    0.516807    0.430625    0.721185    11.00000   -1.20000
H33B  2    0.440917    0.518345    0.692679    11.00000   -1.20000
AFIX   0
C34   1    0.256367    0.437816    0.623182    11.00000    0.08729    0.08746 =
         0.05613   -0.00421    0.00074    0.00586
AFIX  23
H34A  2    0.229593    0.501260    0.638887    11.00000   -1.20000
H34B  2    0.170863    0.402901    0.634226    11.00000   -1.20000
AFIX   0
C35   1    0.374955    0.305055    0.671909    11.00000    0.12199    0.08228 =
         0.06565   -0.01234   -0.00742    0.00979
AFIX  23
H35A  2    0.454712    0.288852    0.697870    11.00000   -1.20000
H35B  2    0.396310    0.282706    0.614349    11.00000   -1.20000
AFIX   0
C36   1    0.244158    0.263413    0.718783    11.00000    0.11781    0.10453 =
         0.09628   -0.01071   -0.00266    0.00030
AFIX  43
H36   2    0.226403    0.267933    0.777093    11.00000   -1.20000
AFIX   0
C37   1    0.151570    0.220778    0.684767    11.00000    0.12910    0.13006 =
         0.09614   -0.02544    0.01707   -0.01444
AFIX  93
H37A  2    0.165383    0.214767    0.626662    11.00000   -1.20000
H37B  2    0.072119    0.196564    0.718759    11.00000   -1.20000
AFIX   0
C38   1    0.694466    0.036729    0.607908    11.00000    0.12710    0.10130 =
         0.09363   -0.01216   -0.04482    0.00682
AFIX  23
H38A  2    0.787102    0.055853    0.614433    11.00000   -1.20000
H38B  2    0.685251   -0.026915    0.624896    11.00000   -1.20000
AFIX   0
C39   1    0.448347    0.052680    0.676881    11.00000    0.14951    0.10521 =
         0.05977   -0.00577   -0.00228    0.01173
AFIX  23
H39A  2    0.457351   -0.010698    0.693876    11.00000   -1.20000
H39B  2    0.386868    0.086024    0.722645    11.00000   -1.20000
AFIX   0
C40   1    0.790653   -0.002224    0.464827    11.00000    0.09623    0.08195 =
         0.10649    0.00229   -0.01452    0.01362
AFIX  23
H40A  2    0.809501   -0.062833    0.485638    11.00000   -1.20000
H40B  2    0.877370    0.031285    0.457887    11.00000   -1.20000
AFIX   0
C41   1    0.250241    0.011377    0.616659    11.00000    0.09809    0.07391 =
         0.09208    0.02020    0.01516    0.01585
AFIX  23
H41A  2    0.258383   -0.048782    0.641108    11.00000   -1.20000
H41B  2    0.178430    0.047831    0.654568    11.00000   -1.20000
AFIX   0
DFIX 1.48 0.02 C42 C43
DFIX 1.35 0.02 C43 C42
DANG 2.43 0.02 C42 C44
C42   1    0.632376    0.121820    0.735518    11.00000    0.25561    0.14302 =
         0.13812   -0.06197   -0.04809   -0.03617
AFIX  23
H42A  2    0.549415    0.146681    0.774171    11.00000   -1.20000
H42B  2    0.665522    0.067545    0.761418    11.00000   -1.20000
AFIX   0
C43   1    0.739325    0.187489    0.728433    11.00000    0.29526    0.11944 =
         0.12187   -0.03447   -0.01923   -0.06237
AFIX  43
H43   2    0.778367    0.197228    0.775512    11.00000   -1.20000
AFIX   0
C44   1    0.788130    0.235742    0.661399    11.00000    0.33945    0.20856 =
         0.09397   -0.00804   -0.04437   -0.05614
AFIX  93
H44A  2    0.752134    0.228226    0.612889    11.00000   -1.20000
H44B  2    0.858714    0.277456    0.662400    11.00000   -1.20000
LIST 4

REM  cp_CH2 in P-1
REM wR2 = 0.4378, GooF = S = 1.286, Restrained GooF = 1.287 for all data
REM R1 = 0.1605 for 4592 Fo > 4sig(Fo) and 0.2984 for all 13223 data
REM 601 parameters refined using 3 restraints

AFIX   0
HKLF 4




REM  cp_CH2 in P-1
REM wR2 = 0.2702, GooF = S = 1.001, Restrained GooF = 0.974 for all data
REM R1 = 0.0852 for 3997 Fo > 4sig(Fo) and 0.1622 for all 8042 data
REM 601 parameters refined using 546 restraints

END

WGHT      0.1536      0.0000

REM Highest difference peak  0.781,  deepest hole -0.487,  1-sigma level  0.103
Q1    1  -0.0046  0.2960  0.0869  11.00000  0.05    0.78
Q2    1   0.3965  0.4751  0.4810  11.00000  0.05    0.77
Q3    1   0.6047  0.5225  0.0172  11.00000  0.05    0.72
Q4    1   1.0951  0.0359  0.0167  11.00000  0.05    0.67
Q5    1   0.3977 -0.0244  0.4851  11.00000  0.05    0.63
Q6    1   0.1140  0.2516  0.6628  11.00000  0.05   -0.49
Q7    1   1.1624  0.0583  0.0294  11.00000  0.05    0.49
Q8    1   0.8031  0.0473  0.5431  11.00000  0.05    0.45
Q9    1   0.6898  0.1782  0.7618  11.00000  0.05   -0.43
Q10   1   0.5141  0.4411  0.4628  11.00000  0.05   -0.41
;
_shelx_res_checksum              90995
_shelx_fab_file
;
    0    0    2      5.50      0.00
    0    0    3     -2.55      0.00
    0    0    4    -11.13      0.00
    0    0    5     -9.66      0.00
    0    0    6     -9.04      0.00
    0    0    7     -6.05      0.00
    0    0    8     -2.01      0.00
    0    0    9      1.00      0.00
    0    0   10      2.33      0.00
    0    0   11      2.21      0.00
    0    0   12      2.54      0.00
    0    0   13      0.90      0.00
    0    0   14      0.38      0.00
    0    0   15     -0.15      0.00
    0    0   16     -0.24      0.00
    0    0   17     -0.35      0.00
    0    0   18     -0.84      0.00
    0    0   19     -0.40      0.00
    0    0   20     -0.11      0.00
    0    0   21      0.40      0.00
    0    0   22      0.22      0.00
    0    0   23      0.13      0.00
    0   -1   23     -0.11      0.00
    0   -1   22     -0.35      0.00
    0   -1   21     -0.48      0.00
    0   -1   20     -0.47      0.00
    0   -1   19     -0.27      0.00
    0   -1   18      0.36      0.00
    0   -1   17      0.37      0.00
    0   -1   16      0.59      0.00
    0   -1   15      0.94      0.00
    0   -1   14      0.96      0.00
    0   -1   13      1.10      0.00
    0   -1   12     -0.67      0.00
    0   -1   11     -1.41      0.00
    0   -1   10     -3.02      0.00
    0   -1    9     -4.50      0.00
    0   -1    8     -4.34      0.00
    0   -1    7     -2.88      0.00
    0   -1    6      1.10      0.00
    0   -1    5      4.87      0.00
    0   -1    4     13.06      0.00
    0   -1    3     15.34      0.00
    0   -1    2     14.50      0.00
    0   -1    1      8.59      0.00
    0    1    1    -17.11      0.00
    0    1    2    -16.80      0.00
    0    1    3    -14.96      0.00
    0    1    4     -4.77      0.00
    0    1    5     -0.74      0.00
    0    1    6      3.83      0.00
    0    1    7      7.01      0.00
    0    1    8      6.21      0.00
    0    1    9      4.09      0.00
    0    1   10      1.70      0.00
    0    1   11      0.57      0.00
    0    1   12     -1.29      0.00
    0    1   13     -1.08      0.00
    0    1   14     -1.01      0.00
    0    1   15     -0.54      0.00
    0    1   16     -0.48      0.00
    0    1   17     -0.54      0.00
    0    1   18      0.39      0.00
    0    1   19      0.39      0.00
    0    1   20      0.50      0.00
    0    1   21     -0.31      0.00
    0    1   22     -0.28      0.00
    0    1   23      0.04      0.00
    0   -2   23     -0.43      0.00
    0   -2   22      0.05      0.00
    0   -2   21      0.04      0.00
    0   -2   20      0.34      0.00
    0   -2   19      0.60      0.00
    0   -2   18      0.29      0.00
    0   -2   17      0.42      0.00
    0   -2   16      0.26      0.00
    0   -2   15     -0.29      0.00
    0   -2   14     -0.81      0.00
    0   -2   13     -2.00      0.00
    0   -2   12     -1.59      0.00
    0   -2   11     -1.53      0.00
    0   -2   10     -0.55      0.00
    0   -2    9      1.72      0.00
    0   -2    8      3.45      0.00
    0   -2    7      6.35      0.00
    0   -2    6      6.94      0.00
    0   -2    5      6.89      0.00
    0   -2    4      1.28      0.00
    0   -2    3     -5.89      0.00
    0   -2    2    -13.63      0.00
    0   -2    1    -21.86      0.00
    0    2    0    -12.63      0.00
    0    2    1     -2.97      0.00
    0    2    4     10.58      0.00
    0    2    5     10.06      0.00
    0    2    6      7.36      0.00
    0    2    7      1.66      0.00
    0    2    8     -1.74      0.00
    0    2    9     -3.33      0.00
    0    2   10     -2.93      0.00
    0    2   11     -2.79      0.00
    0    2   12     -1.13      0.00
    0    2   13     -0.43      0.00
    0    2   14      0.25      0.00
    0    2   15      0.11      0.00
    0    2   16      0.16      0.00
    0    2   17      0.90      0.00
    0    2   18      0.10      0.00
    0    2   19     -0.03      0.00
    0    2   20     -0.67      0.00
    0    2   21      0.06      0.00
    0    2   22      0.63      0.00
    0   -3   23      0.59      0.00
    0   -3   22      0.12      0.00
    0   -3   21      0.37      0.00
    0   -3   20      0.31      0.00
    0   -3   19     -0.03      0.00
    0   -3   18      0.09      0.00
    0   -3   17     -0.39      0.00
    0   -3   16     -0.84      0.00
    0   -3   15     -0.87      0.00
    0   -3   14     -0.72      0.00
    0   -3   13      0.45      0.00
    0   -3   12      1.06      0.00
    0   -3   11      2.08      0.00
    0   -3   10      2.89      0.00
    0   -3    9      2.33      0.00
    0   -3    8      2.35      0.00
    0   -3    7     -0.59      0.00
    0   -3    6     -3.96      0.00
    0   -3    5     -7.90      0.00
    0   -3    4    -10.24      0.00
    0   -3    3     -9.05      0.00
    0   -3    2     -4.33      0.00
    0   -3    1      8.61      0.00
    0    3    0     13.59      0.00
    0    3    1     12.90      0.00
    0    3    2     11.86      0.00
    0    3    3      4.13      0.00
    0    3    4      0.31      0.00
    0    3    5     -4.13      0.00
    0    3    6     -7.97      0.00
    0    3    7     -6.88      0.00
    0    3    8     -4.48      0.00
    0    3    9     -1.60      0.00
    0    3   10     -0.26      0.00
    0    3   11      1.30      0.00
    0    3   12      1.36      0.00
    0    3   13      1.23      0.00
    0    3   14      0.44      0.00
    0    3   15      0.40      0.00
    0    3   16      0.73      0.00
    0    3   17     -0.48      0.00
    0    3   18     -0.10      0.00
    0    3   19     -0.16      0.00
    0    3   20      0.75      0.00
    0    3   21      0.80      0.00
    0    3   22     -0.26      0.00
    0   -4   23     -0.23      0.00
    0   -4   22      0.23      0.00
    0   -4   21      0.02      0.00
    0   -4   20     -0.23      0.00
    0   -4   19     -0.15      0.00
    0   -4   18     -0.70      0.00
    0   -4   17     -0.55      0.00
    0   -4   16      0.02      0.00
    0   -4   15      0.67      0.00
    0   -4   14      1.24      0.00
    0   -4   13      1.21      0.00
    0   -4   12      1.04      0.00
    0   -4   11      0.21      0.00
    0   -4   10     -1.06      0.00
    0   -4    9     -1.70      0.00
    0   -4    8     -4.13      0.00
    0   -4    7     -4.75      0.00
    0   -4    6     -3.26      0.00
    0   -4    5     -1.04      0.00
    0   -4    4      3.74      0.00
    0   -4    3      8.54      0.00
    0   -4    2     12.27      0.00
    0   -4    1      8.08      0.00
    0    4    0      1.77      0.00
    0    4    1     -2.44      0.00
    0    4    2     -8.03      0.00
    0    4    3     -8.58      0.00
    0    4    4     -8.68      0.00
    0    4    5     -6.59      0.00
    0    4    6     -1.38      0.00
    0    4    7      2.03      0.00
    0    4    8      3.67      0.00
    0    4    9      3.07      0.00
    0    4   10      2.73      0.00
    0    4   11      1.44      0.00
    0    4   12      0.42      0.00
    0    4   13     -0.47      0.00
    0    4   14     -0.20      0.00
    0    4   15      0.01      0.00
    0    4   16     -1.01      0.00
    0    4   17      0.07      0.00
    0    4   18      0.02      0.00
    0    4   19      0.35      0.00
    0    4   20     -0.16      0.00
    0    4   21     -1.29      0.00
    0    4   22     -0.63      0.00
    0   -5   22     -0.28      0.00
    0   -5   20     -0.35      0.00
    0   -5   19     -0.63      0.00
    0   -5   18      0.16      0.00
    0   -5   17      0.70      0.00
    0   -5   16      0.89      0.00
    0   -5   15      0.48      0.00
    0   -5   14     -0.05      0.00
    0   -5   13     -0.75      0.00
    0   -5   12     -1.53      0.00
    0   -5   11     -1.66      0.00
    0   -5   10     -1.56      0.00
    0   -5    9     -1.81      0.00
    0   -5    8      0.21      0.00
    0   -5    7      3.02      0.00
    0   -5    6      4.02      0.00
    0   -5    5      5.78      0.00
    0   -5    4      5.15      0.00
    0   -5    3      1.81      0.00
    0   -5    2     -3.37      0.00
    0   -5    1     -7.25      0.00
    0    5    0     -7.68      0.00
    0    5    1     -7.41      0.00
    0    5    2     -4.29      0.00
    0    5    3     -0.89      0.00
    0    5    4      3.07      0.00
    0    5    5      6.32      0.00
    0    5    6      6.06      0.00
    0    5    7      4.04      0.00
    0    5    8      1.35      0.00
    0    5    9      0.25      0.00
    0    5   10     -1.08      0.00
    0    5   11     -1.66      0.00
    0    5   12     -1.46      0.00
    0    5   13     -0.49      0.00
    0    5   14     -0.25      0.00
    0    5   16      0.51      0.00
    0    5   17      0.03      0.00
    0    5   18     -0.02      0.00
    0    5   19     -0.32      0.00
    0    5   20     -0.87      0.00
    0    5   21      0.49      0.00
    0    5   22      0.69      0.00
    0   -6   22     -0.17      0.00
    0   -6   21     -0.01      0.00
    0   -6   20      0.09      0.00
    0   -6   19      0.98      0.00
    0   -6   17      0.34      0.00
    0   -6   16     -0.49      0.00
    0   -6   15     -0.75      0.00
    0   -6   14     -1.02      0.00
    0   -6   13     -0.79      0.00
    0   -6   12      0.14      0.00
    0   -6   11      0.45      0.00
    0   -6   10      1.26      0.00
    0   -6    9      2.82      0.00
    0   -6    8      3.25      0.00
    0   -6    7      1.55      0.00
    0   -6    6      0.69      0.00
    0   -6    5     -1.80      0.00
    0   -6    4     -4.71      0.00
    0   -6    3     -5.40      0.00
    0   -6    2     -5.24      0.00
    0   -6    1     -2.43      0.00
    0    6    0      0.45      0.00
    0    6    1      3.32      0.00
    0    6    2      5.95      0.00
    0    6    3      6.59      0.00
    0    6    4      5.02      0.00
    0    6    5      1.69      0.00
    0    6    6     -1.42      0.00
    0    6    7     -3.00      0.00
    0    6    8     -2.58      0.00
    0    6    9     -2.58      0.00
    0    6   10     -1.78      0.00
    0    6   11     -0.37      0.00
    0    6   12      0.60      0.00
    0    6   13      0.49      0.00
    0    6   14      0.06      0.00
    0    6   15      1.04      0.00
    0    6   16      0.14      0.00
    0    6   17      0.09      0.00
    0    6   18      0.14      0.00
    0    6   19     -0.20      0.00
    0    6   20      1.05      0.00
    0    6   21      0.55      0.00
    0   -7   21      0.41      0.00
    0   -7   20      0.76      0.00
    0   -7   19     -0.18      0.00
    0   -7   18     -0.61      0.00
    0   -7   17     -1.05      0.00
    0   -7   16     -0.58      0.00
    0   -7   15     -0.14      0.00
    0   -7   14      0.57      0.00
    0   -7   13      1.30      0.00
    0   -7   12      0.86      0.00
    0   -7   11      1.32      0.00
    0   -7   10      0.98      0.00
    0   -7    9     -0.37      0.00
    0   -7    8     -2.14      0.00
    0   -7    7     -2.60      0.00
    0   -7    6     -3.23      0.00
    0   -7    5     -3.14      0.00
    0   -7    4     -0.84      0.00
    0   -7    3      0.45      0.00
    0   -7    2      3.25      0.00
    0   -7    1      4.83      0.00
    0    7    0      4.76      0.00
    0    7    1      4.37      0.00
    0    7    2      1.25      0.00
    0    7    3     -1.96      0.00
    0    7    4     -4.06      0.00
    0    7    5     -4.71      0.00
    0    7    6     -3.36      0.00
    0    7    7     -1.42      0.00
    0    7    8     -0.58      0.00
    0    7    9      0.78      0.00
    0    7   10      1.89      0.00
    0    7   11      1.59      0.00
    0    7   12      0.73      0.00
    0    7   13      0.16      0.00
    0    7   14      0.60      0.00
    0    7   15     -0.37      0.00
    0    7   16     -0.31      0.00
    0    7   17     -0.13      0.00
    0    7   18     -0.52      0.00
    0    7   19      0.49      0.00
    0    7   20     -0.34      0.00
    0    7   21     -0.75      0.00
    0   -8   22      0.13      0.00
    0   -8   21      0.01      0.00
    0   -8   20     -0.88      0.00
    0   -8   19     -0.62      0.00
    0   -8   18     -0.42      0.00
    0   -8   17      0.50      0.00
    0   -8   16      0.94      0.00
    0   -8   15      1.00      0.00
    0   -8   14      0.72      0.00
    0   -8   13     -0.37      0.00
    0   -8   12     -0.22      0.00
    0   -8   11     -1.28      0.00
    0   -8   10     -1.91      0.00
    0   -8    9     -1.84      0.00
    0   -8    8     -1.08      0.00
    0   -8    7      0.03      0.00
    0   -8    6      1.06      0.00
    0   -8    5      2.90      0.00
    0   -8    4      2.92      0.00
    0   -8    3      3.55      0.00
    0   -8    2      2.49      0.00
    0   -8    1      0.07      0.00
    0    8    0     -1.65      0.00
    0    8    1     -4.45      0.00
    0    8    2     -4.70      0.00
    0    8    3     -3.42      0.00
    0    8    4     -1.62      0.00
    0    8    5      0.85      0.00
    0    8    6      2.10      0.00
    0    8    7      2.23      0.00
    0    8    8      2.55      0.00
    0    8    9      2.01      0.00
    0    8   10      0.35      0.00
    0    8   11     -0.58      0.00
    0    8   12     -0.83      0.00
    0    8   13     -0.39      0.00
    0    8   14     -0.84      0.00
    0    8   15     -0.57      0.00
    0    8   16     -0.15      0.00
    0    8   17     -0.34      0.00
    0    8   18      0.63      0.00
    0    8   19     -0.14      0.00
    0    8   20     -0.23      0.00
    0    8   21      0.56      0.00
    0   -9   20      0.20      0.00
    0   -9   19      0.45      0.00
    0   -9   18      1.01      0.00
    0   -9   17      0.67      0.00
    0   -9   16     -0.22      0.00
    0   -9   15     -0.76      0.00
    0   -9   14     -1.38      0.00
    0   -9   13     -0.71      0.00
    0   -9   12     -1.05      0.00
    0   -9   11     -0.29      0.00
    0   -9   10      0.63      0.00
    0   -9    9      1.15      0.00
    0   -9    8      2.07      0.00
    0   -9    7      1.83      0.00
    0   -9    6      1.93      0.00
    0   -9    5      0.62      0.00
    0   -9    4     -0.43      0.00
    0   -9    3     -2.03      0.00
    0   -9    2     -3.56      0.00
    0   -9    1     -3.40      0.00
    0    9    0     -2.99      0.00
    0    9    1     -0.36      0.00
    0    9    2      1.60      0.00
    0    9    3      2.76      0.00
    0    9    4      3.40      0.00
    0    9    5      2.50      0.00
    0    9    6      1.50      0.00
    0    9    7      0.53      0.00
    0    9    8     -0.85      0.00
    0    9    9     -2.07      0.00
    0    9   10     -1.72      0.00
    0    9   11     -1.06      0.00
    0    9   12     -0.22      0.00
    0    9   13     -0.17      0.00
    0    9   14      0.06      0.00
    0    9   15      0.64      0.00
    0    9   16      0.40      0.00
    0    9   17      0.94      0.00
    0    9   18      0.02      0.00
    0    9   19     -0.14      0.00
    0    9   20      0.44      0.00
    0  -10   21      0.51      0.00
    0  -10   20      0.35      0.00
    0  -10   19      0.30      0.00
    0  -10   18     -0.52      0.00
    0  -10   17     -1.28      0.00
    0  -10   16     -0.83      0.00
    0  -10   15     -0.45      0.00
    0  -10   14      0.61      0.00
    0  -10   13      0.65      0.00
    0  -10   12      1.30      0.00
    0  -10   11      1.39      0.00
    0  -10   10      0.84      0.00
    0  -10    9      0.95      0.00
    0  -10    8     -0.27      0.00
    0  -10    7     -0.68      0.00
    0  -10    6     -1.74      0.00
    0  -10    5     -2.38      0.00
    0  -10    4     -2.09      0.00
    0  -10    3     -1.48      0.00
    0  -10    2      0.25      0.00
    0  -10    1      1.81      0.00
    0   10    0      3.29      0.00
    0   10    1      2.82      0.00
    0   10    2      2.01      0.00
    0   10    3      0.82      0.00
    0   10    4     -0.76      0.00
    0   10    5     -1.42      0.00
    0   10    6     -2.19      0.00
    0   10    7     -2.35      0.00
    0   10    8     -1.75      0.00
    0   10    9     -0.20      0.00
    0   10   10      0.67      0.00
    0   10   11      1.17      0.00
    0   10   12      0.88      0.00
    0   10   13      0.59      0.00
    0   10   14      0.96      0.00
    0   10   15      0.23      0.00
    0   10   16      0.22      0.00
    0   10   17     -0.61      0.00
    0   10   18     -0.62      0.00
    0   10   19      0.08      0.00
    0  -11   20     -0.26      0.00
    0  -11   18     -0.59      0.00
    0  -11   17      0.67      0.00
    0  -11   16      0.98      0.00
    0  -11   15      1.32      0.00
    0  -11   14      0.78      0.00
    0  -11   13      0.45      0.00
    0  -11   12     -0.10      0.00
    0  -11   11     -0.85      0.00
    0  -11   10     -0.65      0.00
    0  -11    9     -1.44      0.00
    0  -11    8     -1.18      0.00
    0  -11    7     -1.19      0.00
    0  -11    6     -0.81      0.00
    0  -11    5      0.75      0.00
    0  -11    4      1.44      0.00
    0  -11    3      2.21      0.00
    0  -11    2      2.33      0.00
    0  -11    1      1.31      0.00
    0   11    0     -0.37      0.00
    0   11    1     -1.15      0.00
    0   11    2     -1.99      0.00
    0   11    3     -2.20      0.00
    0   11    4     -1.61      0.00
    0   11    5     -1.40      0.00
    0   11    6     -0.11      0.00
    0   11    7      1.10      0.00
    0   11    8      1.97      0.00
    0   11    9      1.71      0.00
    0   11   10      1.14      0.00
    0   11   11      0.24      0.00
    0   11   12     -0.30      0.00
    0   11   13      0.06      0.00
    0   11   14     -0.86      0.00
    0   11   15     -0.69      0.00
    0   11   16     -0.84      0.00
    0   11   17     -0.46      0.00
    0   11   18      0.43      0.00
    0   11   19     -0.16      0.00
    0  -12   20     -0.21      0.00
    0  -12   19      0.32      0.00
    0  -12   18      1.16      0.00
    0  -12   17      0.48      0.00
    0  -12   16      0.03      0.00
    0  -12   15     -0.66      0.00
    0  -12   14     -1.08      0.00
    0  -12   13     -0.98      0.00
    0  -12   12     -1.13      0.00
    0  -12   11     -0.38      0.00
    0  -12   10     -0.46      0.00
    0  -12    9      0.05      0.00
    0  -12    8      0.44      0.00
    0  -12    7      0.82      0.00
    0  -12    6      1.79      0.00
    0  -12    5      1.15      0.00
    0  -12    4      0.68      0.00
    0  -12    3      0.01      0.00
    0  -12    2     -1.37      0.00
    0  -12    1     -1.85      0.00
    0   12    0     -1.48      0.00
    0   12    1     -1.33      0.00
    0   12    2     -0.38      0.00
    0   12    3      0.47      0.00
    0   12    4      0.89      0.00
    0   12    5      2.04      0.00
    0   12    6      1.93      0.00
    0   12    7      1.24      0.00
    0   12    8      0.08      0.00
    0   12    9     -0.76      0.00
    0   12   10     -1.27      0.00
    0   12   11     -1.14      0.00
    0   12   12     -0.42      0.00
    0   12   13     -1.01      0.00
    0   12   14     -0.24      0.00
    0   12   15      0.07      0.00
    0   12   16      0.37      0.00
    0   12   17      0.92      0.00
    0   12   18     -0.01      0.00
    0  -13   19      0.51      0.00
    0  -13   18     -0.56      0.00
    0  -13   17     -0.74      0.00
    0  -13   16     -0.75      0.00
    0  -13   15     -0.63      0.00
    0  -13   14      0.12      0.00
    0  -13   13      0.04      0.00
    0  -13   12      0.84      0.00
    0  -13   11      0.72      0.00
    0  -13   10      0.63      0.00
    0  -13    9      0.89      0.00
    0  -13    8      0.61      0.00
    0  -13    7      0.76      0.00
    0  -13    6     -0.28      0.00
    0  -13    5     -0.65      0.00
    0  -13    4     -0.79      0.00
    0  -13    3     -1.35      0.00
    0  -13    2     -0.74      0.00
    0  -13    1     -0.09      0.00
    0   13    0      0.38      0.00
    0   13    1      1.28      0.00
    0   13    2      1.41      0.00
    0   13    3      1.37      0.00
    0   13    4      1.36      0.00
    0   13    5      0.04      0.00
    0   13    6     -0.97      0.00
    0   13    7     -1.59      0.00
    0   13    8     -1.49      0.00
    0   13    9     -0.98      0.00
    0   13   10     -0.20      0.00
    0   13   11      0.50      0.00
    0   13   12      0.05      0.00
    0   13   13      0.86      0.00
    0   13   14      0.80      0.00
    0   13   15      0.56      0.00
    0   13   16      0.59      0.00
    0   13   17     -0.43      0.00
    0  -14   18     -0.32      0.00
    0  -14   17      0.08      0.00
    0  -14   16      0.20      0.00
    0  -14   15      0.75      0.00
    0  -14   14      0.28      0.00
    0  -14   13      0.92      0.00
    0  -14   12      0.38      0.00
    0  -14   11     -0.16      0.00
    0  -14   10      0.29      0.00
    0  -14    9     -0.37      0.00
    0  -14    8     -0.18      0.00
    0  -14    7     -0.67      0.00
    0  -14    6     -0.70      0.00
    0  -14    5     -0.41      0.00
    0  -14    4     -0.64      0.00
    0  -14    3      0.08      0.00
    0  -14    2      0.53      0.00
    0  -14    1      0.99      0.00
    0   14    0      1.15      0.00
    0   14    1      0.55      0.00
    0   14    2      0.14      0.00
    0   14    3     -0.66      0.00
    0   14    4     -1.69      0.00
    0   14    5     -1.69      0.00
    0   14    6     -1.20      0.00
    0   14    7     -0.24      0.00
    0   14    8      0.56      0.00
    0   14    9      1.01      0.00
    0   14   10      1.00      0.00
    0   14   11      0.37      0.00
    0   14   12      0.71      0.00
    0   14   13      0.16      0.00
    0   14   14     -0.24      0.00
    0   14   15     -0.26      0.00
    0   14   16     -0.80      0.00
    0  -15   17      0.16      0.00
    0  -15   16      0.45      0.00
    0  -15   15     -0.04      0.00
    0  -15   14      0.55      0.00
    0  -15   13     -0.36      0.00
    0  -15   12     -0.75      0.00
    0  -15   11      0.05      0.00
    0  -15   10     -0.79      0.00
    0  -15    9     -0.18      0.00
    0  -15    8     -0.44      0.00
    0  -15    7     -0.63      0.00
    0  -15    6     -0.13      0.00
    0  -15    5     -0.31      0.00
    0  -15    4      0.41      0.00
    0  -15    3      0.85      0.00
    0  -15    2      0.96      0.00
    0  -15    1      0.21      0.00
    0   15    0     -0.47      0.00
    0   15    1     -0.80      0.00
    0   15    2     -1.48      0.00
    0   15    3     -1.15      0.00
    0   15    4     -0.33      0.00
    0   15    5      0.53      0.00
    0   15    6      1.41      0.00
    0   15    7      1.36      0.00
    0   15    8      0.95      0.00
    0   15    9      0.35      0.00
    0   15   10     -0.24      0.00
    0   15   11     -0.12      0.00
    0   15   12     -0.56      0.00
    0   15   13     -0.57      0.00
    0   15   14     -0.35      0.00
    0   15   15     -0.35      0.00
    0  -16   16     -0.08      0.00
    0  -16   15      0.17      0.00
    0  -16   14     -0.89      0.00
    0  -16   13     -0.73      0.00
    0  -16   12      0.19      0.00
    0  -16   11     -0.69      0.00
    0  -16   10      0.29      0.00
    0  -16    9     -0.16      0.00
    0  -16    8     -0.27      0.00
    0  -16    7      0.65      0.00
    0  -16    6      0.45      0.00
    0  -16    5      1.11      0.00
    0  -16    4      1.20      0.00
    0  -16    3      0.48      0.00
    0  -16    2     -0.64      0.00
    0  -16    1     -0.67      0.00
    0   16    0     -0.69      0.00
    0   16    1     -0.78      0.00
    0   16    2      0.54      0.00
    0   16    3      0.99      0.00
    0   16    4      1.40      0.00
    0   16    5      1.46      0.00
    0   16    6      0.32      0.00
    0   16    7     -0.34      0.00
    0   16    8     -0.72      0.00
    0   16    9     -0.80      0.00
    0   16   10     -0.51      0.00
    0   16   11     -0.47      0.00
    0   16   12     -0.19      0.00
    0   16   13      0.03      0.00
    0   16   14      0.22      0.00
    0  -17   14     -0.10      0.00
    0  -17   13      0.65      0.00
    0  -17   12     -0.11      0.00
    0  -17   11      0.95      0.00
    0  -17   10      0.19      0.00
    0  -17    9      0.38      0.00
    0  -17    8      1.24      0.00
    0  -17    7      0.42      0.00
    0  -17    6      0.68      0.00
    0  -17    5      0.10      0.00
    0  -17    4     -1.03      0.00
    0  -17    3     -1.46      0.00
    0  -17    2     -0.63      0.00
    0  -17    1     -0.53      0.00
    0   17    0     -0.10      0.00
    0   17    1      1.21      0.00
    0   17    2      0.58      0.00
    0   17    3      0.60      0.00
    0   17    4     -0.01      0.00
    0   17    5     -1.37      0.00
    0   17    6     -1.14      0.00
    0   17    7     -0.84      0.00
    0   17    8     -0.47      0.00
    0   17    9     -0.09      0.00
    0   17   10      0.14      0.00
    0   17   11      0.25      0.00
    0   17   12      0.27      0.00
    0   17   13      0.42      0.00
    0  -18   14      0.92      0.00
    0  -18   12      0.78      0.00
    0  -18   11     -0.30      0.00
    0  -18   10      0.05      0.00
    0  -18    9      0.24      0.00
    0  -18    8     -0.96      0.00
    0  -18    7     -0.56      0.00
    0  -18    6     -1.14      0.00
    0  -18    5     -1.53      0.00
    0  -18    4     -0.77      0.00
    0  -18    3      0.31      0.00
    0  -18    2      0.21      0.00
    0  -18    1      0.80      0.00
    0   18    0      1.35      0.00
    0   18    1     -0.09      0.00
    0   18    2      0.07      0.00
    0   18    3     -0.75      0.00
    0   18    4     -1.38      0.00
    0   18    5     -0.04      0.00
    0   18    6      0.29      0.00
    0   18    7      0.48      0.00
    0   18    8      0.58      0.00
    0   18    9      0.59      0.00
    0   18   10      0.36      0.00
    0   18   11      0.29      0.00
    0  -19   12     -0.98      0.00
    0  -19   11     -0.34      0.00
    0  -19   10     -0.41      0.00
    0  -19    9     -0.95      0.00
    0  -19    8      0.05      0.00
    0  -19    7     -0.23      0.00
    0  -19    6      0.11      0.00
    0  -19    5      1.01      0.00
    0  -19    4      1.30      0.00
    0  -19    3      0.76      0.00
    0  -19    2      1.06      0.00
    0  -19    1      0.63      0.00
    0   19    0     -0.85      0.00
    0   19    1     -0.19      0.00
    0   19    2     -0.87      0.00
    0   19    3     -0.51      0.00
    0   19    4      1.03      0.00
    0   19    5      0.49      0.00
    0   19    6      0.36      0.00
    0   19    7      0.27      0.00
    0   19    8      0.15      0.00
    0   19    9     -0.11      0.00
    0   19   10     -0.08      0.00
    0  -20    9      0.96      0.00
    0  -20    7      0.56      0.00
    0  -20    6      0.71      0.00
    0  -20    5      0.26      0.00
    0  -20    4     -0.26      0.00
    0  -20    3     -0.14      0.00
    0  -20    2     -0.84      0.00
    0  -20    1     -1.40      0.00
    0   20    0     -0.20      0.00
    0   20    1     -0.67      0.00
    0   20    2      0.26      0.00
    0   20    3      1.02      0.00
    0   20    4     -0.26      0.00
    0   20    5     -0.10      0.00
    0   20    6     -0.08      0.00
    0   20    7     -0.14      0.00
    0  -21    7     -0.27      0.00
    0  -21    6     -0.46      0.00
    0  -21    3     -0.67      0.00
    0  -21    2     -0.30      0.00
    0  -21    1      0.70      0.00
    0   21    0      0.09      0.00
    0   21    1      0.87      0.00
    0   21    2      0.59      0.00
    0   21    3     -0.58      0.00
   -1   21    5      0.43      0.00
   -1   21    4      0.55      0.00
   -1   21    3     -0.29      0.00
   -1   21    2      0.52      0.00
   -1   21    1      0.62      0.00
   -1   21    0      0.37      0.00
    1  -21    1      1.06      0.00
    1  -21    2     -0.27      0.00
    1  -21    3     -0.80      0.00
    1  -21    4     -0.55      0.00
    1  -21    7     -0.19      0.00
   -1   20    7      0.03      0.00
   -1   20    6      0.28      0.00
   -1   20    5     -0.12      0.00
   -1   20    4     -0.47      0.00
   -1   20    3      0.63      0.00
   -1   20    2      0.09      0.00
   -1   20    1     -0.33      0.00
   -1   20    0     -0.28      0.00
    1  -20    1     -1.83      0.00
    1  -20    2     -1.16      0.00
    1  -20    3     -0.30      0.00
    1  -20    4     -0.29      0.00
    1  -20    5      0.36      0.00
    1  -20    6      0.58      0.00
    1  -20    7      0.29      0.00
    1  -20    8      0.24      0.00
    1  -20    9      0.95      0.00
    1  -20   10      0.77      0.00
    1  -20   11      0.85      0.00
   -1   19    9     -0.04      0.00
   -1   19    8      0.27      0.00
   -1   19    7      0.29      0.00
   -1   19    6     -0.01      0.00
   -1   19    5      0.26      0.00
   -1   19    4      0.95      0.00
   -1   19    3     -0.30      0.00
   -1   19    2     -0.52      0.00
   -1   19    1     -0.49      0.00
   -1   19    0     -1.10      0.00
    1  -19    1      0.77      0.00
    1  -19    2      1.31      0.00
    1  -19    3      0.97      0.00
    1  -19    4      1.41      0.00
    1  -19    5      0.97      0.00
    1  -19    6      0.28      0.00
    1  -19    7      0.24      0.00
    1  -19    8      0.40      0.00
    1  -19    9     -0.40      0.00
    1  -19   10     -0.29      0.00
    1  -19   11     -0.77      0.00
    1  -19   12     -1.21      0.00
    1  -19   13     -0.61      0.00
   -1   18   11      0.42      0.00
   -1   18   10      0.59      0.00
   -1   18    9      0.67      0.00
   -1   18    8      0.60      0.00
   -1   18    7      0.36      0.00
   -1   18    6      0.53      0.00
   -1   18    5      0.27      0.00
   -1   18    4     -1.11      0.00
   -1   18    3     -0.63      0.00
   -1   18    2     -0.29      0.00
   -1   18    1     -0.03      0.00
   -1   18    0      1.69      0.00
    1  -18    1      0.94      0.00
    1  -18    2      0.18      0.00
    1  -18    3      0.24      0.00
    1  -18    4     -0.73      0.00
    1  -18    5     -1.27      0.00
    1  -18    6     -0.97      0.00
    1  -18    7     -0.84      0.00
    1  -18    8     -1.16      0.00
    1  -18    9     -0.41      0.00
    1  -18   10     -0.66      0.00
    1  -18   11     -0.39      0.00
    1  -18   12      0.46      0.00
    1  -18   13      0.10      0.00
    1  -18   14      1.20      0.00
   -1   17   13      0.57      0.00
   -1   17   12      0.61      0.00
   -1   17   11      0.46      0.00
   -1   17   10      0.17      0.00
   -1   17    9     -0.04      0.00
   -1   17    8     -0.51      0.00
   -1   17    7     -0.65      0.00
   -1   17    6     -1.17      0.00
   -1   17    5     -1.57      0.00
   -1   17    4     -0.22      0.00
   -1   17    3      0.25      0.00
   -1   17    2      0.71      0.00
   -1   17    1      1.33      0.00
   -1   17    0     -0.28      0.00
    1  -17    1     -0.72      0.00
    1  -17    2     -0.68      0.00
    1  -17    3     -1.37      0.00
    1  -17    4     -1.04      0.00
    1  -17    5     -0.22      0.00
    1  -17    6      0.16      0.00
    1  -17    7      0.26      0.00
    1  -17    8      0.95      0.00
    1  -17    9      0.46      0.00
    1  -17   10      0.78      0.00
    1  -17   11      1.07      0.00
    1  -17   12      0.40      0.00
    1  -17   13      1.21      0.00
    1  -17   14      0.18      0.00
    1  -17   15     -0.65      0.00
    1  -17   16     -0.74      0.00
   -1   16   14      0.52      0.00
   -1   16   13      0.29      0.00
   -1   16   12     -0.25      0.00
   -1   16   11     -0.64      0.00
   -1   16   10     -0.69      0.00
   -1   16    9     -1.06      0.00
   -1   16    8     -0.76      0.00
   -1   16    7     -0.58      0.00
   -1   16    6      0.15      0.00
   -1   16    5      1.49      0.00
   -1   16    4      1.34      0.00
   -1   16    3      1.24      0.00
   -1   16    2      0.62      0.00
   -1   16    1     -0.89      0.00
   -1   16    0     -0.70      0.00
    1  -16    1     -0.56      0.00
    1  -16    2     -0.57      0.00
    1  -16    3      0.33      0.00
    1  -16    4      1.01      0.00
    1  -16    5      1.09      0.00
    1  -16    6      0.82      0.00
    1  -16    7      0.85      0.00
    1  -16    8      0.18      0.00
    1  -16    9      0.33      0.00
    1  -16   10      0.18      0.00
    1  -16   11     -0.42      0.00
    1  -16   12      0.14      0.00
    1  -16   13     -1.12      0.00
    1  -16   14     -1.17      0.00
    1  -16   16     -0.41      0.00
    1  -16   17      0.58      0.00
   -1   15   15     -0.02      0.00
   -1   15   14     -0.34      0.00
   -1   15   13     -0.92      0.00
   -1   15   12     -0.85      0.00
   -1   15   11     -0.34      0.00
   -1   15   10     -0.32      0.00
   -1   15    9      0.57      0.00
   -1   15    8      0.99      0.00
   -1   15    7      1.54      0.00
   -1   15    6      1.64      0.00
   -1   15    5      0.50      0.00
   -1   15    4     -0.15      0.00
   -1   15    3     -1.16      0.00
   -1   15    2     -1.61      0.00
   -1   15    1     -0.78      0.00
   -1   15    0     -0.37      0.00
    1  -15    1      0.24      0.00
    1  -15    2      0.89      0.00
    1  -15    3      0.94      0.00
    1  -15    4      0.58      0.00
    1  -15    5     -0.06      0.00
    1  -15    6     -0.13      0.00
    1  -15    7     -0.51      0.00
    1  -15    8     -0.48      0.00
    1  -15    9     -0.61      0.00
    1  -15   10     -0.81      0.00
    1  -15   11     -0.37      0.00
    1  -15   12     -1.13      0.00
    1  -15   13     -0.39      0.00
    1  -15   14      0.32      0.00
    1  -15   15      0.41      0.00
    1  -15   16      1.04      0.00
    1  -15   17      0.22      0.00
    1  -15   18      0.35      0.00
   -1   14   16     -0.67      0.00
   -1   14   15     -0.63      0.00
   -1   14   14     -0.75      0.00
   -1   14   13      0.01      0.00
   -1   14   12      0.78      0.00
   -1   14   11      0.69      0.00
   -1   14   10      1.38      0.00
   -1   14    9      0.99      0.00
   -1   14    8      0.59      0.00
   -1   14    7     -0.30      0.00
   -1   14    6     -1.44      0.00
   -1   14    5     -1.57      0.00
   -1   14    4     -1.73      0.00
   -1   14    3     -0.78      0.00
   -1   14    2      0.26      0.00
   -1   14    1      0.75      0.00
   -1   14    0      1.19      0.00
    1  -14    1      0.91      0.00
    1  -14    2      0.50      0.00
    1  -14    3     -0.04      0.00
    1  -14    4     -0.66      0.00
    1  -14    5     -0.47      0.00
    1  -14    6     -0.71      0.00
    1  -14    7     -0.86      0.00
    1  -14    8     -0.53      0.00
    1  -14    9     -0.35      0.00
    1  -14   10      0.08      0.00
    1  -14   11     -0.03      0.00
    1  -14   12      0.70      0.00
    1  -14   13      0.98      0.00
    1  -14   14      0.75      0.00
    1  -14   15      0.82      0.00
    1  -14   16     -0.22      0.00
    1  -14   17     -0.07      0.00
    1  -14   18     -0.32      0.00
   -1   13   17     -0.64      0.00
   -1   13   16      0.05      0.00
   -1   13   15      0.33      0.00
   -1   13   14      1.14      0.00
   -1   13   13      1.32      0.00
   -1   13   12      0.49      0.00
   -1   13   11      0.52      0.00
   -1   13   10     -0.54      0.00
   -1   13    9     -1.07      0.00
   -1   13    8     -1.56      0.00
   -1   13    7     -1.58      0.00
   -1   13    6     -0.65      0.00
   -1   13    5      0.02      0.00
   -1   13    4      1.32      0.00
   -1   13    3      1.56      0.00
   -1   13    2      1.45      0.00
   -1   13    1      1.01      0.00
   -1   13    0      0.02      0.00
    1  -13    1     -0.28      0.00
    1  -13    2     -0.79      0.00
    1  -13    3     -1.11      0.00
    1  -13    4     -0.66      0.00
    1  -13    5     -0.76      0.00
    1  -13    6     -0.50      0.00
    1  -13    7      0.61      0.00
    1  -13    8      0.81      0.00
    1  -13    9      1.00      0.00
    1  -13   10      0.96      0.00
    1  -13   11      0.88      0.00
    1  -13   12      0.71      0.00
    1  -13   13      0.18      0.00
    1  -13   14     -0.18      0.00
    1  -13   15     -0.94      0.00
    1  -13   16     -0.57      0.00
    1  -13   17     -0.56      0.00
    1  -13   18     -0.52      0.00
    1  -13   19      0.53      0.00
    1  -13   20      0.50      0.00
   -1   12   17      0.78      0.00
   -1   12   16      0.77      0.00
   -1   12   15      0.81      0.00
   -1   12   14      0.16      0.00
   -1   12   13     -1.03      0.00
   -1   12   12     -0.92      0.00
   -1   12   11     -1.49      0.00
   -1   12   10     -1.12      0.00
   -1   12    9     -0.63      0.00
   -1   12    8      0.20      0.00
   -1   12    7      1.33      0.00
   -1   12    6      1.62      0.00
   -1   12    5      1.88      0.00
   -1   12    4      0.90      0.00
   -1   12    3      0.18      0.00
   -1   12    2     -0.76      0.00
   -1   12    1     -1.43      0.00
   -1   12    0     -1.18      0.00
    1  -12    1     -1.40      0.00
    1  -12    2     -0.97      0.00
    1  -12    3     -0.11      0.00
    1  -12    4      0.31      0.00
    1  -12    5      1.09      0.00
    1  -12    6      2.00      0.00
    1  -12    7      1.21      0.00
    1  -12    8      0.63      0.00
    1  -12    9      0.14      0.00
    1  -12   10     -0.62      0.00
    1  -12   11     -0.57      0.00
    1  -12   12     -1.04      0.00
    1  -12   13     -1.18      0.00
    1  -12   14     -1.02      0.00
    1  -12   15     -0.31      0.00
    1  -12   16      0.11      0.00
    1  -12   17      0.40      0.00
    1  -12   18      1.06      0.00
    1  -12   19      0.29      0.00
    1  -12   20     -0.20      0.00
   -1   11   18      0.71      0.00
   -1   11   17      0.06      0.00
   -1   11   16     -0.48      0.00
   -1   11   15     -1.00      0.00
   -1   11   14     -1.53      0.00
   -1   11   13     -0.53      0.00
   -1   11   12     -0.22      0.00
   -1   11   11      0.60      0.00
   -1   11   10      1.15      0.00
   -1   11    9      1.57      0.00
   -1   11    8      1.74      0.00
   -1   11    7      0.82      0.00
   -1   11    6     -0.01      0.00
   -1   11    5     -1.28      0.00
   -1   11    4     -1.72      0.00
   -1   11    3     -2.03      0.00
   -1   11    2     -1.52      0.00
   -1   11    1     -0.63      0.00
   -1   11    0     -0.15      0.00
    1  -11    1      1.08      0.00
    1  -11    2      1.77      0.00
    1  -11    3      2.01      0.00
    1  -11    4      1.85      0.00
    1  -11    5      1.13      0.00
    1  -11    6     -0.69      0.00
    1  -11    7     -1.44      0.00
    1  -11    8     -1.50      0.00
    1  -11    9     -1.69      0.00
    1  -11   10     -0.71      0.00
    1  -11   11     -0.77      0.00
    1  -11   12     -0.25      0.00
    1  -11   13      0.55      0.00
    1  -11   14      0.91      0.00
    1  -11   15      1.15      0.00
    1  -11   16      0.77      0.00
    1  -11   17      0.49      0.00
    1  -11   18     -0.63      0.00
    1  -11   19     -0.76      0.00
    1  -11   20     -0.36      0.00
   -1   10   19      0.19      0.00
   -1   10   18     -0.59      0.00
   -1   10   17     -0.85      0.00
   -1   10   16     -0.48      0.00
   -1   10   15     -0.27      0.00
   -1   10   14      1.06      0.00
   -1   10   13      1.21      0.00
   -1   10   12      1.16      0.00
   -1   10   11      0.97      0.00
   -1   10   10      0.51      0.00
   -1   10    9     -0.21      0.00
   -1   10    8     -1.53      0.00
   -1   10    7     -1.99      0.00
   -1   10    6     -2.07      0.00
   -1   10    5     -1.40      0.00
   -1   10    4     -0.47      0.00
   -1   10    3      0.96      0.00
   -1   10    2      1.84      0.00
   -1   10    1      2.39      0.00
   -1   10    0      2.79      0.00
    1  -10    1      1.67      0.00
    1  -10    2      0.67      0.00
    1  -10    3     -0.99      0.00
    1  -10    4     -2.26      0.00
    1  -10    5     -2.90      0.00
    1  -10    6     -2.22      0.00
    1  -10    7     -0.81      0.00
    1  -10    8     -0.12      0.00
    1  -10    9      1.10      0.00
    1  -10   10      0.92      0.00
    1  -10   11      1.34      0.00
    1  -10   12      1.49      0.00
    1  -10   13      0.74      0.00
    1  -10   14      0.48      0.00
    1  -10   15     -0.55      0.00
    1  -10   16     -0.87      0.00
    1  -10   17     -1.12      0.00
    1  -10   18     -0.41      0.00
    1  -10   19      0.40      0.00
    1  -10   20      0.51      0.00
   -1    9   20      0.21      0.00
   -1    9   18     -0.18      0.00
   -1    9   17      0.60      0.00
   -1    9   16      0.56      0.00
   -1    9   15      1.28      0.00
   -1    9   14      0.57      0.00
   -1    9   13     -0.38      0.00
   -1    9   12     -0.57      0.00
   -1    9   11     -1.06      0.00
   -1    9   10     -1.51      0.00
   -1    9    9     -1.83      0.00
   -1    9    8     -0.88      0.00
   -1    9    7      0.30      0.00
   -1    9    6      1.39      0.00
   -1    9    5      2.47      0.00
   -1    9    4      3.04      0.00
   -1    9    3      2.45      0.00
   -1    9    2      1.59      0.00
   -1    9    1     -0.18      0.00
   -1    9    0     -2.57      0.00
    1   -9    1     -3.13      0.00
    1   -9    2     -3.81      0.00
    1   -9    3     -2.71      0.00
    1   -9    4     -0.78      0.00
    1   -9    5      0.85      0.00
    1   -9    6      2.49      0.00
    1   -9    7      2.25      0.00
    1   -9    8      2.13      0.00
    1   -9    9      1.20      0.00
    1   -9   10      0.69      0.00
    1   -9   11     -0.09      0.00
    1   -9   12     -1.09      0.00
    1   -9   13     -0.96      0.00
    1   -9   14     -1.49      0.00
    1   -9   15     -0.73      0.00
    1   -9   16      0.02      0.00
    1   -9   17      0.77      0.00
    1   -9   18      1.09      0.00
    1   -9   19      0.53      0.00
    1   -9   20      0.18      0.00
    1   -9   21     -0.66      0.00
    1   -9   22     -0.51      0.00
   -1    8   20     -0.17      0.00
   -1    8   19     -0.07      0.00
   -1    8   18      0.52      0.00
   -1    8   17     -0.03      0.00
   -1    8   16      0.24      0.00
   -1    8   15     -0.71      0.00
   -1    8   14     -1.39      0.00
   -1    8   13     -0.56      0.00
   -1    8   12     -0.63      0.00
   -1    8   11     -0.37      0.00
   -1    8   10      0.31      0.00
   -1    8    9      1.67      0.00
   -1    8    8      2.41      0.00
   -1    8    7      2.28      0.00
   -1    8    6      2.04      0.00
   -1    8    5      0.70      0.00
   -1    8    4     -1.29      0.00
   -1    8    3     -2.89      0.00
   -1    8    2     -4.59      0.00
   -1    8    1     -4.62      0.00
   -1    8    0     -2.11      0.00
    1   -8    1     -0.39      0.00
    1   -8    2      2.41      0.00
    1   -8    3      4.08      0.00
    1   -8    4      3.67      0.00
    1   -8    5      3.31      0.00
    1   -8    6      0.90      0.00
    1   -8    7     -0.35      0.00
    1   -8    8     -1.15      0.00
    1   -8    9     -1.90      0.00
    1   -8   10     -2.00      0.00
    1   -8   11     -1.64      0.00
    1   -8   12     -0.57      0.00
    1   -8   13     -0.30      0.00
    1   -8   14      0.93      0.00
    1   -8   15      1.27      0.00
    1   -8   16      0.92      0.00
    1   -8   17      0.44      0.00
    1   -8   18     -0.54      0.00
    1   -8   19     -0.86      0.00
    1   -8   20     -1.05      0.00
    1   -8   21     -0.26      0.00
   -1    7   20     -0.40      0.00
   -1    7   19      0.25      0.00
   -1    7   18     -0.30      0.00
   -1    7   17      0.02      0.00
   -1    7   15     -0.61      0.00
   -1    7   14      0.84      0.00
   -1    7   13      0.47      0.00
   -1    7   12      0.80      0.00
   -1    7   11      1.36      0.00
   -1    7   10      1.66      0.00
   -1    7    9      0.98      0.00
   -1    7    8     -0.47      0.00
   -1    7    7     -1.47      0.00
   -1    7    6     -3.18      0.00
   -1    7    5     -4.19      0.00
   -1    7    4     -3.99      0.00
   -1    7    3     -2.68      0.00
   -1    7    2      0.70      0.00
   -1    7    1      4.30      0.00
   -1    7    0      5.14      0.00
    1   -7    1      5.40      0.00
    1   -7    2      3.69      0.00
    1   -7    3      0.51      0.00
    1   -7    4     -1.24      0.00
    1   -7    5     -3.75      0.00
    1   -7    6     -3.53      0.00
    1   -7    7     -2.48      0.00
    1   -7    8     -2.25      0.00
    1   -7    9     -0.51      0.00
    1   -7   10      0.81      0.00
    1   -7   11      1.46      0.00
    1   -7   12      1.41      0.00
    1   -7   13      1.59      0.00
    1   -7   14      0.69      0.00
    1   -7   15     -0.35      0.00
    1   -7   16     -0.76      0.00
    1   -7   17     -1.22      0.00
    1   -7   18     -0.80      0.00
    1   -7   19     -0.12      0.00
    1   -7   20      0.73      0.00
    1   -7   21      0.66      0.00
   -1    6   21      0.28      0.00
   -1    6   20      0.94      0.00
   -1    6   19      0.25      0.00
   -1    6   18      0.35      0.00
   -1    6   17     -0.14      0.00
   -1    6   16      0.14      0.00
   -1    6   15      1.28      0.00
   -1    6   14      0.12      0.00
   -1    6   13      0.32      0.00
   -1    6   12      0.31      0.00
   -1    6   11     -0.39      0.00
   -1    6   10     -1.47      0.00
   -1    6    9     -2.63      0.00
   -1    6    8     -2.55      0.00
   -1    6    7     -2.67      0.00
   -1    6    6     -1.29      0.00
   -1    6    5      1.07      0.00
   -1    6    4      4.13      0.00
   -1    6    3      6.75      0.00
   -1    6    2      6.69      0.00
   -1    6    1      3.70      0.00
   -1    6    0      0.35      0.00
    1   -6    1     -2.70      0.00
    1   -6    2     -5.43      0.00
    1   -6    3     -5.53      0.00
    1   -6    4     -4.82      0.00
    1   -6    5     -1.67      0.00
    1   -6    6      0.92      0.00
    1   -6    7      1.44      0.00
    1   -6    8      3.33      0.00
    1   -6    9      3.03      0.00
    1   -6   10      1.68      0.00
    1   -6   11      0.85      0.00
    1   -6   12     -0.13      0.00
    1   -6   13     -1.10      0.00
    1   -6   14     -1.38      0.00
    1   -6   15     -0.94      0.00
    1   -6   16     -0.54      0.00
    1   -6   17      0.37      0.00
    1   -6   18      1.08      0.00
    1   -6   19      1.09      0.00
    1   -6   20      0.42      0.00
    1   -6   21      0.18      0.00
    1   -6   22     -0.41      0.00
   -1    5   21      0.80      0.00
   -1    5   20     -0.32      0.00
   -1    5   19     -0.39      0.00
   -1    5   18     -0.49      0.00
   -1    5   17     -0.06      0.00
   -1    5   16      0.56      0.00
   -1    5   15     -0.89      0.00
   -1    5   14     -0.42      0.00
   -1    5   13     -0.61      0.00
   -1    5   12     -1.22      0.00
   -1    5   11     -1.39      0.00
   -1    5   10     -1.24      0.00
   -1    5    9      0.35      0.00
   -1    5    8      1.45      0.00
   -1    5    7      3.53      0.00
   -1    5    6      5.23      0.00
   -1    5    5      6.04      0.00
   -1    5    4      4.03      0.00
   -1    5    3     -0.22      0.00
   -1    5    2     -4.64      0.00
   -1    5    1     -7.59      0.00
   -1    5    0     -7.23      0.00
    1   -5    1     -6.66      0.00
    1   -5    2     -3.26      0.00
    1   -5    3      1.29      0.00
    1   -5    4      4.75      0.00
    1   -5    5      5.74      0.00
    1   -5    6      3.94      0.00
    1   -5    7      3.29      0.00
    1   -5    8      0.42      0.00
    1   -5    9     -1.73      0.00
    1   -5   10     -1.77      0.00
    1   -5   11     -2.33      0.00
    1   -5   12     -1.70      0.00
    1   -5   13     -0.79      0.00
    1   -5   14      0.06      0.00
    1   -5   15      0.70      0.00
    1   -5   16      1.13      0.00
    1   -5   17      1.04      0.00
    1   -5   18      0.13      0.00
    1   -5   19     -0.53      0.00
    1   -5   20     -0.54      0.00
    1   -5   21     -0.85      0.00
    1   -5   22     -0.34      0.00
   -1    4   22     -0.26      0.00
   -1    4   21     -1.19      0.00
   -1    4   20     -0.73      0.00
   -1    4   19     -0.19      0.00
   -1    4   18      0.15      0.00
   -1    4   17      0.29      0.00
   -1    4   16     -0.93      0.00
   -1    4   15     -0.05      0.00
   -1    4   14     -0.16      0.00
   -1    4   13     -0.19      0.00
   -1    4   12      0.45      0.00
   -1    4   11      1.14      0.00
   -1    4   10      2.73      0.00
   -1    4    9      2.83      0.00
   -1    4    8      3.07      0.00
   -1    4    7      1.94      0.00
   -1    4    6     -0.60      0.00
   -1    4    5     -5.20      0.00
   -1    4    4     -8.41      0.00
   -1    4    3     -9.00      0.00
   -1    4    2     -7.38      0.00
   -1    4    1     -1.78      0.00
   -1    4    0      1.16      0.00
    1   -4    1      6.39      0.00
    1   -4    2     10.61      0.00
    1   -4    3      8.41      0.00
    1   -4    4      4.68      0.00
    1   -4    5     -0.40      0.00
    1   -4    6     -2.77      0.00
    1   -4    7     -4.71      0.00
    1   -4    8     -4.36      0.00
    1   -4    9     -2.01      0.00
    1   -4   10     -1.33      0.00
    1   -4   11      0.62      0.00
    1   -4   12      1.28      0.00
    1   -4   13      1.36      0.00
    1   -4   14      1.46      0.00
    1   -4   15      0.78      0.00
    1   -4   16      0.06      0.00
    1   -4   17     -0.90      0.00
    1   -4   18     -0.84      0.00
    1   -4   19     -0.42      0.00
    1   -4   20     -0.42      0.00
    1   -4   21      0.27      0.00
    1   -4   22      0.34      0.00
   -1    3   21      0.22      0.00
   -1    3   20      0.70      0.00
   -1    3   19      0.43      0.00
   -1    3   18      0.20      0.00
   -1    3   17     -0.50      0.00
   -1    3   16      0.57      0.00
   -1    3   15      0.43      0.00
   -1    3   14      0.62      0.00
   -1    3   13      1.04      0.00
   -1    3   12      1.11      0.00
   -1    3   11      1.42      0.00
   -1    3    9     -1.53      0.00
   -1    3    8     -3.66      0.00
   -1    3    7     -5.81      0.00
   -1    3    6     -7.31      0.00
   -1    3    5     -4.89      0.00
   -1    3    4     -0.54      0.00
   -1    3    3      4.18      0.00
   -1    3    2     10.50      0.00
   -1    3    1     10.31      0.00
   -1    3    0     11.98      0.00
    1   -3    1      9.26      0.00
    1   -3    2     -1.40      0.00
    1   -3    3     -6.56      0.00
    1   -3    4     -9.89      0.00
    1   -3    5     -8.28      0.00
    1   -3    6     -4.61      0.00
    1   -3    7     -1.14      0.00
    1   -3    8      2.16      0.00
    1   -3    9      2.36      0.00
    1   -3   10      3.29      0.00
    1   -3   11      2.00      0.00
    1   -3   12      0.93      0.00
    1   -3   13      0.51      0.00
    1   -3   14     -0.83      0.00
    1   -3   15     -1.07      0.00
    1   -3   16     -1.20      0.00
    1   -3   17     -0.35      0.00
    1   -3   18      0.11      0.00
    1   -3   19      0.10      0.00
    1   -3   20      0.60      0.00
    1   -3   21      0.31      0.00
    1   -3   22      0.07      0.00
    1   -3   23      0.56      0.00
   -1    2   22      0.60      0.00
   -1    2   21      0.54      0.00
   -1    2   20     -0.07      0.00
   -1    2   19     -0.11      0.00
   -1    2   18     -0.18      0.00
   -1    2   17      0.70      0.00
   -1    2   16      0.30      0.00
   -1    2   15      0.25      0.00
   -1    2   14      0.03      0.00
   -1    2   13     -0.44      0.00
   -1    2   12     -0.85      0.00
   -1    2   11     -2.67      0.00
   -1    2   10     -2.72      0.00
   -1    2    9     -2.87      0.00
   -1    2    8     -1.83      0.00
   -1    2    7      0.80      0.00
   -1    2    6      5.68      0.00
   -1    2    5      9.04      0.00
   -1    2    4     10.25      0.00
   -1    2    3     10.44      0.00
   -1    2    2      3.20      0.00
   -1    2    1     -0.28      0.00
   -1    2    0     -8.37      0.00
    1   -2    1    -18.38      0.00
    1   -2    2    -13.93      0.00
    1   -2    3     -8.88      0.00
    1   -2    4     -0.75      0.00
    1   -2    5      5.93      0.00
    1   -2    6      6.61      0.00
    1   -2    7      6.56      0.00
    1   -2    8      3.70      0.00
    1   -2    9      2.02      0.00
    1   -2   10     -0.67      0.00
    1   -2   11     -1.54      0.00
    1   -2   12     -1.42      0.00
    1   -2   13     -2.11      0.00
    1   -2   14     -0.97      0.00
    1   -2   15     -0.36      0.00
    1   -2   16      0.58      0.00
    1   -2   17      0.55      0.00
    1   -2   18      0.34      0.00
    1   -2   19      0.61      0.00
    1   -2   20      0.18      0.00
    1   -2   21      0.10      0.00
    1   -2   22      0.11      0.00
    1   -2   23     -0.29      0.00
   -1    1   22      0.14      0.00
   -1    1   21     -0.22      0.00
   -1    1   20      0.02      0.00
   -1    1   19      0.13      0.00
   -1    1   18      0.36      0.00
   -1    1   17     -0.30      0.00
   -1    1   16     -0.49      0.00
   -1    1   15     -0.81      0.00
   -1    1   14     -0.91      0.00
   -1    1   13     -0.93      0.00
   -1    1   12     -1.40      0.00
   -1    1   10      1.51      0.00
   -1    1    9      3.42      0.00
   -1    1    8      5.35      0.00
   -1    1    6      4.30      0.00
   -1    1    5      0.30      0.00
   -1    1    4     -4.11      0.00
   -1    1    3    -12.13      0.00
   -1    1    2    -12.75      0.00
   -1    1    1    -15.55      0.00
   -1    1    0    -13.32      0.00
    1   -1    2     10.27      0.00
    1   -1    3     15.20      0.00
    1   -1    4     14.24      0.00
    1   -1    5      5.96      0.00
    1   -1    6      2.14      0.00
    1   -1    7     -2.29      0.00
    1   -1    8     -3.96      0.00
    1   -1    9     -4.52      0.00
    1   -1   10     -3.03      0.00
    1   -1   11     -1.37      0.00
    1   -1   12     -0.91      0.00
    1   -1   13      0.98      0.00
    1   -1   14      1.10      0.00
    1   -1   15      1.23      0.00
    1   -1   16      0.52      0.00
    1   -1   17      0.22      0.00
    1   -1   18      0.33      0.00
    1   -1   19     -0.21      0.00
    1   -1   20     -0.29      0.00
    1   -1   21     -0.52      0.00
    1   -1   22     -0.40      0.00
    1   -1   23     -0.29      0.00
   -1    0   22     -0.12      0.00
   -1    0   21     -0.05      0.00
   -1    0   20     -0.09      0.00
   -1    0   19     -0.31      0.00
   -1    0   18     -0.66      0.00
   -1    0   17     -0.51      0.00
   -1    0   16     -0.41      0.00
   -1    0   15      0.10      0.00
   -1    0   14      0.42      0.00
   -1    0   13      0.73      0.00
   -1    0   12      2.37      0.00
   -1    0   11      2.26      0.00
   -1    0   10      2.26      0.00
   -1    0    9      1.13      0.00
   -1    0    8     -1.35      0.00
   -1    0    7     -4.77      0.00
   -1    0    6     -7.81      0.00
   -1    0    3     -2.84      0.00
   -1    0    2      1.41      0.00
   -1    0    1     10.31      0.00
    1    0    1     16.91      0.00
    1    0    2     10.04      0.00
    1    0    3      0.21      0.00
    1    0    4    -10.14      0.00
    1    0    5     -9.14      0.00
    1    0    7     -6.40      0.00
    1    0    8     -2.65      0.00
    1    0    9      0.49      0.00
    1    0   10      2.18      0.00
    1    0   11      2.03      0.00
    1    0   12      2.63      0.00
    1    0   13      1.20      0.00
    1    0   14      0.49      0.00
    1    0   15     -0.38      0.00
    1    0   16     -0.33      0.00
    1    0   17     -0.21      0.00
    1    0   18     -0.69      0.00
    1    0   19     -0.49      0.00
    1    0   20     -0.43      0.00
    1    0   21      0.30      0.00
    1    0   22      0.18      0.00
    1    0   23      0.28      0.00
   -1   -1   22     -0.38      0.00
   -1   -1   21     -0.20      0.00
   -1   -1   20     -0.34      0.00
   -1   -1   19     -0.08      0.00
   -1   -1   18      0.28      0.00
   -1   -1   17      0.46      0.00
   -1   -1   16      0.95      0.00
   -1   -1   15      0.84      0.00
   -1   -1   14      0.83      0.00
   -1   -1   13      1.10      0.00
   -1   -1   12     -0.39      0.00
   -1   -1   11     -1.32      0.00
   -1   -1   10     -2.85      0.00
   -1   -1    9     -4.04      0.00
   -1   -1    8     -4.00      0.00
   -1   -1    7     -3.01      0.00
   -1   -1    6      0.26      0.00
   -1   -1    5      3.92      0.00
   -1   -1    4     10.26      0.00
   -1   -1    3     11.69      0.00
   -1   -1    2     13.71      0.00
   -1   -1    1     11.46      0.00
    1    1    0     -5.41      0.00
    1    1    1    -13.07      0.00
    1    1    2    -17.28      0.00
    1    1    3    -16.51      0.00
    1    1    4     -5.72      0.00
    1    1    5     -1.85      0.00
    1    1    6      2.85      0.00
    1    1    7      6.26      0.00
    1    1    8      6.09      0.00
    1    1    9      4.58      0.00
    1    1   10      1.98      0.00
    1    1   11      0.84      0.00
    1    1   12     -1.06      0.00
    1    1   13     -1.30      0.00
    1    1   14     -1.31      0.00
    1    1   15     -0.54      0.00
    1    1   16     -0.36      0.00
    1    1   17     -0.61      0.00
    1    1   18      0.03      0.00
    1    1   19      0.21      0.00
    1    1   20      0.79      0.00
    1    1   21     -0.04      0.00
    1    1   22     -0.08      0.00
    1    1   23     -0.06      0.00
   -1   -2   22      0.29      0.00
   -1   -2   21      0.10      0.00
   -1   -2   20      0.52      0.00
   -1   -2   19      0.48      0.00
   -1   -2   18      0.35      0.00
   -1   -2   17      0.49      0.00
   -1   -2   16     -0.15      0.00
   -1   -2   15     -0.42      0.00
   -1   -2   14     -0.79      0.00
   -1   -2   13     -1.85      0.00
   -1   -2   12     -1.75      0.00
   -1   -2   11     -1.62      0.00
   -1   -2   10     -0.43      0.00
   -1   -2    9      1.44      0.00
   -1   -2    8      2.91      0.00
   -1   -2    7      5.44      0.00
   -1   -2    6      6.23      0.00
   -1   -2    5      5.99      0.00
   -1   -2    4      1.78      0.00
   -1   -2    3     -2.47      0.00
   -1   -2    1    -19.28      0.00
    1    2    0    -14.18      0.00
    1    2    1     -6.94      0.00
    1    2    2      1.64      0.00
    1    2    3     11.54      0.00
    1    2    4      9.94      0.00
    1    2    5      9.75      0.00
    1    2    6      7.66      0.00
    1    2    7      2.57      0.00
    1    2    8     -0.82      0.00
    1    2    9     -3.29      0.00
    1    2   10     -3.09      0.00
    1    2   11     -2.95      0.00
    1    2   12     -1.57      0.00
    1    2   13     -0.54      0.00
    1    2   14      0.43      0.00
    1    2   15      0.24      0.00
    1    2   16      0.11      0.00
    1    2   17      0.78      0.00
    1    2   18      0.45      0.00
    1    2   19      0.53      0.00
    1    2   20     -0.60      0.00
    1    2   21     -0.17      0.00
    1    2   22      0.26      0.00
    1    2   23      0.18      0.00
   -1   -3   22      0.03      0.00
   -1   -3   21      0.37      0.00
   -1   -3   20     -0.04      0.00
   -1   -3   19     -0.17      0.00
   -1   -3   18     -0.08      0.00
   -1   -3   17     -0.79      0.00
   -1   -3   16     -0.69      0.00
   -1   -3   15     -0.72      0.00
   -1   -3   14     -0.57      0.00
   -1   -3   13      0.36      0.00
   -1   -3   12      1.13      0.00
   -1   -3   11      2.25      0.00
   -1   -3   10      2.58      0.00
   -1   -3    9      2.10      0.00
   -1   -3    8      2.11      0.00
   -1   -3    7     -0.25      0.00
   -1   -3    6     -3.19      0.00
   -1   -3    5     -6.29      0.00
   -1   -3    4     -8.10      0.00
   -1   -3    3     -8.72      0.00
   -1   -3    2     -6.27      0.00
   -1   -3    1      4.95      0.00
    1    3    0     11.24      0.00
    1    3    1     13.52      0.00
    1    3    2     12.66      0.00
    1    3    3      4.13      0.00
    1    3    4      0.81      0.00
    1    3    5     -3.02      0.00
    1    3    6     -7.00      0.00
    1    3    7     -6.74      0.00
    1    3    8     -5.26      0.00
    1    3   10     -0.30      0.00
    1    3   11      1.19      0.00
    1    3   12      1.71      0.00
    1    3   13      1.58      0.00
    1    3   14      0.58      0.00
    1    3   15      0.40      0.00
    1    3   17     -0.13      0.00
    1    3   18     -0.03      0.00
    1    3   19     -0.72      0.00
    1    3   20      0.24      0.00
    1    3   21      0.65      0.00
    1    3   22      0.05      0.00
    1    3   23      0.04      0.00
   -1   -4   22      0.11      0.00
   -1   -4   21     -0.35      0.00
   -1   -4   20     -0.21      0.00
   -1   -4   19     -0.12      0.00
   -1   -4   18     -0.68      0.00
   -1   -4   17     -0.03      0.00
   -1   -4   16      0.23      0.00
   -1   -4   15      0.81      0.00
   -1   -4   14      1.22      0.00
   -1   -4   13      1.23      0.00
   -1   -4   12      1.00      0.00
   -1   -4   11     -0.19      0.00
   -1   -4   10     -1.03      0.00
   -1   -4    9     -1.55      0.00
   -1   -4    8     -3.51      0.00
   -1   -4    7     -4.14      0.00
   -1   -4    6     -2.97      0.00
   -1   -4    5     -1.20      0.00
   -1   -4    4      2.21      0.00
   -1   -4    3      6.58      0.00
   -1   -4    2     10.95      0.00
   -1   -4    1      8.72      0.00
    1    4    0      3.47      0.00
    1    4    2     -7.93      0.00
    1    4    3     -7.65      0.00
    1    4    4     -7.66      0.00
    1    4    5     -6.56      0.00
    1    4    6     -2.23      0.00
    1    4    7      1.17      0.00
    1    4    8      3.79      0.00
    1    4    9      3.47      0.00
    1    4   10      2.85      0.00
    1    4   11      1.80      0.00
    1    4   12      0.45      0.00
    1    4   13     -0.66      0.00
    1    4   14     -0.45      0.00
    1    4   15     -0.21      0.00
    1    4   16     -0.93      0.00
    1    4   18     -0.56      0.00
    1    4   19      0.35      0.00
    1    4   20      0.29      0.00
    1    4   21     -0.79      0.00
    1    4   22     -0.57      0.00
    1    4   23     -0.75      0.00
   -1   -5   22     -0.35      0.00
   -1   -5   21     -0.03      0.00
   -1   -5   20     -0.06      0.00
   -1   -5   19     -0.35      0.00
   -1   -5   18      0.62      0.00
   -1   -5   17      0.61      0.00
   -1   -5   16      0.78      0.00
   -1   -5   15      0.26      0.00
   -1   -5   14     -0.29      0.00
   -1   -5   13     -0.94      0.00
   -1   -5   12     -1.72      0.00
   -1   -5   11     -1.30      0.00
   -1   -5   10     -1.25      0.00
   -1   -5    9     -1.47      0.00
   -1   -5    8      0.11      0.00
   -1   -5    7      2.44      0.00
   -1   -5    6      3.52      0.00
   -1   -5    5      4.98      0.00
   -1   -5    4      4.74      0.00
   -1   -5    3      2.14      0.00
   -1   -5    2     -2.26      0.00
   -1   -5    1     -6.35      0.00
    1    5    0     -7.59      0.00
    1    5    1     -6.95      0.00
    1    5    2     -3.45      0.00
    1    5    3     -0.87      0.00
    1    5    4      1.95      0.00
    1    5    5      5.26      0.00
    1    5    6      5.89      0.00
    1    5    7      4.62      0.00
    1    5    8      1.62      0.00
    1    5    9      0.07      0.00
    1    5   10     -1.07      0.00
    1    5   11     -1.96      0.00
    1    5   12     -1.76      0.00
    1    5   13     -0.71      0.00
    1    5   14     -0.29      0.00
    1    5   15     -0.55      0.00
    1    5   16      0.36      0.00
    1    5   17     -0.03      0.00
    1    5   18      0.50      0.00
    1    5   19      0.20      0.00
    1    5   20     -0.78      0.00
    1    5   21      0.17      0.00
    1    5   22      0.39      0.00
   -1   -6   22      0.23      0.00
   -1   -6   21      0.12      0.00
   -1   -6   20      0.10      0.00
   -1   -6   18      0.24      0.00
   -1   -6   17      0.02      0.00
   -1   -6   16     -0.80      0.00
   -1   -6   15     -0.98      0.00
   -1   -6   14     -0.93      0.00
   -1   -6   13     -0.60      0.00
   -1   -6   12      0.58      0.00
   -1   -6   11      0.50      0.00
   -1   -6   10      1.09      0.00
   -1   -6    9      2.35      0.00
   -1   -6    8      2.80      0.00
   -1   -6    7      1.63      0.00
   -1   -6    6      0.59      0.00
   -1   -6    5     -1.70      0.00
   -1   -6    4     -4.24      0.00
   -1   -6    3     -4.66      0.00
   -1   -6    2     -4.69      0.00
   -1   -6    1     -2.25      0.00
    1    6    0      0.62      0.00
    1    6    1      2.99      0.00
    1    6    2      4.81      0.00
    1    6    3      5.33      0.00
    1    6    5      2.35      0.00
    1    6    6     -0.87      0.00
    1    6    7     -3.04      0.00
    1    6    8     -2.83      0.00
    1    6    9     -2.55      0.00
    1    6   10     -1.95      0.00
    1    6   11     -0.42      0.00
    1    6   12      0.69      0.00
    1    6   13      0.81      0.00
    1    6   14      0.45      0.00
    1    6   15      0.86      0.00
    1    6   16      0.16      0.00
    1    6   17      0.47      0.00
    1    6   18      0.22      0.00
    1    6   19     -0.52      0.00
    1    6   20      0.71      0.00
    1    6   21      0.48      0.00
    1    6   22      0.13      0.00
   -1   -7   21      0.04      0.00
   -1   -7   20      0.37      0.00
   -1   -7   19     -0.65      0.00
   -1   -7   18     -0.65      0.00
   -1   -7   17     -1.01      0.00
   -1   -7   16     -0.39      0.00
   -1   -7   15      0.34      0.00
   -1   -7   14      0.88      0.00
   -1   -7   13      1.47      0.00
   -1   -7   12      0.61      0.00
   -1   -7   11      1.01      0.00
   -1   -7   10      0.80      0.00
   -1   -7    9     -0.25      0.00
   -1   -7    8     -1.74      0.00
   -1   -7    7     -2.60      0.00
   -1   -7    6     -3.09      0.00
   -1   -7    5     -2.66      0.00
   -1   -7    4     -0.27      0.00
   -1   -7    3      0.62      0.00
   -1   -7    2      2.75      0.00
   -1   -7    1      4.03      0.00
    1    7    0      3.82      0.00
    1    7    1      3.72      0.00
    1    7    2      1.36      0.00
    1    7    3     -0.99      0.00
    1    7    4     -3.29      0.00
    1    7    5     -4.64      0.00
    1    7    6     -3.59      0.00
    1    7    7     -1.57      0.00
    1    7    8     -0.50      0.00
    1    7    9      0.70      0.00
    1    7   10      1.95      0.00
    1    7   11      1.80      0.00
    1    7   12      1.03      0.00
    1    7   13      0.16      0.00
    1    7   14      0.12      0.00
    1    7   16     -0.02      0.00
    1    7   17     -0.18      0.00
    1    7   18     -0.79      0.00
    1    7   19      0.36      0.00
    1    7   20     -0.29      0.00
    1    7   21     -0.66      0.00
   -1   -8   21     -0.04      0.00
   -1   -8   20     -0.72      0.00
   -1   -8   19     -0.15      0.00
   -1   -8   18     -0.04      0.00
   -1   -8   17      0.88      0.00
   -1   -8   16      1.34      0.00
   -1   -8   15      0.99      0.00
   -1   -8   14      0.54      0.00
   -1   -8   13     -0.71      0.00
   -1   -8   12     -0.38      0.00
   -1   -8   11     -1.14      0.00
   -1   -8   10     -1.67      0.00
   -1   -8    9     -1.69      0.00
   -1   -8    8     -1.24      0.00
   -1   -8    7      0.14      0.00
   -1   -8    6      1.35      0.00
   -1   -8    5      2.93      0.00
   -1   -8    4      2.34      0.00
   -1   -8    3      2.58      0.00
   -1   -8    2      1.97      0.00
   -1   -8    1      0.19      0.00
    1    8    0     -0.98      0.00
    1    8    1     -3.64      0.00
    1    8    2     -4.15      0.00
    1    8    3     -3.59      0.00
    1    8    4     -2.09      0.00
    1    8    5      0.64      0.00
    1    8    6      2.01      0.00
    1    8    7      2.29      0.00
    1    8    8      2.58      0.00
    1    8    9      2.16      0.00
    1    8   10      0.58      0.00
    1    8   11     -0.51      0.00
    1    8   12     -1.18      0.00
    1    8   13     -0.74      0.00
    1    8   14     -0.48      0.00
    1    8   15     -0.21      0.00
    1    8   16     -0.28      0.00
    1    8   17     -0.69      0.00
    1    8   18      0.45      0.00
    1    8   20     -0.16      0.00
    1    8   21      0.62      0.00
   -1   -9   20      0.52      0.00
   -1   -9   19      0.50      0.00
   -1   -9   18      0.96      0.00
   -1   -9   17      0.54      0.00
   -1   -9   16     -0.65      0.00
   -1   -9   15     -1.16      0.00
   -1   -9   14     -1.68      0.00
   -1   -9   13     -0.75      0.00
   -1   -9   12     -0.88      0.00
   -1   -9   11     -0.27      0.00
   -1   -9   10      0.55      0.00
   -1   -9    9      1.04      0.00
   -1   -9    8      2.14      0.00
   -1   -9    7      1.84      0.00
   -1   -9    6      1.60      0.00
   -1   -9    5      0.05      0.00
   -1   -9    4     -0.65      0.00
   -1   -9    3     -1.42      0.00
   -1   -9    2     -2.77      0.00
   -1   -9    1     -2.95      0.00
    1    9    0     -3.11      0.00
    1    9    1     -0.84      0.00
    1    9    2      1.14      0.00
    1    9    3      2.68      0.00
    1    9    4      3.62      0.00
    1    9    5      2.58      0.00
    1    9    6      1.69      0.00
    1    9    7      0.70      0.00
    1    9    8     -0.76      0.00
    1    9    9     -2.05      0.00
    1    9   10     -1.99      0.00
    1    9   11     -1.47      0.00
    1    9   12     -0.15      0.00
    1    9   13      0.32      0.00
    1    9   14      0.07      0.00
    1    9   15      0.12      0.00
    1    9   16     -0.12      0.00
    1    9   17      0.90      0.00
    1    9   18      0.33      0.00
    1    9   19      0.19      0.00
    1    9   20      0.64      0.00
   -1  -10   20      0.00      0.00
   -1  -10   19      0.01      0.00
   -1  -10   18     -0.75      0.00
   -1  -10   17     -1.59      0.00
   -1  -10   16     -0.99      0.00
   -1  -10   15     -0.41      0.00
   -1  -10   14      0.88      0.00
   -1  -10   13      0.96      0.00
   -1  -10   12      1.37      0.00
   -1  -10   11      1.47      0.00
   -1  -10   10      0.89      0.00
   -1  -10    9      0.97      0.00
   -1  -10    8     -0.34      0.00
   -1  -10    7     -0.85      0.00
   -1  -10    6     -1.76      0.00
   -1  -10    5     -1.94      0.00
   -1  -10    4     -1.44      0.00
   -1  -10    3     -1.43      0.00
   -1  -10    2     -0.20      0.00
   -1  -10    1      1.26      0.00
    1   10    0      3.09      0.00
    1   10    1      3.17      0.00
    1   10    2      2.47      0.00
    1   10    3      0.99      0.00
    1   10    4     -0.87      0.00
    1   10    5     -1.36      0.00
    1   10    6     -2.26      0.00
    1   10    7     -2.63      0.00
    1   10    8     -1.97      0.00
    1   10    9     -0.51      0.00
    1   10   11      1.60      0.00
    1   10   12      1.08      0.00
    1   10   13      0.17      0.00
    1   10   14      0.44      0.00
    1   10   15      0.16      0.00
    1   10   16      0.85      0.00
    1   10   17      0.07      0.00
    1   10   18     -0.38      0.00
    1   10   19     -0.01      0.00
    1   10   20     -0.80      0.00
   -1  -11   19     -0.59      0.00
   -1  -11   18     -0.52      0.00
   -1  -11   17      0.82      0.00
   -1  -11   16      1.33      0.00
   -1  -11   15      1.74      0.00
   -1  -11   14      0.98      0.00
   -1  -11   13      0.37      0.00
   -1  -11   12     -0.14      0.00
   -1  -11   11     -1.01      0.00
   -1  -11   10     -0.81      0.00
   -1  -11    9     -1.51      0.00
   -1  -11    8     -1.19      0.00
   -1  -11    7     -1.03      0.00
   -1  -11    6     -0.54      0.00
   -1  -11    5      0.75      0.00
   -1  -11    4      0.94      0.00
   -1  -11    3      1.88      0.00
   -1  -11    2      2.39      0.00
   -1  -11    1      1.75      0.00
    1   11    0      0.16      0.00
    1   11    1     -1.20      0.00
    1   11    2     -2.42      0.00
    1   11    3     -2.51      0.00
    1   11    4     -1.62      0.00
    1   11    5     -1.59      0.00
    1   11    6     -0.35      0.00
    1   11    7      1.19      0.00
    1   11    8      2.06      0.00
    1   11    9      2.05      0.00
    1   11   10      1.49      0.00
    1   11   11     -0.02      0.00
    1   11   12     -0.70      0.00
    1   11   13      0.06      0.00
    1   11   14     -0.33      0.00
    1   11   15      0.14      0.00
    1   11   16     -0.63      0.00
    1   11   17     -0.94      0.00
    1   11   18     -0.11      0.00
    1   11   19     -0.49      0.00
   -1  -12   19      0.29      0.00
   -1  -12   18      1.18      0.00
   -1  -12   17      0.69      0.00
   -1  -12   16      0.09      0.00
   -1  -12   15     -0.99      0.00
   -1  -12   14     -1.46      0.00
   -1  -12   13     -1.19      0.00
   -1  -12   12     -1.35      0.00
   -1  -12   11     -0.36      0.00
   -1  -12   10     -0.33      0.00
   -1  -12    9      0.16      0.00
   -1  -12    8      0.62      0.00
   -1  -12    7      0.83      0.00
   -1  -12    6      1.63      0.00
   -1  -12    5      0.93      0.00
   -1  -12    4      0.84      0.00
   -1  -12    3      0.30      0.00
   -1  -12    2     -1.18      0.00
   -1  -12    1     -1.89      0.00
    1   12    0     -2.04      0.00
    1   12    1     -1.71      0.00
    1   12    2     -0.31      0.00
    1   12    3      0.67      0.00
    1   12    4      0.84      0.00
    1   12    5      2.10      0.00
    1   12    6      2.30      0.00
    1   12    7      1.34      0.00
    1   12    8      0.21      0.00
    1   12    9     -0.89      0.00
    1   12   10     -1.72      0.00
    1   12   11     -1.11      0.00
    1   12   12     -0.02      0.00
    1   12   13     -0.51      0.00
    1   12   14     -0.02      0.00
    1   12   15     -0.57      0.00
    1   12   16     -0.46      0.00
    1   12   17      0.65      0.00
    1   12   18      0.11      0.00
   -1  -13   18     -0.46      0.00
   -1  -13   17     -0.93      0.00
   -1  -13   16     -1.13      0.00
   -1  -13   15     -0.63      0.00
   -1  -13   14      0.33      0.00
   -1  -13   13      0.23      0.00
   -1  -13   12      1.22      0.00
   -1  -13   11      0.87      0.00
   -1  -13   10      0.69      0.00
   -1  -13    9      0.97      0.00
   -1  -13    8      0.42      0.00
   -1  -13    7      0.61      0.00
   -1  -13    6     -0.37      0.00
   -1  -13    5     -0.60      0.00
   -1  -13    4     -0.81      0.00
   -1  -13    3     -1.44      0.00
   -1  -13    2     -0.87      0.00
   -1  -13    1     -0.42      0.00
    1   13    0      0.48      0.00
    1   13    1      1.60      0.00
    1   13    2      1.55      0.00
    1   13    3      1.31      0.00
    1   13    4      1.49      0.00
    1   13    5      0.24      0.00
    1   13    6     -1.18      0.00
    1   13    7     -1.66      0.00
    1   13    8     -1.66      0.00
    1   13    9     -1.04      0.00
    1   13   10      0.27      0.00
    1   13   11      0.77      0.00
    1   13   12      0.06      0.00
    1   13   13      0.49      0.00
    1   13   14      0.00      0.00
    1   13   15      0.28      0.00
    1   13   16      1.03      0.00
    1   13   17      0.02      0.00
    1   13   18      0.19      0.00
   -1  -14   17      0.09      0.00
   -1  -14   16      0.65      0.00
   -1  -14   15      1.02      0.00
   -1  -14   14      0.31      0.00
   -1  -14   13      0.92      0.00
   -1  -14   12      0.01      0.00
   -1  -14   11     -0.36      0.00
   -1  -14   10      0.14      0.00
   -1  -14    9     -0.75      0.00
   -1  -14    8     -0.25      0.00
   -1  -14    7     -0.73      0.00
   -1  -14    6     -0.63      0.00
   -1  -14    5     -0.22      0.00
   -1  -14    4     -0.47      0.00
   -1  -14    3      0.17      0.00
   -1  -14    2      0.41      0.00
   -1  -14    1      1.20      0.00
    1   14    0      1.36      0.00
    1   14    1      0.58      0.00
    1   14    2      0.12      0.00
    1   14    3     -0.55      0.00
    1   14    4     -1.64      0.00
    1   14    5     -1.91      0.00
    1   14    6     -1.10      0.00
    1   14    7     -0.18      0.00
    1   14    8      0.70      0.00
    1   14    9      1.26      0.00
    1   14   10      0.71      0.00
    1   14   11      0.01      0.00
    1   14   12      0.31      0.00
    1   14   13     -0.17      0.00
    1   14   14      0.15      0.00
    1   14   15      0.37      0.00
    1   14   16     -0.63      0.00
    1   14   17     -0.19      0.00
   -1  -15   16      0.09      0.00
   -1  -15   15     -0.51      0.00
   -1  -15   14      0.23      0.00
   -1  -15   13     -0.69      0.00
   -1  -15   12     -0.58      0.00
   -1  -15   11      0.14      0.00
   -1  -15   10     -0.84      0.00
   -1  -15    9      0.26      0.00
   -1  -15    8     -0.16      0.00
   -1  -15    7     -0.23      0.00
   -1  -15    6      0.27      0.00
   -1  -15    5     -0.30      0.00
   -1  -15    4      0.20      0.00
   -1  -15    3      0.55      0.00
   -1  -15    2      1.05      0.00
   -1  -15    1      0.32      0.00
    1   15    0     -0.52      0.00
    1   15    1     -0.92      0.00
    1   15    2     -1.54      0.00
    1   15    3     -1.24      0.00
    1   15    4     -0.53      0.00
    1   15    5      0.63      0.00
    1   15    6      1.30      0.00
    1   15    7      1.23      0.00
    1   15    8      0.80      0.00
    1   15    9     -0.09      0.00
    1   15   10     -0.32      0.00
    1   15   11     -0.11      0.00
    1   15   12     -0.37      0.00
    1   15   13      0.01      0.00
    1   15   14     -0.04      0.00
    1   15   15     -0.54      0.00
   -1  -16   16     -0.13      0.00
   -1  -16   15      0.49      0.00
   -1  -16   14     -0.47      0.00
   -1  -16   13     -0.06      0.00
   -1  -16   12      0.37      0.00
   -1  -16   11     -0.58      0.00
   -1  -16   10      0.75      0.00
   -1  -16    9     -0.20      0.00
   -1  -16    8     -0.31      0.00
   -1  -16    7      0.38      0.00
   -1  -16    6     -0.27      0.00
   -1  -16    5      0.62      0.00
   -1  -16    4      1.00      0.00
   -1  -16    3      0.71      0.00
   -1  -16    2     -0.53      0.00
   -1  -16    1     -0.87      0.00
    1   16    0     -0.92      0.00
    1   16    1     -0.80      0.00
    1   16    2      0.57      0.00
    1   16    3      0.90      0.00
    1   16    4      1.51      0.00
    1   16    5      1.34      0.00
    1   16    6      0.31      0.00
    1   16    7     -0.23      0.00
    1   16    8     -0.69      0.00
    1   16    9     -0.44      0.00
    1   16   10     -0.27      0.00
    1   16   11     -0.20      0.00
    1   16   12      0.14      0.00
    1   16   13     -0.04      0.00
    1   16   14     -0.11      0.00
   -1  -17   14     -0.05      0.00
   -1  -17   13      0.13      0.00
   -1  -17   12     -0.43      0.00
   -1  -17   11      0.83      0.00
   -1  -17   10     -0.48      0.00
   -1  -17    9     -0.03      0.00
   -1  -17    8      0.79      0.00
   -1  -17    7      0.03      0.00
   -1  -17    6      0.99      0.00
   -1  -17    5      0.56      0.00
   -1  -17    4     -0.54      0.00
   -1  -17    3     -1.35      0.00
   -1  -17    2     -0.81      0.00
   -1  -17    1     -0.46      0.00
    1   17    0      0.25      0.00
    1   17    1      1.41      0.00
    1   17    2      0.57      0.00
    1   17    3      0.76      0.00
    1   17    4      0.01      0.00
    1   17    5     -1.17      0.00
    1   17    6     -0.93      0.00
    1   17    7     -0.85      0.00
    1   17    8     -0.34      0.00
    1   17    9     -0.14      0.00
    1   17   10      0.14      0.00
    1   17   11      0.20      0.00
    1   17   12     -0.05      0.00
    1   17   13      0.06      0.00
   -1  -18   12      0.77      0.00
   -1  -18   11     -0.55      0.00
   -1  -18   10      0.34      0.00
   -1  -18    9      0.61      0.00
   -1  -18    8     -0.44      0.00
   -1  -18    7      0.25      0.00
   -1  -18    6     -0.82      0.00
   -1  -18    5     -1.46      0.00
   -1  -18    4     -0.97      0.00
   -1  -18    3      0.11      0.00
   -1  -18    2      0.41      0.00
   -1  -18    1      0.98      0.00
    1   18    0      1.10      0.00
    1   18    1     -0.40      0.00
    1   18    2      0.07      0.00
    1   18    3     -0.84      0.00
    1   18    4     -1.39      0.00
    1   18    5     -0.21      0.00
    1   18    6     -0.04      0.00
    1   18    7      0.42      0.00
    1   18    8      0.50      0.00
    1   18    9      0.56      0.00
    1   18   10      0.22      0.00
    1   18   11      0.02      0.00
   -1  -19   10     -0.08      0.00
   -1  -19    9     -0.82      0.00
   -1  -19    8     -0.01      0.00
   -1  -19    7     -0.81      0.00
   -1  -19    6     -0.31      0.00
   -1  -19    5      0.70      0.00
   -1  -19    4      1.14      0.00
   -1  -19    3      0.84      0.00
   -1  -19    2      0.82      0.00
   -1  -19    1      0.14      0.00
    1   19    0     -0.96      0.00
    1   19    1      0.00      0.00
    1   19    2     -0.89      0.00
    1   19    3     -0.52      0.00
    1   19    4      0.92      0.00
    1   19    5      0.49      0.00
    1   19    6      0.71      0.00
    1   19    7      0.44      0.00
    1   19    8      0.16      0.00
    1   19    9     -0.22      0.00
    1   19   10     -0.15      0.00
   -1  -20    8     -0.06      0.00
   -1  -20    7      0.66      0.00
   -1  -20    5      0.35      0.00
   -1  -20    4     -0.14      0.00
   -1  -20    3     -0.29      0.00
   -1  -20    2     -0.83      0.00
   -1  -20    1     -0.92      0.00
    1   20    0      0.18      0.00
    1   20    1     -0.64      0.00
    1   20    2      0.34      0.00
    1   20    3      1.12      0.00
    1   20    4     -0.01      0.00
    1   20    5      0.20      0.00
    1   20    6     -0.25      0.00
    1   20    7     -0.42      0.00
   -1  -21    4     -0.32      0.00
   -1  -21    3     -0.39      0.00
   -1  -21    2      0.05      0.00
   -1  -21    1      0.61      0.00
    1   21    0     -0.16      0.00
    1   21    1      0.82      0.00
    1   21    2      0.56      0.00
    1   21    3     -0.60      0.00
    2  -22    1     -0.41      0.00
    2  -22    3      0.80      0.00
   -2   21    4      0.67      0.00
   -2   21    3      0.15      0.00
   -2   21    2      0.52      0.00
   -2   21    1      0.13      0.00
   -2   21    0      0.28      0.00
    2  -21    1      1.24      0.00
    2  -21    2      0.14      0.00
    2  -21    3     -0.44      0.00
    2  -21    4     -0.50      0.00
    2  -21    5     -0.89      0.00
    2  -21    8     -0.26      0.00
    2  -21    9     -0.74      0.00
   -2   20    7     -0.06      0.00
   -2   20    6      0.45      0.00
   -2   20    5      0.01      0.00
   -2   20    4     -0.40      0.00
   -2   20    3      0.16      0.00
   -2   20    2     -0.34      0.00
   -2   20    1      0.01      0.00
   -2   20    0      0.08      0.00
    2  -20    1     -1.60      0.00
    2  -20    2     -1.29      0.00
    2  -20    3     -0.72      0.00
    2  -20    4     -0.55      0.00
    2  -20    5      0.26      0.00
    2  -20    6      0.47      0.00
    2  -20    7      0.17      0.00
    2  -20    8      0.06      0.00
    2  -20    9      0.54      0.00
    2  -20   10      0.80      0.00
    2  -20   12      0.96      0.00
   -2   19    9     -0.14      0.00
   -2   19    8      0.27      0.00
   -2   19    7      0.40      0.00
   -2   19    6     -0.16      0.00
   -2   19    5      0.03      0.00
   -2   19    4      0.59      0.00
   -2   19    3     -0.16      0.00
   -2   19    2      0.15      0.00
   -2   19    1     -0.35      0.00
   -2   19    0     -1.27      0.00
    2  -19    1      0.38      0.00
    2  -19    2      1.02      0.00
    2  -19    3      1.05      0.00
    2  -19    4      1.48      0.00
    2  -19    5      0.93      0.00
    2  -19    6      0.34      0.00
    2  -19    7      0.39      0.00
    2  -19    8      0.57      0.00
    2  -19    9      0.28      0.00
    2  -19   10      0.19      0.00
    2  -19   11     -0.63      0.00
    2  -19   12     -1.09      0.00
    2  -19   13     -0.95      0.00
    2  -19   14     -1.18      0.00
    2  -19   15     -0.51      0.00
   -2   18   11      0.29      0.00
   -2   18   10      0.65      0.00
   -2   18    9      0.73      0.00
   -2   18    8      0.65      0.00
   -2   18    7      0.20      0.00
   -2   18    6      0.55      0.00
   -2   18    5      0.46      0.00
   -2   18    4     -0.62      0.00
   -2   18    3     -0.21      0.00
   -2   18    2     -0.63      0.00
   -2   18    1     -0.40      0.00
   -2   18    0      1.46      0.00
    2  -18    1      1.01      0.00
    2  -18    2      0.45      0.00
    2  -18    3      0.30      0.00
    2  -18    4     -0.65      0.00
    2  -18    5     -0.96      0.00
    2  -18    6     -0.67      0.00
    2  -18    7     -0.68      0.00
    2  -18    8     -0.88      0.00
    2  -18    9     -0.74      0.00
    2  -18   10     -1.19      0.00
    2  -18   11     -0.71      0.00
    2  -18   12     -0.17      0.00
    2  -18   13     -0.08      0.00
    2  -18   14      1.02      0.00
    2  -18   15      1.05      0.00
    2  -18   16      1.05      0.00
   -2   17   12      0.72      0.00
   -2   17   11      0.64      0.00
   -2   17   10      0.26      0.00
   -2   17    9      0.02      0.00
   -2   17    8     -0.54      0.00
   -2   17    7     -0.41      0.00
   -2   17    6     -0.97      0.00
   -2   17    5     -1.52      0.00
   -2   17    4     -0.42      0.00
   -2   17    3     -0.37      0.00
   -2   17    2      0.50      0.00
   -2   17    1      1.42      0.00
   -2   17    0     -0.03      0.00
    2  -17    1     -0.52      0.00
    2  -17    2     -0.68      0.00
    2  -17    3     -1.25      0.00
    2  -17    4     -0.88      0.00
    2  -17    5     -0.33      0.00
    2  -17    6     -0.18      0.00
    2  -17    7     -0.01      0.00
    2  -17    8      0.28      0.00
    2  -17    9      0.12      0.00
    2  -17   10      0.81      0.00
    2  -17   11      0.91      0.00
    2  -17   12      0.83      0.00
    2  -17   13      1.48      0.00
    2  -17   14      0.51      0.00
    2  -17   15      0.10      0.00
    2  -17   16     -0.62      0.00
    2  -17   17     -1.17      0.00
   -2   16   13      0.51      0.00
   -2   16   12     -0.12      0.00
   -2   16   11     -0.62      0.00
   -2   16   10     -0.70      0.00
   -2   16    9     -1.12      0.00
   -2   16    8     -0.68      0.00
   -2   16    7     -0.77      0.00
   -2   16    6     -0.16      0.00
   -2   16    5      1.27      0.00
   -2   16    4      1.09      0.00
   -2   16    3      1.49      0.00
   -2   16    2      0.99      0.00
   -2   16    1     -0.66      0.00
   -2   16    0     -0.65      0.00
    2  -16    1     -0.65      0.00
    2  -16    2     -0.61      0.00
    2  -16    3      0.16      0.00
    2  -16    4      0.66      0.00
    2  -16    5      0.79      0.00
    2  -16    6      0.77      0.00
    2  -16    7      0.72      0.00
    2  -16    8      0.51      0.00
    2  -16    9      0.79      0.00
    2  -16   10      0.38      0.00
    2  -16   11      0.24      0.00
    2  -16   12      0.29      0.00
    2  -16   13     -0.98      0.00
    2  -16   14     -0.95      0.00
    2  -16   15     -1.22      0.00
    2  -16   16     -0.90      0.00
    2  -16   17      0.42      0.00
   -2   15   15      0.21      0.00
   -2   15   14     -0.15      0.00
   -2   15   13     -0.92      0.00
   -2   15   12     -0.94      0.00
   -2   15   11     -0.50      0.00
   -2   15   10     -0.46      0.00
   -2   15    9      0.53      0.00
   -2   15    8      0.77      0.00
   -2   15    7      1.51      0.00
   -2   15    6      1.83      0.00
   -2   15    5      0.59      0.00
   -2   15    4      0.19      0.00
   -2   15    3     -0.95      0.00
   -2   15    2     -1.71      0.00
   -2   15    1     -0.99      0.00
   -2   15    0     -0.58      0.00
    2  -15    1      0.12      0.00
    2  -15    2      0.80      0.00
    2  -15    3      0.96      0.00
    2  -15    4      0.72      0.00
    2  -15    5      0.22      0.00
    2  -15    6      0.03      0.00
    2  -15    7     -0.09      0.00
    2  -15    8     -0.20      0.00
    2  -15    9     -0.58      0.00
    2  -15   10     -0.58      0.00
    2  -15   11     -0.79      0.00
    2  -15   12     -1.40      0.00
    2  -15   13     -0.63      0.00
    2  -15   14     -0.45      0.00
    2  -15   15      0.38      0.00
    2  -15   16      1.30      0.00
    2  -15   17      0.35      0.00
    2  -15   18      0.49      0.00
    2  -15   19      0.18      0.00
   -2   14   15     -0.64      0.00
   -2   14   14     -0.98      0.00
   -2   14   13     -0.24      0.00
   -2   14   12      0.55      0.00
   -2   14   11      0.68      0.00
   -2   14   10      1.47      0.00
   -2   14    9      1.01      0.00
   -2   14    8      0.82      0.00
   -2   14    7     -0.11      0.00
   -2   14    6     -1.51      0.00
   -2   14    5     -1.47      0.00
   -2   14    4     -1.79      0.00
   -2   14    3     -1.05      0.00
   -2   14    2      0.14      0.00
   -2   14    1      0.78      0.00
   -2   14    0      1.38      0.00
    2  -14    1      1.18      0.00
    2  -14    2      0.69      0.00
    2  -14    3     -0.04      0.00
    2  -14    4     -0.65      0.00
    2  -14    5     -0.50      0.00
    2  -14    6     -0.58      0.00
    2  -14    7     -0.91      0.00
    2  -14    8     -0.80      0.00
    2  -14    9     -0.59      0.00
    2  -14   10     -0.57      0.00
    2  -14   11     -0.19      0.00
    2  -14   12      0.64      0.00
    2  -14   13      0.72      0.00
    2  -14   14      1.28      0.00
    2  -14   15      1.15      0.00
    2  -14   16     -0.23      0.00
    2  -14   17     -0.01      0.00
    2  -14   18     -0.35      0.00
    2  -14   19     -0.73      0.00
   -2   13   16     -0.24      0.00
   -2   13   15     -0.02      0.00
   -2   13   14      0.98      0.00
   -2   13   13      1.37      0.00
   -2   13   12      0.84      0.00
   -2   13   11      0.76      0.00
   -2   13   10     -0.44      0.00
   -2   13    9     -0.94      0.00
   -2   13    8     -1.64      0.00
   -2   13    7     -1.72      0.00
   -2   13    6     -0.55      0.00
   -2   13    5     -0.02      0.00
   -2   13    4      1.19      0.00
   -2   13    3      1.70      0.00
   -2   13    2      1.65      0.00
   -2   13    1      1.17      0.00
   -2   13    0     -0.01      0.00
    2  -13    1     -0.63      0.00
    2  -13    2     -1.19      0.00
    2  -13    3     -1.16      0.00
    2  -13    4     -0.55      0.00
    2  -13    5     -0.67      0.00
    2  -13    6     -0.68      0.00
    2  -13    8      0.58      0.00
    2  -13    9      0.84      0.00
    2  -13   10      1.37      0.00
    2  -13   11      1.17      0.00
    2  -13   12      0.84      0.00
    2  -13   13      0.77      0.00
    2  -13   14     -0.14      0.00
    2  -13   15     -1.05      0.00
    2  -13   16     -0.47      0.00
    2  -13   17     -0.56      0.00
    2  -13   18     -0.45      0.00
    2  -13   19      0.46      0.00
    2  -13   20      0.35      0.00
   -2   12   17      0.52      0.00
   -2   12   16      0.68      0.00
   -2   12   15      1.08      0.00
   -2   12   14      0.58      0.00
   -2   12   13     -0.61      0.00
   -2   12   12     -0.92      0.00
   -2   12   11     -1.64      0.00
   -2   12   10     -1.24      0.00
   -2   12    9     -0.82      0.00
   -2   12    8      0.18      0.00
   -2   12    7      1.41      0.00
   -2   12    6      1.47      0.00
   -2   12    5      1.76      0.00
   -2   12    4      1.00      0.00
   -2   12    3      0.14      0.00
   -2   12    2     -0.94      0.00
   -2   12    1     -1.79      0.00
   -2   12    0     -1.53      0.00
    2  -12    1     -1.26      0.00
    2  -12    2     -0.41      0.00
    2  -12    3      0.23      0.00
    2  -12    4      0.22      0.00
    2  -12    5      0.79      0.00
    2  -12    6      1.80      0.00
    2  -12    7      1.45      0.00
    2  -12    8      1.06      0.00
    2  -12    9      0.69      0.00
    2  -12   10     -0.51      0.00
    2  -12   11     -0.60      0.00
    2  -12   12     -0.83      0.00
    2  -12   13     -1.46      0.00
    2  -12   14     -1.19      0.00
    2  -12   15     -0.33      0.00
    2  -12   16     -0.07      0.00
    2  -12   17      0.29      0.00
    2  -12   18      0.85      0.00
    2  -12   19      0.16      0.00
   -2   11   18      0.72      0.00
   -2   11   17      0.26      0.00
   -2   11   16     -0.04      0.00
   -2   11   15     -0.77      0.00
   -2   11   14     -1.62      0.00
   -2   11   13     -1.03      0.00
   -2   11   12     -0.55      0.00
   -2   11   11      0.47      0.00
   -2   11   10      1.12      0.00
   -2   11    9      1.65      0.00
   -2   11    8      1.66      0.00
   -2   11    7      0.67      0.00
   -2   11    6      0.05      0.00
   -2   11    5     -1.12      0.00
   -2   11    4     -1.75      0.00
   -2   11    3     -2.06      0.00
   -2   11    2     -1.51      0.00
   -2   11    1     -0.34      0.00
   -2   11    0      0.50      0.00
    2  -11    1      1.45      0.00
    2  -11    2      1.48      0.00
    2  -11    3      1.46      0.00
    2  -11    4      1.64      0.00
    2  -11    5      1.36      0.00
    2  -11    6     -0.20      0.00
    2  -11    7     -1.19      0.00
    2  -11    8     -1.61      0.00
    2  -11    9     -2.09      0.00
    2  -11   10     -0.98      0.00
    2  -11   11     -0.83      0.00
    2  -11   12     -0.63      0.00
    2  -11   13      0.36      0.00
    2  -11   14      0.81      0.00
    2  -11   15      0.97      0.00
    2  -11   16      0.79      0.00
    2  -11   17      0.50      0.00
    2  -11   18     -0.47      0.00
    2  -11   19     -0.53      0.00
    2  -11   20     -0.27      0.00
   -2   10   18     -0.49      0.00
   -2   10   17     -0.67      0.00
   -2   10   16     -0.73      0.00
   -2   10   15     -0.72      0.00
   -2   10   14      0.66      0.00
   -2   10   13      1.29      0.00
   -2   10   12      1.43      0.00
   -2   10   11      1.19      0.00
   -2   10   10      0.61      0.00
   -2   10    9     -0.27      0.00
   -2   10    8     -1.35      0.00
   -2   10    7     -1.67      0.00
   -2   10    6     -1.95      0.00
   -2   10    5     -1.43      0.00
   -2   10    4     -0.40      0.00
   -2   10    3      1.01      0.00
   -2   10    2      1.98      0.00
   -2   10    1      2.44      0.00
   -2   10    0      2.28      0.00
    2  -10    1      1.04      0.00
    2  -10    2      0.47      0.00
    2  -10    3     -0.60      0.00
    2  -10    4     -1.81      0.00
    2  -10    5     -2.83      0.00
    2  -10    6     -2.62      0.00
    2  -10    7     -1.30      0.00
    2  -10    8     -0.35      0.00
    2  -10    9      1.16      0.00
    2  -10   10      1.02      0.00
    2  -10   11      1.17      0.00
    2  -10   12      1.57      0.00
    2  -10   13      0.96      0.00
    2  -10   14      0.71      0.00
    2  -10   15     -0.19      0.00
    2  -10   16     -0.67      0.00
    2  -10   17     -0.94      0.00
    2  -10   18     -0.34      0.00
    2  -10   19      0.31      0.00
    2  -10   21      0.71      0.00
   -2    9   19     -0.42      0.00
   -2    9   18     -0.14      0.00
   -2    9   17      0.27      0.00
   -2    9   15      1.42      0.00
   -2    9   14      1.02      0.00
   -2    9   13     -0.06      0.00
   -2    9   12     -0.55      0.00
   -2    9   11     -1.20      0.00
   -2    9   10     -1.55      0.00
   -2    9    9     -1.56      0.00
   -2    9    8     -0.89      0.00
   -2    9    7     -0.03      0.00
   -2    9    6      1.15      0.00
   -2    9    5      2.36      0.00
   -2    9    4      2.81      0.00
   -2    9    3      2.28      0.00
   -2    9    2      1.41      0.00
   -2    9    1     -0.45      0.00
   -2    9    0     -2.38      0.00
    2   -9    1     -2.63      0.00
    2   -9    2     -3.37      0.00
    2   -9    3     -2.78      0.00
    2   -9    4     -1.29      0.00
    2   -9    5      0.49      0.00
    2   -9    6      2.59      0.00
    2   -9    7      2.68      0.00
    2   -9    8      2.45      0.00
    2   -9    9      1.29      0.00
    2   -9   10      0.64      0.00
    2   -9   11      0.20      0.00
    2   -9   12     -0.75      0.00
    2   -9   13     -0.82      0.00
    2   -9   14     -1.46      0.00
    2   -9   15     -1.00      0.00
    2   -9   16     -0.22      0.00
    2   -9   17      0.51      0.00
    2   -9   18      0.87      0.00
    2   -9   19      0.40      0.00
    2   -9   20      0.17      0.00
    2   -9   21     -0.49      0.00
    2   -9   22     -0.42      0.00
   -2    8   19      0.12      0.00
   -2    8   18      0.30      0.00
   -2    8   17      0.04      0.00
   -2    8   16      0.48      0.00
   -2    8   15     -0.52      0.00
   -2    8   14     -1.48      0.00
   -2    8   13     -0.90      0.00
   -2    8   12     -0.86      0.00
   -2    8   11     -0.31      0.00
   -2    8   10      0.41      0.00
   -2    8    9      1.26      0.00
   -2    8    8      2.06      0.00
   -2    8    7      2.31      0.00
   -2    8    6      2.10      0.00
   -2    8    5      0.63      0.00
   -2    8    4     -1.11      0.00
   -2    8    3     -2.51      0.00
   -2    8    2     -4.24      0.00
   -2    8    1     -4.18      0.00
   -2    8    0     -2.08      0.00
    2   -8    1     -0.68      0.00
    2   -8    2      2.00      0.00
    2   -8    3      3.86      0.00
    2   -8    4      4.03      0.00
    2   -8    5      3.85      0.00
    2   -8    6      1.12      0.00
    2   -8    7     -0.55      0.00
    2   -8    8     -1.42      0.00
    2   -8    9     -2.00      0.00
    2   -8   10     -1.80      0.00
    2   -8   11     -1.69      0.00
    2   -8   12     -0.98      0.00
    2   -8   13     -0.68      0.00
    2   -8   14      0.51      0.00
    2   -8   15      1.17      0.00
    2   -8   16      0.98      0.00
    2   -8   17      0.60      0.00
    2   -8   18     -0.34      0.00
    2   -8   19     -0.65      0.00
    2   -8   20     -0.75      0.00
    2   -8   21     -0.28      0.00
    2   -8   22     -0.10      0.00
    2   -8   23      0.14      0.00
   -2    7   20     -0.28      0.00
   -2    7   19     -0.13      0.00
   -2    7   18     -0.30      0.00
   -2    7   17      0.09      0.00
   -2    7   16     -0.66      0.00
   -2    7   15     -0.77      0.00
   -2    7   14      0.61      0.00
   -2    7   13      0.56      0.00
   -2    7   12      1.07      0.00
   -2    7   11      1.33      0.00
   -2    7   10      1.32      0.00
   -2    7    9      1.14      0.00
   -2    7    8     -0.03      0.00
   -2    7    7     -1.29      0.00
   -2    7    6     -3.07      0.00
   -2    7    5     -3.71      0.00
   -2    7    4     -3.49      0.00
   -2    7    3     -2.74      0.00
   -2    7    2      0.35      0.00
   -2    7    1      3.70      0.00
   -2    7    0      4.85      0.00
    2   -7    1      5.49      0.00
    2   -7    2      3.86      0.00
    2   -7    3      0.79      0.00
    2   -7    4     -1.33      0.00
    2   -7    5     -4.24      0.00
    2   -7    6     -3.96      0.00
    2   -7    7     -2.52      0.00
    2   -7    8     -2.06      0.00
    2   -7    9     -0.35      0.00
    2   -7   10      0.52      0.00
    2   -7   11      1.13      0.00
    2   -7   12      1.51      0.00
    2   -7   13      1.78      0.00
    2   -7   14      1.16      0.00
    2   -7   15      0.06      0.00
    2   -7   16     -0.51      0.00
    2   -7   17     -1.11      0.00
    2   -7   18     -0.79      0.00
    2   -7   19     -0.13      0.00
    2   -7   20      0.35      0.00
    2   -7   22      0.65      0.00
    2   -7   23      0.38      0.00
   -2    6   20      0.45      0.00
   -2    6   19      0.41      0.00
   -2    6   18      0.57      0.00
   -2    6   17     -0.03      0.00
   -2    6   16      0.18      0.00
   -2    6   15      1.24      0.00
   -2    6   14      0.40      0.00
   -2    6   13      0.49      0.00
   -2    6   12      0.10      0.00
   -2    6   11     -0.49      0.00
   -2    6   10     -1.01      0.00
   -2    6    9     -2.34      0.00
   -2    6    8     -2.64      0.00
   -2    6    7     -2.59      0.00
   -2    6    6     -0.97      0.00
   -2    6    5      0.95      0.00
   -2    6    4      3.16      0.00
   -2    6    3      5.98      0.00
   -2    6    2      6.40      0.00
   -2    6    1      3.86      0.00
   -2    6    0      0.54      0.00
    2   -6    1     -2.96      0.00
    2   -6    2     -5.55      0.00
    2   -6    3     -5.52      0.00
    2   -6    4     -4.74      0.00
    2   -6    5     -1.27      0.00
    2   -6    6      1.42      0.00
    2   -6    7      1.68      0.00
    2   -6    8      3.27      0.00
    2   -6    9      2.74      0.00
    2   -6   10      1.80      0.00
    2   -6   11      1.35      0.00
    2   -6   12      0.08      0.00
    2   -6   13     -0.88      0.00
    2   -6   14     -1.46      0.00
    2   -6   15     -1.23      0.00
    2   -6   17      0.06      0.00
    2   -6   18      0.88      0.00
    2   -6   19      0.73      0.00
    2   -6   20      0.48      0.00
    2   -6   21      0.47      0.00
    2   -6   22     -0.27      0.00
    2   -6   23     -0.48      0.00
   -2    5   21      0.71      0.00
   -2    5   20      0.30      0.00
   -2    5   19     -0.01      0.00
   -2    5   18     -0.47      0.00
   -2    5   16      0.39      0.00
   -2    5   15     -0.71      0.00
   -2    5   14     -0.49      0.00
   -2    5   13     -0.90      0.00
   -2    5   12     -1.11      0.00
   -2    5   11     -1.07      0.00
   -2    5   10     -1.40      0.00
   -2    5    9      0.02      0.00
   -2    5    8      1.40      0.00
   -2    5    7      3.38      0.00
   -2    5    6      4.40      0.00
   -2    5    5      4.81      0.00
   -2    5    4      3.95      0.00
   -2    5    3      0.35      0.00
   -2    5    2     -4.19      0.00
   -2    5    1     -7.27      0.00
   -2    5    0     -7.02      0.00
    2   -5    1     -5.64      0.00
    2   -5    2     -2.11      0.00
    2   -5    3      1.66      0.00
    2   -5    4      4.70      0.00
    2   -5    5      5.32      0.00
    2   -5    6      3.30      0.00
    2   -5    7      2.84      0.00
    2   -5    8      0.24      0.00
    2   -5    9     -1.44      0.00
    2   -5   10     -1.60      0.00
    2   -5   11     -2.69      0.00
    2   -5   12     -1.90      0.00
    2   -5   13     -1.13      0.00
    2   -5   14     -0.26      0.00
    2   -5   15      0.59      0.00
    2   -5   16      1.14      0.00
    2   -5   17      1.22      0.00
    2   -5   18      0.23      0.00
    2   -5   19     -0.12      0.00
    2   -5   20     -0.24      0.00
    2   -5   21     -0.89      0.00
    2   -5   22     -0.42      0.00
    2   -5   23      0.14      0.00
    2   -5   24     -0.18      0.00
   -2    4   21     -0.55      0.00
   -2    4   20     -0.78      0.00
   -2    4   19     -0.68      0.00
   -2    4   18     -0.23      0.00
   -2    4   17      0.12      0.00
   -2    4   16     -0.69      0.00
   -2    4   15     -0.21      0.00
   -2    4   14     -0.35      0.00
   -2    4   13      0.01      0.00
   -2    4   12      0.47      0.00
   -2    4   11      0.75      0.00
   -2    4   10      2.46      0.00
   -2    4    9      2.80      0.00
   -2    4    8      2.78      0.00
   -2    4    7      1.33      0.00
   -2    4    6     -0.69      0.00
   -2    4    5     -3.71      0.00
   -2    4    4     -6.98      0.00
   -2    4    3     -8.30      0.00
   -2    4    2     -6.50      0.00
   -2    4    1     -1.01      0.00
   -2    4    0      2.05      0.00
    2   -4    1      5.87      0.00
    2   -4    2      8.29      0.00
    2   -4    3      6.49      0.00
    2   -4    4      3.66      0.00
    2   -4    5     -0.62      0.00
    2   -4    6     -2.29      0.00
    2   -4    7     -4.16      0.00
    2   -4    8     -3.89      0.00
    2   -4    9     -2.05      0.00
    2   -4   10     -1.64      0.00
    2   -4   11      0.79      0.00
    2   -4   12      1.34      0.00
    2   -4   13      1.46      0.00
    2   -4   14      1.72      0.00
    2   -4   15      1.04      0.00
    2   -4   16      0.37      0.00
    2   -4   17     -0.81      0.00
    2   -4   18     -0.67      0.00
    2   -4   19     -0.52      0.00
    2   -4   20     -0.67      0.00
    2   -4   21      0.22      0.00
    2   -4   22      0.37      0.00
    2   -4   23     -0.10      0.00
    2   -4   24      0.15      0.00
   -2    3   21     -0.46      0.00
   -2    3   20      0.05      0.00
   -2    3   19      0.36      0.00
   -2    3   18      0.44      0.00
   -2    3   17     -0.10      0.00
   -2    3   16      0.38      0.00
   -2    3   15      0.37      0.00
   -2    3   14      0.86      0.00
   -2    3   13      0.95      0.00
   -2    3   12      0.93      0.00
   -2    3   11      1.54      0.00
   -2    3   10     -0.02      0.00
   -2    3    9     -1.42      0.00
   -2    3    8     -3.37      0.00
   -2    3    7     -4.72      0.00
   -2    3    6     -5.47      0.00
   -2    3    5     -4.42      0.00
   -2    3    4     -1.06      0.00
   -2    3    3      3.91      0.00
   -2    3    2      9.27      0.00
   -2    3    1      8.33      0.00
   -2    3    0      8.68      0.00
    2   -3    1      6.29      0.00
    2   -3    2     -0.93      0.00
    2   -3    3     -4.31      0.00
    2   -3    4     -7.64      0.00
    2   -3    5     -6.62      0.00
    2   -3    6     -4.09      0.00
    2   -3    7     -1.18      0.00
    2   -3    8      1.81      0.00
    2   -3    9      2.16      0.00
    2   -3   10      3.54      0.00
    2   -3   12      0.87      0.00
    2   -3   13      0.59      0.00
    2   -3   14     -0.78      0.00
    2   -3   15     -1.07      0.00
    2   -3   16     -1.46      0.00
    2   -3   17     -0.50      0.00
    2   -3   18     -0.09      0.00
    2   -3   19     -0.02      0.00
    2   -3   20      0.65      0.00
    2   -3   21      0.28      0.00
    2   -3   22     -0.06      0.00
    2   -3   23      0.20      0.00
    2   -3   24      0.12      0.00
   -2    2   21      0.53      0.00
   -2    2   20      0.53      0.00
   -2    2   19      0.39      0.00
   -2    2   18      0.08      0.00
   -2    2   17      0.35      0.00
   -2    2   16      0.35      0.00
   -2    2   15      0.51      0.00
   -2    2   14     -0.06      0.00
   -2    2   13     -0.38      0.00
   -2    2   12     -0.59      0.00
   -2    2   11     -2.38      0.00
   -2    2   10     -2.64      0.00
   -2    2    9     -2.62      0.00
   -2    2    8     -1.32      0.00
   -2    2    6      3.98      0.00
   -2    2    5      7.08      0.00
   -2    2    4      8.92      0.00
   -2    2    3      8.25      0.00
   -2    2    2      1.60      0.00
   -2    2    1     -0.76      0.00
   -2    2    0     -5.97      0.00
    2   -2    1    -12.63      0.00
    2   -2    3     -8.05      0.00
    2   -2    4     -1.69      0.00
    2   -2    6      5.24      0.00
    2   -2    7      5.77      0.00
    2   -2    8      3.39      0.00
    2   -2    9      2.05      0.00
    2   -2   10     -0.91      0.00
    2   -2   11     -1.63      0.00
    2   -2   12     -1.29      0.00
    2   -2   13     -2.09      0.00
    2   -2   14     -1.11      0.00
    2   -2   15     -0.64      0.00
    2   -2   16      0.56      0.00
    2   -2   17      0.62      0.00
    2   -2   18      0.39      0.00
    2   -2   19      0.60      0.00
    2   -2   20      0.07      0.00
    2   -2   21      0.02      0.00
    2   -2   22      0.12      0.00
    2   -2   23      0.12      0.00
    2   -2   24      0.02      0.00
   -2    1   21      0.42      0.00
   -2    1   20      0.09      0.00
   -2    1   19     -0.12      0.00
   -2    1   18     -0.16      0.00
   -2    1   17     -0.16      0.00
   -2    1   16     -0.34      0.00
   -2    1   15     -1.04      0.00
   -2    1   14     -0.89      0.00
   -2    1   13     -0.91      0.00
   -2    1   11      0.02      0.00
   -2    1   10      1.27      0.00
   -2    1    9      3.10      0.00
   -2    1    8      4.43      0.00
   -2    1    7      4.76      0.00
   -2    1    6      3.71      0.00
   -2    1    5      0.80      0.00
   -2    1    4     -3.76      0.00
   -2    1    3     -9.87      0.00
   -2    1    2     -9.02      0.00
   -2    1    1    -10.76      0.00
   -2    1    0     -9.78      0.00
    2   -1    1      0.79      0.00
    2   -1    3     11.28      0.00
    2   -1    4     11.95      0.00
    2   -1    5      5.75      0.00
    2   -1    6      2.65      0.00
    2   -1    7     -1.69      0.00
    2   -1    8     -3.31      0.00
    2   -1    9     -4.21      0.00
    2   -1   10     -2.74      0.00
    2   -1   11     -1.08      0.00
    2   -1   12     -0.96      0.00
    2   -1   13      0.75      0.00
    2   -1   14      1.02      0.00
    2   -1   15      1.48      0.00
    2   -1   16      0.74      0.00
    2   -1   17      0.21      0.00
    2   -1   18      0.27      0.00
    2   -1   19     -0.12      0.00
    2   -1   20     -0.07      0.00
    2   -1   21     -0.22      0.00
    2   -1   22     -0.06      0.00
    2   -1   23     -0.34      0.00
   -2    0   21     -0.57      0.00
   -2    0   20     -0.56      0.00
   -2    0   19     -0.64      0.00
   -2    0   18     -0.31      0.00
   -2    0   17     -0.47      0.00
   -2    0   16     -0.68      0.00
   -2    0   15      0.18      0.00
   -2    0   14      0.36      0.00
   -2    0   13      0.62      0.00
   -2    0   12      2.08      0.00
   -2    0   10      2.28      0.00
   -2    0    9      0.97      0.00
   -2    0    8     -1.23      0.00
   -2    0    7     -3.51      0.00
   -2    0    6     -6.04      0.00
   -2    0    5     -7.55      0.00
   -2    0    4     -7.16      0.00
   -2    0    3     -1.29      0.00
   -2    0    2      0.90      0.00
   -2    0    1      6.41      0.00
    2    0    0     15.34      0.00
    2    0    1     12.47      0.00
    2    0    2     10.34      0.00
    2    0    3      2.47      0.00
    2    0    4     -7.13      0.00
    2    0    5     -7.23      0.00
    2    0    6     -8.10      0.00
    2    0    7     -5.68      0.00
    2    0    8     -2.60      0.00
    2    0    9      0.28      0.00
    2    0   10      1.98      0.00
    2    0   11      1.68      0.00
    2    0   12      2.44      0.00
    2    0   13      1.45      0.00
    2    0   14      0.84      0.00
    2    0   15     -0.29      0.00
    2    0   16     -0.53      0.00
    2    0   17     -0.24      0.00
    2    0   18     -0.45      0.00
    2    0   19     -0.40      0.00
    2    0   20     -0.50      0.00
    2    0   21      0.04      0.00
    2    0   22     -0.30      0.00
    2    0   23      0.02      0.00
    2    0   24      0.15      0.00
   -2   -1   22     -0.79      0.00
   -2   -1   21     -0.27      0.00
   -2   -1   20     -0.18      0.00
   -2   -1   19      0.45      0.00
   -2   -1   18      0.23      0.00
   -2   -1   17      0.32      0.00
   -2   -1   16      1.20      0.00
   -2   -1   15      0.83      0.00
   -2   -1   14      0.89      0.00
   -2   -1   13      1.09      0.00
   -2   -1   12     -0.04      0.00
   -2   -1   11     -1.02      0.00
   -2   -1   10     -2.67      0.00
   -2   -1    8     -3.24      0.00
   -2   -1    7     -2.52      0.00
   -2   -1    6     -0.07      0.00
   -2   -1    5      3.50      0.00
   -2   -1    4      8.04      0.00
   -2   -1    3      7.90      0.00
   -2   -1    2      9.44      0.00
   -2   -1    1      8.84      0.00
    2    1    0     -1.84      0.00
    2    1    1     -7.09      0.00
    2    1    2    -13.34      0.00
    2    1    3    -14.56      0.00
    2    1    4     -5.91      0.00
    2    1    5     -2.54      0.00
    2    1    6      2.11      0.00
    2    1    7      5.05      0.00
    2    1    8      5.15      0.00
    2    1    9      4.30      0.00
    2    1   10      1.90      0.00
    2    1   11      1.05      0.00
    2    1   12     -0.63      0.00
    2    1   13     -1.28      0.00
    2    1   14     -1.61      0.00
    2    1   15     -0.94      0.00
    2    1   16     -0.41      0.00
    2    1   17     -0.50      0.00
    2    1   18     -0.29      0.00
    2    1   19     -0.13      0.00
    2    1   20      0.57      0.00
    2    1   21     -0.06      0.00
    2    1   22      0.26      0.00
    2    1   23      0.15      0.00
    2    1   24     -0.06      0.00
   -2   -2   21      0.44      0.00
   -2   -2   20      0.87      0.00
   -2   -2   19      0.23      0.00
   -2   -2   18      0.31      0.00
   -2   -2   17      0.74      0.00
   -2   -2   16     -0.27      0.00
   -2   -2   15     -0.38      0.00
   -2   -2   14     -0.82      0.00
   -2   -2   13     -1.64      0.00
   -2   -2   12     -1.77      0.00
   -2   -2   11     -1.82      0.00
   -2   -2   10     -0.46      0.00
   -2   -2    9      1.23      0.00
   -2   -2    8      2.46      0.00
   -2   -2    7      4.38      0.00
   -2   -2    6      5.19      0.00
   -2   -2    5      4.37      0.00
   -2   -2    4      0.74      0.00
   -2   -2    3     -1.60      0.00
   -2   -2    2     -6.01      0.00
   -2   -2    1    -13.05      0.00
    2    2    0    -10.96      0.00
    2    2    1     -8.03      0.00
    2    2    2     -0.71      0.00
    2    2    3      8.88      0.00
    2    2    4      8.30      0.00
    2    2    5      8.56      0.00
    2    2    6      6.59      0.00
    2    2    7      2.53      0.00
    2    2    8     -0.08      0.00
    2    2    9     -2.80      0.00
    2    2   10     -2.82      0.00
    2    2   11     -2.89      0.00
    2    2   12     -2.06      0.00
    2    2   13     -0.93      0.00
    2    2   14      0.27      0.00
    2    2   15      0.48      0.00
    2    2   16      0.32      0.00
    2    2   17      0.57      0.00
    2    2   18      0.60      0.00
    2    2   19      0.92      0.00
    2    2   20     -0.13      0.00
    2    2   21      0.17      0.00
    2    2   22      0.08      0.00
    2    2   23      0.06      0.00
   -2   -3   21      0.33      0.00
   -2   -3   20     -0.46      0.00
   -2   -3   19     -0.16      0.00
   -2   -3   18     -0.04      0.00
   -2   -3   17     -1.12      0.00
   -2   -3   16     -0.73      0.00
   -2   -3   15     -0.87      0.00
   -2   -3   14     -0.55      0.00
   -2   -3   13      0.17      0.00
   -2   -3   12      0.89      0.00
   -2   -3   11      2.23      0.00
   -2   -3   10      2.40      0.00
   -2   -3    9      2.00      0.00
   -2   -3    8      1.70      0.00
   -2   -3    7     -0.21      0.00
   -2   -3    5     -5.00      0.00
   -2   -3    4     -5.70      0.00
   -2   -3    3     -6.14      0.00
   -2   -3    2     -4.85      0.00
   -2   -3    1      2.21      0.00
    2    3    0      6.97      0.00
    2    3    1     11.03      0.00
    2    3    2     11.44      0.00
    2    3    3      4.12      0.00
    2    3    4      0.94      0.00
    2    3    5     -2.51      0.00
    2    3    6     -5.59      0.00
    2    3    7     -5.51      0.00
    2    3    8     -5.10      0.00
    2    3    9     -2.27      0.00
    2    3   10     -0.55      0.00
    2    3   11      0.84      0.00
    2    3   13      1.96      0.00
    2    3   14      1.10      0.00
    2    3   15      0.66      0.00
    2    3   16      0.61      0.00
    2    3   17      0.23      0.00
    2    3   18      0.23      0.00
    2    3   19     -0.81      0.00
    2    3   20     -0.17      0.00
    2    3   21      0.03      0.00
    2    3   22     -0.02      0.00
    2    3   23      0.18      0.00
   -2   -4   20     -0.12      0.00
   -2   -4   19     -0.23      0.00
   -2   -4   18     -0.95      0.00
   -2   -4   17      0.11      0.00
   -2   -4   16      0.24      0.00
   -2   -4   15      1.01      0.00
   -2   -4   14      1.28      0.00
   -2   -4   13      1.28      0.00
   -2   -4   12      1.22      0.00
   -2   -4   11     -0.14      0.00
   -2   -4   10     -0.86      0.00
   -2   -4    9     -1.58      0.00
   -2   -4    8     -2.98      0.00
   -2   -4    7     -3.38      0.00
   -2   -4    6     -2.34      0.00
   -2   -4    5     -0.70      0.00
   -2   -4    3      4.77      0.00
   -2   -4    2      7.69      0.00
   -2   -4    1      6.99      0.00
    2    4    0      4.08      0.00
    2    4    1     -0.90      0.00
    2    4    2     -6.69      0.00
    2    4    3     -6.65      0.00
    2    4    4     -6.32      0.00
    2    4    5     -5.24      0.00
    2    4    6     -2.08      0.00
    2    4    7      0.34      0.00
    2    4    8      3.23      0.00
    2    4    9      3.44      0.00
    2    4   10      2.94      0.00
    2    4   11      2.26      0.00
    2    4   12      0.67      0.00
    2    4   13     -0.55      0.00
    2    4   14     -0.68      0.00
    2    4   15     -0.68      0.00
    2    4   16     -0.89      0.00
    2    4   17     -0.59      0.00
    2    4   18     -1.11      0.00
    2    4   19     -0.09      0.00
    2    4   20      0.20      0.00
    2    4   22     -0.22      0.00
    2    4   23     -0.76      0.00
   -2   -5   21      0.15      0.00
   -2   -5   20     -0.09      0.00
   -2   -5   19     -0.25      0.00
   -2   -5   18      1.07      0.00
   -2   -5   17      0.80      0.00
   -2   -5   16      1.10      0.00
   -2   -5   15      0.33      0.00
   -2   -5   14     -0.36      0.00
   -2   -5   13     -0.88      0.00
   -2   -5   12     -1.83      0.00
   -2   -5   11     -1.27      0.00
   -2   -5   10     -1.33      0.00
   -2   -5    9     -1.15      0.00
   -2   -5    8      0.18      0.00
   -2   -5    7      1.92      0.00
   -2   -5    6      3.00      0.00
   -2   -5    5      4.06      0.00
   -2   -5    4      3.69      0.00
   -2   -5    3      1.43      0.00
   -2   -5    2     -1.40      0.00
   -2   -5    1     -4.68      0.00
    2    5    0     -6.47      0.00
    2    5    1     -6.00      0.00
    2    5    2     -2.76      0.00
    2    5    3     -0.26      0.00
    2    5    4      1.70      0.00
    2    5    5      3.98      0.00
    2    5    6      4.71      0.00
    2    5    7      4.41      0.00
    2    5    8      1.93      0.00
    2    5    9      0.15      0.00
    2    5   10     -0.98      0.00
    2    5   11     -2.21      0.00
    2    5   12     -2.01      0.00
    2    5   13     -1.15      0.00
    2    5   14     -0.67      0.00
    2    5   15     -0.36      0.00
    2    5   16      0.18      0.00
    2    5   17     -0.14      0.00
    2    5   18      0.76      0.00
    2    5   19      0.71      0.00
    2    5   20     -0.16      0.00
    2    5   21      0.17      0.00
    2    5   22      0.08      0.00
    2    5   23      0.68      0.00
   -2   -6   21      0.22      0.00
   -2   -6   20      0.38      0.00
   -2   -6   19      1.19      0.00
   -2   -6   18      0.12      0.00
   -2   -6   17     -0.08      0.00
   -2   -6   16     -1.19      0.00
   -2   -6   15     -1.41      0.00
   -2   -6   14     -1.07      0.00
   -2   -6   13     -0.80      0.00
   -2   -6   12      0.56      0.00
   -2   -6   11      0.45      0.00
   -2   -6   10      1.15      0.00
   -2   -6    9      2.04      0.00
   -2   -6    8      2.26      0.00
   -2   -6    7      1.64      0.00
   -2   -6    6      0.59      0.00
   -2   -6    5     -1.58      0.00
   -2   -6    4     -3.83      0.00
   -2   -6    3     -3.71      0.00
   -2   -6    2     -3.75      0.00
    2    6    0      0.82      0.00
    2    6    1      2.70      0.00
    2    6    2      4.06      0.00
    2    6    3      3.94      0.00
    2    6    4      3.66      0.00
    2    6    5      2.14      0.00
    2    6    6     -0.29      0.00
    2    6    7     -2.53      0.00
    2    6    8     -2.87      0.00
    2    6    9     -2.58      0.00
    2    6   10     -2.09      0.00
    2    6   11     -0.47      0.00
    2    6   12      0.55      0.00
    2    6   13      0.90      0.00
    2    6   14      0.98      0.00
    2    6   15      0.90      0.00
    2    6   16      0.33      0.00
    2    6   17      0.81      0.00
    2    6   18      0.46      0.00
    2    6   19     -0.46      0.00
    2    6   20      0.26      0.00
    2    6   21      0.12      0.00
    2    6   22      0.14      0.00
   -2   -7   20      0.14      0.00
   -2   -7   19     -1.14      0.00
   -2   -7   18     -0.98      0.00
   -2   -7   17     -1.40      0.00
   -2   -7   16     -0.53      0.00
   -2   -7   15      0.60      0.00
   -2   -7   14      1.04      0.00
   -2   -7   13      1.73      0.00
   -2   -7   12      0.78      0.00
   -2   -7   11      1.08      0.00
   -2   -7   10      0.72      0.00
   -2   -7    9     -0.19      0.00
   -2   -7    8     -1.20      0.00
   -2   -7    7     -2.32      0.00
   -2   -7    6     -2.99      0.00
   -2   -7    5     -2.51      0.00
   -2   -7    4      0.09      0.00
   -2   -7    3      0.95      0.00
   -2   -7    2      2.57      0.00
   -2   -7    1      3.39      0.00
    2    7    0      2.78      0.00
    2    7    1      2.77      0.00
    2    7    2      0.82      0.00
    2    7    3     -0.64      0.00
    2    7    4     -2.35      0.00
    2    7    5     -3.83      0.00
    2    7    6     -3.30      0.00
    2    7    7     -1.77      0.00
    2    7    8     -0.51      0.00
    2    7    9      0.69      0.00
    2    7   10      1.92      0.00
    2    7   11      1.78      0.00
    2    7   12      1.32      0.00
    2    7   13      0.57      0.00
    2    7   14     -0.07      0.00
    2    7   15     -0.41      0.00
    2    7   16      0.02      0.00
    2    7   17     -0.23      0.00
    2    7   18     -0.92      0.00
    2    7   19     -0.01      0.00
    2    7   20     -0.38      0.00
    2    7   21     -0.50      0.00
    2    7   22     -0.13      0.00
   -2   -8   20     -0.94      0.00
   -2   -8   19     -0.05      0.00
   -2   -8   18      0.16      0.00
   -2   -8   17      1.30      0.00
   -2   -8   16      1.90      0.00
   -2   -8   15      1.23      0.00
   -2   -8   14      0.75      0.00
   -2   -8   13     -0.65      0.00
   -2   -8   12     -0.50      0.00
   -2   -8   11     -1.16      0.00
   -2   -8   10     -1.59      0.00
   -2   -8    9     -1.52      0.00
   -2   -8    8     -1.46      0.00
   -2   -8    7     -0.22      0.00
   -2   -8    6      1.24      0.00
   -2   -8    5      3.05      0.00
   -2   -8    4      2.29      0.00
   -2   -8    3      1.96      0.00
   -2   -8    2      1.18      0.00
   -2   -8    1     -0.24      0.00
    2    8    0     -0.66      0.00
    2    8    1     -2.81      0.00
    2    8    3     -3.09      0.00
    2    8    4     -2.11      0.00
    2    8    5      0.33      0.00
    2    8    6      1.56      0.00
    2    8    7      2.20      0.00
    2    8    8      2.50      0.00
    2    8    9      2.08      0.00
    2    8   10      0.73      0.00
    2    8   11     -0.18      0.00
    2    8   12     -1.11      0.00
    2    8   13     -1.13      0.00
    2    8   14     -0.56      0.00
    2    8   15     -0.12      0.00
    2    8   16     -0.21      0.00
    2    8   17     -0.78      0.00
    2    8   18      0.13      0.00
    2    8   19     -0.18      0.00
    2    8   20     -0.03      0.00
    2    8   21      0.66      0.00
   -2   -9   20      0.88      0.00
   -2   -9   19      0.78      0.00
   -2   -9   18      1.18      0.00
   -2   -9   17      0.64      0.00
   -2   -9   16     -0.86      0.00
   -2   -9   15     -1.37      0.00
   -2   -9   14     -2.00      0.00
   -2   -9   13     -1.15      0.00
   -2   -9   12     -1.02      0.00
   -2   -9   11     -0.43      0.00
   -2   -9   10      0.41      0.00
   -2   -9    9      0.80      0.00
   -2   -9    8      1.98      0.00
   -2   -9    7      2.03      0.00
   -2   -9    6      1.83      0.00
   -2   -9    5     -0.09      0.00
   -2   -9    4     -1.05      0.00
   -2   -9    3     -1.44      0.00
   -2   -9    2     -2.20      0.00
   -2   -9    1     -2.04      0.00
    2    9    0     -2.62      0.00
    2    9    1     -1.06      0.00
    2    9    2      0.59      0.00
    2    9    3      2.24      0.00
    2    9    4      3.36      0.00
    2    9    5      2.38      0.00
    2    9    6      1.84      0.00
    2    9    7      0.85      0.00
    2    9    8     -0.62      0.00
    2    9    9     -1.71      0.00
    2    9   10     -1.90      0.00
    2    9   11     -1.79      0.00
    2    9   12     -0.52      0.00
    2    9   13      0.40      0.00
    2    9   14      0.27      0.00
    2    9   15      0.11      0.00
    2    9   16     -0.47      0.00
    2    9   17      0.51      0.00
    2    9   18      0.42      0.00
    2    9   19      0.49      0.00
    2    9   20      0.84      0.00
    2    9   21     -0.27      0.00
   -2  -10   19     -0.20      0.00
   -2  -10   18     -0.95      0.00
   -2  -10   17     -1.86      0.00
   -2  -10   16     -1.22      0.00
   -2  -10   15     -0.66      0.00
   -2  -10   14      0.73      0.00
   -2  -10   13      1.16      0.00
   -2  -10   12      1.52      0.00
   -2  -10   11      1.72      0.00
   -2  -10   10      1.13      0.00
   -2  -10    9      1.15      0.00
   -2  -10    8      0.01      0.00
   -2  -10    7     -0.74      0.00
   -2  -10    6     -1.95      0.00
   -2  -10    5     -1.99      0.00
   -2  -10    4     -1.10      0.00
   -2  -10    3     -1.02      0.00
   -2  -10    2     -0.09      0.00
   -2  -10    1      0.65      0.00
    2   10    0      2.29      0.00
    2   10    1      2.98      0.00
    2   10    2      2.71      0.00
    2   10    3      1.23      0.00
    2   10    4     -0.77      0.00
    2   10    5     -1.05      0.00
    2   10    6     -2.06      0.00
    2   10    7     -2.60      0.00
    2   10    8     -1.94      0.00
    2   10    9     -0.91      0.00
    2   10   10      0.20      0.00
    2   10   11      1.58      0.00
    2   10   12      1.33      0.00
    2   10   13      0.32      0.00
    2   10   14      0.20      0.00
    2   10   15     -0.26      0.00
    2   10   16      0.88      0.00
    2   10   17      0.67      0.00
    2   10   18      0.14      0.00
    2   10   19      0.11      0.00
    2   10   20     -0.95      0.00
   -2  -11   19     -0.52      0.00
   -2  -11   18     -0.50      0.00
   -2  -11   17      0.77      0.00
   -2  -11   16      1.38      0.00
   -2  -11   15      2.01      0.00
   -2  -11   14      1.46      0.00
   -2  -11   13      0.65      0.00
   -2  -11   12      0.07      0.00
   -2  -11   11     -1.02      0.00
   -2  -11   10     -1.01      0.00
   -2  -11    9     -1.58      0.00
   -2  -11    8     -1.46      0.00
   -2  -11    7     -1.31      0.00
   -2  -11    6     -0.53      0.00
   -2  -11    5      0.84      0.00
   -2  -11    4      0.84      0.00
   -2  -11    3      1.57      0.00
   -2  -11    2      1.87      0.00
   -2  -11    1      1.72      0.00
    2   11    0      0.85      0.00
    2   11    1     -0.73      0.00
    2   11    2     -2.38      0.00
    2   11    3     -2.60      0.00
    2   11    4     -1.52      0.00
    2   11    5     -1.67      0.00
    2   11    6     -0.63      0.00
    2   11    8      1.71      0.00
    2   11    9      2.12      0.00
    2   11   10      1.87      0.00
    2   11   11      0.15      0.00
    2   11   12     -0.72      0.00
    2   11   13     -0.24      0.00
    2   11   14     -0.40      0.00
    2   11   15      0.74      0.00
    2   11   16      0.03      0.00
    2   11   17     -0.89      0.00
    2   11   18     -0.55      0.00
    2   11   19     -0.97      0.00
   -2  -12   18      1.03      0.00
   -2  -12   17      0.81      0.00
   -2  -12   16      0.34      0.00
   -2  -12   15     -0.84      0.00
   -2  -12   14     -1.64      0.00
   -2  -12   13     -1.52      0.00
   -2  -12   12     -1.79      0.00
   -2  -12   11     -0.70      0.00
   -2  -12   10     -0.40      0.00
   -2  -12    9      0.07      0.00
   -2  -12    8      0.68      0.00
   -2  -12    7      1.05      0.00
   -2  -12    6      1.75      0.00
   -2  -12    5      0.96      0.00
   -2  -12    4      0.85      0.00
   -2  -12    3      0.26      0.00
   -2  -12    2     -0.77      0.00
   -2  -12    1     -1.34      0.00
    2   12    0     -2.21      0.00
    2   12    1     -2.08      0.00
    2   12    2     -0.49      0.00
    2   12    3      0.67      0.00
    2   12    4      0.63      0.00
    2   12    5      1.83      0.00
    2   12    6      2.32      0.00
    2   12    7      1.39      0.00
    2   12    8      0.59      0.00
    2   12    9     -0.69      0.00
    2   12   10     -1.92      0.00
    2   12   11     -1.20      0.00
    2   12   12     -0.15      0.00
    2   12   13     -0.22      0.00
    2   12   14      0.59      0.00
    2   12   15     -0.57      0.00
    2   12   16     -1.10      0.00
    2   12   17      0.00      0.00
    2   12   18     -0.09      0.00
    2   12   19      0.75      0.00
   -2  -13   17     -0.82      0.00
   -2  -13   16     -1.29      0.00
   -2  -13   15     -0.93      0.00
   -2  -13   14      0.09      0.00
   -2  -13   13      0.24      0.00
   -2  -13   12      1.49      0.00
   -2  -13   11      1.22      0.00
   -2  -13   10      0.96      0.00
   -2  -13    9      1.25      0.00
   -2  -13    8      0.60      0.00
   -2  -13    7      0.66      0.00
   -2  -13    6     -0.45      0.00
   -2  -13    5     -0.78      0.00
   -2  -13    4     -1.02      0.00
   -2  -13    3     -1.31      0.00
   -2  -13    2     -0.79      0.00
   -2  -13    1     -0.88      0.00
    2   13    0      0.25      0.00
    2   13    1      1.60      0.00
    2   13    2      1.56      0.00
    2   13    3      1.19      0.00
    2   13    4      1.47      0.00
    2   13    5      0.55      0.00
    2   13    6     -1.01      0.00
    2   13    7     -1.45      0.00
    2   13    8     -1.79      0.00
    2   13    9     -1.23      0.00
    2   13   10      0.48      0.00
    2   13   11      0.85      0.00
    2   13   12      0.36      0.00
    2   13   13      0.61      0.00
    2   13   14     -0.60      0.00
    2   13   15     -0.34      0.00
    2   13   16      0.93      0.00
    2   13   17      0.41      0.00
    2   13   18      0.67      0.00
   -2  -14   17     -0.05      0.00
   -2  -14   16      0.67      0.00
   -2  -14   15      1.17      0.00
   -2  -14   14      0.67      0.00
   -2  -14   13      1.17      0.00
   -2  -14   12     -0.01      0.00
   -2  -14   11     -0.41      0.00
   -2  -14   10     -0.04      0.00
   -2  -14    9     -1.07      0.00
   -2  -14    8     -0.55      0.00
   -2  -14    7     -1.14      0.00
   -2  -14    6     -0.94      0.00
   -2  -14    5     -0.22      0.00
   -2  -14    4     -0.07      0.00
   -2  -14    3      0.43      0.00
   -2  -14    2      0.20      0.00
   -2  -14    1      1.21      0.00
    2   14    0      1.43      0.00
    2   14    1      0.65      0.00
    2   14    2      0.22      0.00
    2   14    3     -0.33      0.00
    2   14    4     -1.30      0.00
    2   14    5     -1.91      0.00
    2   14    6     -1.09      0.00
    2   14    7     -0.31      0.00
    2   14    8      0.76      0.00
    2   14    9      1.52      0.00
    2   14   10      0.53      0.00
    2   14   11     -0.07      0.00
    2   14   12     -0.01      0.00
    2   14   13     -0.75      0.00
    2   14   14      0.10      0.00
    2   14   15      0.80      0.00
    2   14   16     -0.14      0.00
    2   14   17     -0.04      0.00
   -2  -15   15     -0.55      0.00
   -2  -15   14     -0.14      0.00
   -2  -15   13     -1.13      0.00
   -2  -15   12     -0.69      0.00
   -2  -15   11     -0.08      0.00
   -2  -15   10     -1.00      0.00
   -2  -15    9      0.30      0.00
   -2  -15    8     -0.15      0.00
   -2  -15    7      0.20      0.00
   -2  -15    6      0.98      0.00
   -2  -15    5      0.32      0.00
   -2  -15    4      0.27      0.00
   -2  -15    3      0.06      0.00
   -2  -15    2      0.87      0.00
   -2  -15    1      0.37      0.00
    2   15    0     -0.37      0.00
    2   15    1     -0.78      0.00
    2   15    2     -1.46      0.00
    2   15    3     -1.25      0.00
    2   15    4     -0.82      0.00
    2   15    5      0.53      0.00
    2   15    6      1.15      0.00
    2   15    7      1.17      0.00
    2   15    8      0.67      0.00
    2   15    9     -0.57      0.00
    2   15   10     -0.44      0.00
    2   15   11     -0.23      0.00
    2   15   12     -0.41      0.00
    2   15   13      0.44      0.00
    2   15   14      0.41      0.00
    2   15   15     -0.38      0.00
    2   15   16     -0.10      0.00
   -2  -16   14     -0.31      0.00
   -2  -16   13      0.45      0.00
   -2  -16   12      0.54      0.00
   -2  -16   11     -0.31      0.00
   -2  -16   10      1.14      0.00
   -2  -16    9      0.07      0.00
   -2  -16    8      0.24      0.00
   -2  -16    7      0.61      0.00
   -2  -16    6     -0.66      0.00
   -2  -16    5     -0.20      0.00
   -2  -16    4      0.14      0.00
   -2  -16    3      0.66      0.00
   -2  -16    2     -0.21      0.00
   -2  -16    1     -0.70      0.00
    2   16    0     -0.98      0.00
    2   16    1     -0.96      0.00
    2   16    2      0.40      0.00
    2   16    3      0.69      0.00
    2   16    4      1.54      0.00
    2   16    5      1.25      0.00
    2   16    6      0.25      0.00
    2   16    7     -0.28      0.00
    2   16    8     -0.75      0.00
    2   16    9     -0.05      0.00
    2   16   10      0.02      0.00
    2   16   11      0.04      0.00
    2   16   12      0.49      0.00
    2   16   13      0.09      0.00
    2   16   14     -0.24      0.00
   -2  -17   13     -0.10      0.00
   -2  -17   12     -0.48      0.00
   -2  -17   11      0.76      0.00
   -2  -17   10     -0.73      0.00
   -2  -17    9     -0.19      0.00
   -2  -17    8      0.08      0.00
   -2  -17    7     -0.85      0.00
   -2  -17    6      0.50      0.00
   -2  -17    5      0.60      0.00
   -2  -17    4      0.31      0.00
   -2  -17    3     -0.68      0.00
   -2  -17    2     -0.78      0.00
   -2  -17    1     -0.60      0.00
    2   17    0      0.22      0.00
    2   17    1      1.49      0.00
    2   17    2      0.66      0.00
    2   17    3      0.92      0.00
    2   17    4     -0.01      0.00
    2   17    5     -1.05      0.00
    2   17    6     -0.70      0.00
    2   17    7     -0.64      0.00
    2   17    8      0.01      0.00
    2   17    9     -0.13      0.00
    2   17   10      0.03      0.00
    2   17   11      0.16      0.00
    2   17   12     -0.19      0.00
    2   17   13     -0.21      0.00
   -2  -18   11     -0.78      0.00
   -2  -18   10      0.26      0.00
   -2  -18    9      0.30      0.00
   -2  -18    8     -0.28      0.00
   -2  -18    7      0.98      0.00
   -2  -18    6      0.02      0.00
   -2  -18    5     -0.61      0.00
   -2  -18    4     -0.95      0.00
   -2  -18    3     -0.43      0.00
   -2  -18    2      0.21      0.00
   -2  -18    1      1.03      0.00
    2   18    0      1.13      0.00
    2   18    1     -0.45      0.00
    2   18    2     -0.02      0.00
    2   18    3     -0.96      0.00
    2   18    4     -1.27      0.00
    2   18    5     -0.14      0.00
    2   18    6     -0.19      0.00
    2   18    7      0.30      0.00
    2   18    8      0.19      0.00
    2   18    9      0.34      0.00
    2   18   10      0.19      0.00
    2   18   11     -0.07      0.00
   -2  -19    9     -0.22      0.00
   -2  -19    8      0.47      0.00
   -2  -19    7     -0.82      0.00
   -2  -19    6     -0.60      0.00
   -2  -19    5     -0.11      0.00
   -2  -19    4      0.51      0.00
   -2  -19    3      0.90      0.00
   -2  -19    2      0.86      0.00
   -2  -19    1      0.00      0.00
    2   19    0     -1.09      0.00
    2   19    1     -0.07      0.00
    2   19    2     -0.84      0.00
    2   19    3     -0.36      0.00
    2   19    4      0.81      0.00
    2   19    5      0.27      0.00
    2   19    6      0.72      0.00
    2   19    7      0.45      0.00
    2   19    8      0.27      0.00
    2   19    9     -0.07      0.00
   -2  -20    5      0.51      0.00
   -2  -20    4      0.33      0.00
   -2  -20    3     -0.24      0.00
   -2  -20    2     -0.87      0.00
   -2  -20    1     -0.77      0.00
    2   20    0      0.34      0.00
    2   20    1     -0.41      0.00
    2   20    2      0.45      0.00
    2   20    3      0.96      0.00
    2   20    4      0.02      0.00
    2   20    5      0.47      0.00
    2   20    6     -0.14      0.00
   -2  -21    2      0.24      0.00
   -2  -21    1      0.64      0.00
    2   21    0     -0.14      0.00
    2   21    1      0.66      0.00
    3  -22    2      0.26      0.00
    3  -22    3      0.45      0.00
    3  -22    4      0.48      0.00
    3  -22    5      0.78      0.00
   -3   21    3      0.47      0.00
   -3   21    2      0.66      0.00
   -3   21    1     -0.21      0.00
   -3   21    0     -0.10      0.00
    3  -21    1      0.86      0.00
    3  -21    3      0.10      0.00
    3  -21    4     -0.07      0.00
    3  -21    5     -0.63      0.00
    3  -21    6     -0.59      0.00
   -3   20    6      0.40      0.00
   -3   20    5      0.04      0.00
   -3   20    3     -0.08      0.00
   -3   20    2     -0.84      0.00
   -3   20    1     -0.08      0.00
   -3   20    0      0.28      0.00
    3  -20    1     -0.87      0.00
    3  -20    2     -0.82      0.00
    3  -20    3     -0.77      0.00
    3  -20    4     -0.77      0.00
    3  -20    5     -0.09      0.00
    3  -20    6      0.17      0.00
    3  -20    7      0.02      0.00
    3  -20    8     -0.04      0.00
    3  -20    9      0.23      0.00
   -3   19    8      0.17      0.00
   -3   19    7      0.44      0.00
   -3   19    6     -0.15      0.00
   -3   19    5     -0.02      0.00
   -3   19    4      0.17      0.00
   -3   19    3     -0.35      0.00
   -3   19    2      0.57      0.00
   -3   19    1      0.14      0.00
   -3   19    0     -0.81      0.00
    3  -19    1      0.14      0.00
    3  -19    2      0.42      0.00
    3  -19    3      0.69      0.00
    3  -19    4      1.18      0.00
    3  -19    5      0.78      0.00
    3  -19    6      0.36      0.00
    3  -19    7      0.44      0.00
    3  -19    8      0.58      0.00
    3  -19    9      0.61      0.00
    3  -19   10      0.53      0.00
    3  -19   11     -0.19      0.00
   -3   18    9      0.67      0.00
   -3   18    8      0.67      0.00
   -3   18    7      0.05      0.00
   -3   18    6      0.41      0.00
   -3   18    5      0.35      0.00
   -3   18    4     -0.31      0.00
   -3   18    3      0.37      0.00
   -3   18    2     -0.47      0.00
   -3   18    1     -0.58      0.00
   -3   18    0      0.79      0.00
    3  -18    1      0.55      0.00
    3  -18    2      0.49      0.00
    3  -18    3      0.36      0.00
    3  -18    4     -0.43      0.00
    3  -18    5     -0.59      0.00
    3  -18    6     -0.31      0.00
    3  -18    7     -0.34      0.00
    3  -18    8     -0.44      0.00
    3  -18    9     -0.68      0.00
    3  -18   10     -1.21      0.00
    3  -18   11     -0.87      0.00
    3  -18   12     -0.70      0.00
    3  -18   14      0.59      0.00
    3  -18   15      0.55      0.00
   -3   17   12      0.60      0.00
   -3   17   11      0.65      0.00
   -3   17   10      0.26      0.00
   -3   17    9      0.02      0.00
   -3   17    8     -0.64      0.00
   -3   17    7     -0.27      0.00
   -3   17    6     -0.70      0.00
   -3   17    5     -1.17      0.00
   -3   17    4     -0.27      0.00
   -3   17    3     -0.75      0.00
   -3   17    2      0.01      0.00
   -3   17    1      0.99      0.00
   -3   17    0      0.05      0.00
    3  -17    1     -0.11      0.00
    3  -17    2     -0.40      0.00
    3  -17    3     -0.89      0.00
    3  -17    4     -0.55      0.00
    3  -17    5     -0.23      0.00
    3  -17    6     -0.28      0.00
    3  -17    7     -0.23      0.00
    3  -17    8     -0.30      0.00
    3  -17    9     -0.26      0.00
    3  -17   10      0.45      0.00
    3  -17   11      0.46      0.00
    3  -17   12      0.94      0.00
    3  -17   13      1.29      0.00
    3  -17   15      0.71      0.00
    3  -17   16     -0.22      0.00
   -3   16   13      0.53      0.00
   -3   16   12     -0.01      0.00
   -3   16   11     -0.58      0.00
   -3   16   10     -0.69      0.00
   -3   16    9     -1.05      0.00
   -3   16    8     -0.40      0.00
   -3   16    7     -0.65      0.00
   -3   16    6     -0.29      0.00
   -3   16    5      0.98      0.00
   -3   16    4      0.63      0.00
   -3   16    3      1.29      0.00
   -3   16    2      1.13      0.00
   -3   16    1     -0.22      0.00
   -3   16    0     -0.23      0.00
    3  -16    1     -0.50      0.00
    3  -16    2     -0.57      0.00
    3  -16    3     -0.01      0.00
    3  -16    4      0.25      0.00
    3  -16    5      0.32      0.00
    3  -16    6      0.41      0.00
    3  -16    7      0.39      0.00
    3  -16    8      0.59      0.00
    3  -16    9      0.89      0.00
    3  -16   10      0.51      0.00
    3  -16   11      0.84      0.00
    3  -16   12      0.46      0.00
    3  -16   13     -0.47      0.00
    3  -16   14     -0.28      0.00
    3  -16   15     -1.26      0.00
    3  -16   17      0.07      0.00
    3  -16   18     -0.11      0.00
   -3   15   14     -0.01      0.00
   -3   15   13     -0.77      0.00
   -3   15   12     -0.88      0.00
   -3   15   11     -0.48      0.00
   -3   15   10     -0.36      0.00
   -3   15    9      0.57      0.00
   -3   15    8      0.50      0.00
   -3   15    7      1.17      0.00
   -3   15    6      1.70      0.00
   -3   15    5      0.55      0.00
   -3   15    4      0.42      0.00
   -3   15    3     -0.58      0.00
   -3   15    2     -1.43      0.00
   -3   15    1     -0.92      0.00
   -3   15    0     -0.82      0.00
    3  -15    1     -0.26      0.00
    3  -15    2      0.44      0.00
    3  -15    3      0.72      0.00
    3  -15    4      0.70      0.00
    3  -15    5      0.43      0.00
    3  -15    6      0.28      0.00
    3  -15    7      0.33      0.00
    3  -15    8      0.07      0.00
    3  -15    9     -0.26      0.00
    3  -15   10     -0.08      0.00
    3  -15   11     -0.87      0.00
    3  -15   12     -1.23      0.00
    3  -15   13     -0.71      0.00
    3  -15   15     -0.01      0.00
    3  -15   17      0.23      0.00
    3  -15   18      0.58      0.00
    3  -15   19      0.18      0.00
   -3   14   15     -0.46      0.00
   -3   14   14     -0.89      0.00
   -3   14   13     -0.28      0.00
   -3   14   12      0.43      0.00
   -3   14   11      0.62      0.00
   -3   14   10      1.25      0.00
   -3   14    9      0.74      0.00
   -3   14    8      0.83      0.00
   -3   14    7      0.14      0.00
   -3   14    6     -1.32      0.00
   -3   14    5     -1.26      0.00
   -3   14    4     -1.65      0.00
   -3   14    3     -1.13      0.00
   -3   14    2     -0.07      0.00
   -3   14    1      0.42      0.00
   -3   14    0      1.17      0.00
    3  -14    1      1.34      0.00
    3  -14    2      1.01      0.00
    3  -14    3      0.27      0.00
    3  -14    4     -0.42      0.00
    3  -14    5     -0.43      0.00
    3  -14    6     -0.47      0.00
    3  -14    7     -0.86      0.00
    3  -14    8     -0.74      0.00
    3  -14    9     -0.64      0.00
    3  -14   10     -1.16      0.00
    3  -14   11     -0.47      0.00
    3  -14   12      0.14      0.00
    3  -14   13      0.08      0.00
    3  -14   14      1.38      0.00
    3  -14   15      1.22      0.00
    3  -14   16      0.03      0.00
    3  -14   17      0.30      0.00
    3  -14   18     -0.23      0.00
    3  -14   19     -0.45      0.00
    3  -14   20     -0.03      0.00
   -3   13   15     -0.15      0.00
   -3   13   14      0.76      0.00
   -3   13   13      1.15      0.00
   -3   13   12      0.79      0.00
   -3   13   11      0.68      0.00
   -3   13   10     -0.31      0.00
   -3   13    9     -0.59      0.00
   -3   13    8     -1.39      0.00
   -3   13    7     -1.73      0.00
   -3   13    6     -0.59      0.00
   -3   13    5     -0.08      0.00
   -3   13    4      1.00      0.00
   -3   13    3      1.54      0.00
   -3   13    2      1.52      0.00
   -3   13    1      1.37      0.00
   -3   13    0      0.42      0.00
    3  -13    1     -0.53      0.00
    3  -13    2     -1.40      0.00
    3  -13    3     -1.41      0.00
    3  -13    4     -0.72      0.00
    3  -13    5     -0.61      0.00
    3  -13    6     -0.66      0.00
    3  -13    7      0.05      0.00
    3  -13    8      0.17      0.00
    3  -13    9      0.30      0.00
    3  -13   10      1.35      0.00
    3  -13   11      1.15      0.00
    3  -13   12      0.98      0.00
    3  -13   13      1.43      0.00
    3  -13   14      0.17      0.00
    3  -13   15     -0.68      0.00
    3  -13   16     -0.18      0.00
    3  -13   17     -0.50      0.00
    3  -13   18     -0.30      0.00
    3  -13   19      0.30      0.00
    3  -13   20      0.06      0.00
   -3   12   17      0.29      0.00
   -3   12   16      0.43      0.00
   -3   12   15      0.94      0.00
   -3   12   14      0.58      0.00
   -3   12   13     -0.37      0.00
   -3   12   12     -0.73      0.00
   -3   12   11     -1.35      0.00
   -3   12   10     -1.11      0.00
   -3   12    9     -0.97      0.00
   -3   12    8     -0.06      0.00
   -3   12    7      1.24      0.00
   -3   12    6      1.38      0.00
   -3   12    5      1.62      0.00
   -3   12    4      0.95      0.00
   -3   12    3      0.19      0.00
   -3   12    2     -0.66      0.00
   -3   12    1     -1.69      0.00
   -3   12    0     -1.93      0.00
    3  -12    1     -1.60      0.00
    3  -12    2     -0.36      0.00
    3  -12    3      0.55      0.00
    3  -12    4      0.51      0.00
    3  -12    5      0.70      0.00
    3  -12    6      1.43      0.00
    3  -12    7      1.16      0.00
    3  -12    8      1.14      0.00
    3  -12    9      1.23      0.00
    3  -12   10     -0.12      0.00
    3  -12   11     -0.25      0.00
    3  -12   12     -0.39      0.00
    3  -12   13     -1.48      0.00
    3  -12   14     -1.15      0.00
    3  -12   15     -0.43      0.00
    3  -12   16     -0.44      0.00
    3  -12   17     -0.02      0.00
    3  -12   18      0.34      0.00
    3  -12   19     -0.17      0.00
    3  -12   21     -0.13      0.00
   -3   11   17      0.19      0.00
   -3   11   16      0.12      0.00
   -3   11   15     -0.56      0.00
   -3   11   14     -1.32      0.00
   -3   11   13     -0.98      0.00
   -3   11   12     -0.62      0.00
   -3   11   11      0.17      0.00
   -3   11   10      0.79      0.00
   -3   11    9      1.53      0.00
   -3   11    8      1.60      0.00
   -3   11    7      0.74      0.00
   -3   11    6      0.11      0.00
   -3   11    5     -0.98      0.00
   -3   11    4     -1.52      0.00
   -3   11    3     -1.82      0.00
   -3   11    2     -1.64      0.00
   -3   11    1     -0.62      0.00
   -3   11    0      0.70      0.00
    3  -11    1      1.90      0.00
    3  -11    2      1.75      0.00
    3  -11    3      1.21      0.00
    3  -11    4      1.12      0.00
    3  -11    5      1.08      0.00
    3  -11    6      0.02      0.00
    3  -11    7     -0.65      0.00
    3  -11    8     -1.19      0.00
    3  -11    9     -2.11      0.00
    3  -11   10     -1.12      0.00
    3  -11   11     -0.94      0.00
    3  -11   12     -1.01      0.00
    3  -11   13      0.09      0.00
    3  -11   14      0.38      0.00
    3  -11   15      0.45      0.00
    3  -11   16      0.58      0.00
    3  -11   17      0.42      0.00
    3  -11   18     -0.16      0.00
    3  -11   19     -0.03      0.00
    3  -11   20      0.10      0.00
   -3   10   18     -0.36      0.00
   -3   10   17     -0.41      0.00
   -3   10   16     -0.64      0.00
   -3   10   15     -0.66      0.00
   -3   10   14      0.41      0.00
   -3   10   13      1.00      0.00
   -3   10   12      1.22      0.00
   -3   10   11      1.26      0.00
   -3   10   10      0.83      0.00
   -3   10    9     -0.13      0.00
   -3   10    8     -1.05      0.00
   -3   10    7     -1.45      0.00
   -3   10    6     -1.76      0.00
   -3   10    5     -1.29      0.00
   -3   10    4     -0.47      0.00
   -3   10    3      0.65      0.00
   -3   10    2      1.82      0.00
   -3   10    1      2.62      0.00
   -3   10    0      2.23      0.00
    3  -10    1      0.69      0.00
    3  -10    2     -0.09      0.00
    3  -10    3     -0.73      0.00
    3  -10    4     -1.34      0.00
    3  -10    5     -2.26      0.00
    3  -10    6     -2.35      0.00
    3  -10    7     -1.57      0.00
    3  -10    8     -0.79      0.00
    3  -10    9      0.92      0.00
    3  -10   10      0.92      0.00
    3  -10   11      0.92      0.00
    3  -10   12      1.41      0.00
    3  -10   13      0.81      0.00
    3  -10   14      0.75      0.00
    3  -10   15      0.35      0.00
    3  -10   16     -0.06      0.00
    3  -10   17     -0.31      0.00
    3  -10   18     -0.01      0.00
   -3    9   18      0.00      0.00
   -3    9   17      0.16      0.00
   -3    9   16      0.35      0.00
   -3    9   15      1.17      0.00
   -3    9   14      0.93      0.00
   -3    9   13      0.16      0.00
   -3    9   12     -0.22      0.00
   -3    9   11     -1.03      0.00
   -3    9   10     -1.53      0.00
   -3    9    9     -1.35      0.00
   -3    9    8     -0.94      0.00
   -3    9    7     -0.26      0.00
   -3    9    6      0.85      0.00
   -3    9    5      1.92      0.00
   -3    9    4      2.40      0.00
   -3    9    3      2.23      0.00
   -3    9    2      1.48      0.00
   -3    9    1     -0.58      0.00
   -3    9    0     -2.33      0.00
    3   -9    1     -2.43      0.00
    3   -9    2     -2.73      0.00
    3   -9    3     -2.20      0.00
    3   -9    4     -1.39      0.00
    3   -9    5      0.02      0.00
    3   -9    6      2.07      0.00
    3   -9    7      2.58      0.00
    3   -9    8      2.67      0.00
    3   -9    9      1.40      0.00
    3   -9   10      0.56      0.00
    3   -9   11      0.29      0.00
    3   -9   12     -0.45      0.00
    3   -9   13     -0.34      0.00
    3   -9   14     -0.81      0.00
    3   -9   15     -0.79      0.00
    3   -9   16     -0.44      0.00
    3   -9   17     -0.05      0.00
    3   -9   18      0.25      0.00
    3   -9   19     -0.10      0.00
    3   -9   20     -0.17      0.00
    3   -9   21     -0.50      0.00
    3   -9   22     -0.24      0.00
   -3    8   19      0.24      0.00
   -3    8   18      0.17      0.00
   -3    8   17      0.06      0.00
   -3    8   16      0.31      0.00
   -3    8   15     -0.45      0.00
   -3    8   14     -1.17      0.00
   -3    8   13     -0.87      0.00
   -3    8   12     -1.06      0.00
   -3    8   11     -0.45      0.00
   -3    8   10      0.42      0.00
   -3    8    9      0.87      0.00
   -3    8    8      1.60      0.00
   -3    8    7      2.08      0.00
   -3    8    6      1.98      0.00
   -3    8    5      0.75      0.00
   -3    8    4     -0.70      0.00
   -3    8    3     -2.07      0.00
   -3    8    2     -3.84      0.00
   -3    8    1     -3.61      0.00
   -3    8    0     -1.82      0.00
    3   -8    1     -0.61      0.00
    3   -8    2      1.62      0.00
    3   -8    3      3.05      0.00
    3   -8    4      3.72      0.00
    3   -8    5      3.98      0.00
    3   -8    6      1.57      0.00
    3   -8    7     -0.30      0.00
    3   -8    8     -1.58      0.00
    3   -8    9     -2.12      0.00
    3   -8   10     -1.56      0.00
    3   -8   11     -1.40      0.00
    3   -8   12     -0.84      0.00
    3   -8   13     -0.78      0.00
    3   -8   14     -0.17      0.00
    3   -8   15      0.39      0.00
    3   -8   16      0.47      0.00
    3   -8   17      0.48      0.00
    3   -8   18     -0.16      0.00
    3   -8   19     -0.29      0.00
    3   -8   20     -0.15      0.00
    3   -8   21      0.18      0.00
    3   -8   22      0.14      0.00
   -3    7   19     -0.32      0.00
   -3    7   18     -0.36      0.00
   -3    7   17     -0.14      0.00
   -3    7   16     -0.57      0.00
   -3    7   15     -0.57      0.00
   -3    7   14      0.34      0.00
   -3    7   13      0.36      0.00
   -3    7   12      1.10      0.00
   -3    7   11      1.34      0.00
   -3    7   10      0.99      0.00
   -3    7    9      1.08      0.00
   -3    7    8      0.34      0.00
   -3    7    7     -0.84      0.00
   -3    7    6     -2.57      0.00
   -3    7    5     -3.18      0.00
   -3    7    4     -3.04      0.00
   -3    7    3     -2.52      0.00
   -3    7    2      0.25      0.00
   -3    7    1      2.95      0.00
   -3    7    0      4.10      0.00
    3   -7    1      4.98      0.00
    3   -7    2      3.61      0.00
    3   -7    3      1.26      0.00
    3   -7    4     -0.92      0.00
    3   -7    5     -4.16      0.00
    3   -7    6     -4.25      0.00
    3   -7    7     -2.89      0.00
    3   -7    8     -1.93      0.00
    3   -7    9     -0.01      0.00
    3   -7   10      0.50      0.00
    3   -7   11      0.83      0.00
    3   -7   12      1.12      0.00
    3   -7   13      1.26      0.00
    3   -7   14      1.14      0.00
    3   -7   15      0.56      0.00
    3   -7   16      0.16      0.00
    3   -7   17     -0.53      0.00
    3   -7   18     -0.37      0.00
    3   -7   19      0.18      0.00
    3   -7   20      0.23      0.00
    3   -7   21      0.03      0.00
    3   -7   22      0.17      0.00
   -3    6   20      0.07      0.00
   -3    6   19      0.28      0.00
   -3    6   18      0.47      0.00
   -3    6   17      0.26      0.00
   -3    6   16      0.38      0.00
   -3    6   15      0.97      0.00
   -3    6   14      0.51      0.00
   -3    6   13      0.71      0.00
   -3    6   12      0.11      0.00
   -3    6   11     -0.56      0.00
   -3    6   10     -0.65      0.00
   -3    6    9     -1.72      0.00
   -3    6    8     -2.33      0.00
   -3    6    7     -2.50      0.00
   -3    6    6     -0.94      0.00
   -3    6    5      0.84      0.00
   -3    6    4      2.49      0.00
   -3    6    3      4.95      0.00
   -3    6    2      5.30      0.00
   -3    6    1      3.54      0.00
   -3    6    0      0.89      0.00
    3   -6    1     -2.67      0.00
    3   -6    2     -5.12      0.00
    3   -6    3     -5.49      0.00
    3   -6    4     -4.92      0.00
    3   -6    5     -1.25      0.00
    3   -6    6      1.70      0.00
    3   -6    7      2.26      0.00
    3   -6    8      3.44      0.00
    3   -6    9      2.38      0.00
    3   -6   10      1.58      0.00
    3   -6   11      1.35      0.00
    3   -6   12      0.20      0.00
    3   -6   13     -0.32      0.00
    3   -6   14     -0.88      0.00
    3   -6   15     -1.03      0.00
    3   -6   16     -1.00      0.00
    3   -6   17     -0.28      0.00
    3   -6   18      0.47      0.00
    3   -6   19      0.11      0.00
    3   -6   20      0.00      0.00
    3   -6   21      0.26      0.00
    3   -6   22     -0.08      0.00
    3   -6   23     -0.22      0.00
    3   -6   24     -0.11      0.00
   -3    5   20      0.48      0.00
   -3    5   19      0.30      0.00
   -3    5   18      0.02      0.00
   -3    5   17     -0.09      0.00
   -3    5   16      0.08      0.00
   -3    5   15     -0.46      0.00
   -3    5   14     -0.39      0.00
   -3    5   13     -1.01      0.00
   -3    5   12     -1.08      0.00
   -3    5   11     -0.76      0.00
   -3    5   10     -1.22      0.00
   -3    5    9     -0.38      0.00
   -3    5    8      0.88      0.00
   -3    5    7      2.99      0.00
   -3    5    6      3.81      0.00
   -3    5    5      3.68      0.00
   -3    5    4      3.18      0.00
   -3    5    3      0.33      0.00
   -3    5    2     -3.28      0.00
   -3    5    1     -6.12      0.00
   -3    5    0     -6.66      0.00
    3   -5    1     -5.04      0.00
    3   -5    2     -1.50      0.00
    3   -5    3      2.09      0.00
    3   -5    5      5.41      0.00
    3   -5    6      3.08      0.00
    3   -5    7      2.16      0.00
    3   -5    8     -0.38      0.00
    3   -5    9     -1.39      0.00
    3   -5   10     -1.43      0.00
    3   -5   11     -2.62      0.00
    3   -5   12     -1.72      0.00
    3   -5   13     -1.26      0.00
    3   -5   14     -0.70      0.00
    3   -5   15      0.11      0.00
    3   -5   16      0.76      0.00
    3   -5   17      1.05      0.00
    3   -5   18      0.12      0.00
    3   -5   19      0.08      0.00
    3   -5   20      0.16      0.00
    3   -5   21     -0.41      0.00
    3   -5   22     -0.21      0.00
    3   -5   23      0.02      0.00
   -3    4   20     -0.40      0.00
   -3    4   19     -0.54      0.00
   -3    4   18     -0.60      0.00
   -3    4   17     -0.35      0.00
   -3    4   16     -0.48      0.00
   -3    4   15     -0.34      0.00
   -3    4   14     -0.55      0.00
   -3    4   13      0.03      0.00
   -3    4   12      0.46      0.00
   -3    4   11      0.47      0.00
   -3    4   10      1.80      0.00
   -3    4    9      2.43      0.00
   -3    4    8      2.71      0.00
   -3    4    7      1.07      0.00
   -3    4    6     -1.01      0.00
   -3    4    5     -2.89      0.00
   -3    4    4     -5.42      0.00
   -3    4    3     -6.60      0.00
   -3    4    2     -5.33      0.00
   -3    4    1     -0.94      0.00
   -3    4    0      2.72      0.00
    3   -4    1      6.09      0.00
    3   -4    2      7.24      0.00
    3   -4    3      5.19      0.00
    3   -4    4      2.03      0.00
    3   -4    5     -1.74      0.00
    3   -4    6     -2.73      0.00
    3   -4    7     -3.95      0.00
    3   -4    8     -3.20      0.00
    3   -4    9     -1.83      0.00
    3   -4   10     -1.69      0.00
    3   -4   11      0.85      0.00
    3   -4   12      1.23      0.00
    3   -4   13      1.32      0.00
    3   -4   14      1.73      0.00
    3   -4   15      1.21      0.00
    3   -4   16      0.72      0.00
    3   -4   17     -0.52      0.00
    3   -4   18     -0.31      0.00
    3   -4   19     -0.23      0.00
    3   -4   20     -0.55      0.00
    3   -4   21      0.07      0.00
    3   -4   22      0.21      0.00
    3   -4   23      0.10      0.00
    3   -4   24      0.13      0.00
   -3    3   20     -0.41      0.00
   -3    3   19     -0.25      0.00
   -3    3   18      0.18      0.00
   -3    3   17      0.30      0.00
   -3    3   16      0.24      0.00
   -3    3   15      0.30      0.00
   -3    3   14      0.95      0.00
   -3    3   13      0.87      0.00
   -3    3   12      0.78      0.00
   -3    3   11      1.34      0.00
   -3    3   10      0.37      0.00
   -3    3    9     -0.87      0.00
   -3    3    8     -3.05      0.00
   -3    3    7     -4.10      0.00
   -3    3    6     -3.85      0.00
   -3    3    5     -3.17      0.00
   -3    3    4     -0.76      0.00
   -3    3    3      3.27      0.00
   -3    3    2      7.62      0.00
   -3    3    1      7.39      0.00
   -3    3    0      6.52      0.00
    3   -3    1      3.14      0.00
    3   -3    2     -2.31      0.00
    3   -3    3     -4.40      0.00
    3   -3    4     -6.16      0.00
    3   -3    5     -4.55      0.00
    3   -3    6     -2.61      0.00
    3   -3    7     -0.35      0.00
    3   -3    8      1.70      0.00
    3   -3    9      2.03      0.00
    3   -3   10      3.68      0.00
    3   -3   11      1.96      0.00
    3   -3   13      0.63      0.00
    3   -3   14     -0.62      0.00
    3   -3   15     -0.87      0.00
    3   -3   16     -1.49      0.00
    3   -3   17     -0.60      0.00
    3   -3   18     -0.21      0.00
    3   -3   19     -0.21      0.00
    3   -3   20      0.40      0.00
    3   -3   21      0.19      0.00
    3   -3   22     -0.04      0.00
    3   -3   23     -0.18      0.00
    3   -3   24     -0.31      0.00
   -3    2   21      0.06      0.00
   -3    2   20      0.39      0.00
   -3    2   19      0.76      0.00
   -3    2   18      0.71      0.00
   -3    2   17      0.20      0.00
   -3    2   16      0.39      0.00
   -3    2   15      0.66      0.00
   -3    2   14     -0.07      0.00
   -3    2   13     -0.23      0.00
   -3    2   12     -0.41      0.00
   -3    2   11     -1.78      0.00
   -3    2   10     -2.30      0.00
   -3    2    9     -2.62      0.00
   -3    2    8     -1.07      0.00
   -3    2    7      1.26      0.00
   -3    2    6      3.11      0.00
   -3    2    5      5.27      0.00
   -3    2    4      6.88      0.00
   -3    2    3      6.10      0.00
   -3    2    2      0.77      0.00
   -3    2    1     -2.17      0.00
   -3    2    0     -6.11      0.00
    3   -2    1     -9.08      0.00
    3   -2    4     -0.20      0.00
    3   -2    5      3.24      0.00
    3   -2    6      3.97      0.00
    3   -2    7      4.44      0.00
    3   -2    8      2.78      0.00
    3   -2    9      1.89      0.00
    3   -2   10     -1.21      0.00
    3   -2   11     -1.90      0.00
    3   -2   12     -1.39      0.00
    3   -2   13     -1.99      0.00
    3   -2   14     -1.11      0.00
    3   -2   15     -0.92      0.00
    3   -2   16      0.32      0.00
    3   -2   17      0.58      0.00
    3   -2   18      0.33      0.00
    3   -2   19      0.50      0.00
    3   -2   20      0.07      0.00
    3   -2   21     -0.09      0.00
    3   -2   22     -0.13      0.00
    3   -2   23      0.22      0.00
    3   -2   24      0.48      0.00
   -3    1   21      0.85      0.00
   -3    1   20      0.67      0.00
   -3    1   19      0.19      0.00
   -3    1   18     -0.62      0.00
   -3    1   17     -0.17      0.00
   -3    1   16     -0.25      0.00
   -3    1   15     -1.06      0.00
   -3    1   14     -0.74      0.00
   -3    1   13     -0.92      0.00
   -3    1   12     -1.31      0.00
   -3    1   11     -0.33      0.00
   -3    1   10      0.70      0.00
   -3    1    9      2.77      0.00
   -3    1    8      3.89      0.00
   -3    1    7      3.39      0.00
   -3    1    6      2.53      0.00
   -3    1    5      0.50      0.00
   -3    1    4     -3.33      0.00
   -3    1    3     -7.88      0.00
   -3    1    2     -7.23      0.00
   -3    1    1     -7.17      0.00
   -3    1    0     -4.74      0.00
    3   -1    1      2.05      0.00
    3   -1    2      3.63      0.00
    3   -1    4      7.81      0.00
    3   -1    5      3.87      0.00
    3   -1    6      2.01      0.00
    3   -1    7     -1.39      0.00
    3   -1    8     -2.83      0.00
    3   -1    9     -4.04      0.00
    3   -1   10     -2.53      0.00
    3   -1   11     -0.74      0.00
    3   -1   12     -0.65      0.00
    3   -1   13      0.66      0.00
    3   -1   14      0.78      0.00
    3   -1   15      1.49      0.00
    3   -1   16      1.04      0.00
    3   -1   17      0.31      0.00
    3   -1   18      0.26      0.00
    3   -1   19     -0.02      0.00
    3   -1   20     -0.05      0.00
    3   -1   21     -0.02      0.00
    3   -1   22      0.41      0.00
    3   -1   23      0.05      0.00
    3   -1   24     -0.22      0.00
   -3    0   21     -0.44      0.00
   -3    0   20     -0.86      0.00
   -3    0   19     -1.28      0.00
   -3    0   18     -0.19      0.00
   -3    0   17     -0.35      0.00
   -3    0   15      0.19      0.00
   -3    0   14      0.09      0.00
   -3    0   13      0.51      0.00
   -3    0   12      1.58      0.00
   -3    0   11      1.94      0.00
   -3    0   10      2.33      0.00
   -3    0    9      0.96      0.00
   -3    0    8     -1.29      0.00
   -3    0    7     -2.86      0.00
   -3    0    6     -4.55      0.00
   -3    0    5     -5.83      0.00
   -3    0    4     -5.02      0.00
   -3    0    3     -0.25      0.00
   -3    0    2      2.14      0.00
   -3    0    1      5.88      0.00
    3    0    0      9.90      0.00
    3    0    1      6.98      0.00
    3    0    2      6.61      0.00
    3    0    3      1.73      0.00
    3    0    4     -4.62      0.00
    3    0    5     -4.91      0.00
    3    0    6     -6.27      0.00
    3    0    7     -4.54      0.00
    3    0    8     -2.19      0.00
    3    0    9      0.54      0.00
    3    0   10      2.16      0.00
    3    0   11      1.58      0.00
    3    0   12      2.06      0.00
    3    0   13      1.40      0.00
    3    0   14      1.16      0.00
    3    0   15      0.12      0.00
    3    0   16     -0.57      0.00
    3    0   17     -0.37      0.00
    3    0   18     -0.35      0.00
    3    0   19     -0.37      0.00
    3    0   20     -0.31      0.00
    3    0   21      0.08      0.00
    3    0   22     -0.56      0.00
    3    0   23     -0.35      0.00
    3    0   24     -0.33      0.00
   -3   -1   21     -0.70      0.00
   -3   -1   20     -0.43      0.00
   -3   -1   19      0.91      0.00
   -3   -1   18      0.33      0.00
   -3   -1   17      0.17      0.00
   -3   -1   16      1.10      0.00
   -3   -1   15      0.58      0.00
   -3   -1   14      0.96      0.00
   -3   -1   13      0.99      0.00
   -3   -1   12      0.25      0.00
   -3   -1   11     -0.48      0.00
   -3   -1   10     -2.25      0.00
   -3   -1    9     -3.13      0.00
   -3   -1    8     -2.63      0.00
   -3   -1    7     -1.80      0.00
   -3   -1    6      0.05      0.00
   -3   -1    5      3.13      0.00
   -3   -1    4      6.40      0.00
   -3   -1    3      6.05      0.00
   -3   -1    2      6.01      0.00
   -3   -1    1      4.14      0.00
    3    1    0     -2.13      0.00
    3    1    1     -4.06      0.00
    3    1    2     -8.59      0.00
    3    1    3    -10.00      0.00
    3    1    4     -4.56      0.00
    3    1    5     -2.43      0.00
    3    1    6      1.64      0.00
    3    1    7      4.11      0.00
    3    1    8      4.41      0.00
    3    1    9      3.76      0.00
    3    1   10      1.44      0.00
    3    1   11      0.82      0.00
    3    1   12     -0.31      0.00
    3    1   13     -0.96      0.00
    3    1   14     -1.60      0.00
    3    1   15     -1.45      0.00
    3    1   16     -0.74      0.00
    3    1   17     -0.48      0.00
    3    1   18     -0.45      0.00
    3    1   19     -0.19      0.00
    3    1   20      0.27      0.00
    3    1   21     -0.32      0.00
    3    1   22      0.26      0.00
    3    1   23      0.13      0.00
    3    1   24      0.22      0.00
   -3   -2   21      0.64      0.00
   -3   -2   20      1.35      0.00
   -3   -2   19      0.07      0.00
   -3   -2   18      0.11      0.00
   -3   -2   17      0.74      0.00
   -3   -2   16     -0.24      0.00
   -3   -2   15      0.02      0.00
   -3   -2   14     -0.67      0.00
   -3   -2   13     -1.26      0.00
   -3   -2   12     -1.47      0.00
   -3   -2   11     -1.84      0.00
   -3   -2   10     -0.66      0.00
   -3   -2    9      0.87      0.00
   -3   -2    8      2.15      0.00
   -3   -2    7      3.49      0.00
   -3   -2    6      4.11      0.00
   -3   -2    5      3.11      0.00
   -3   -2    4      0.02      0.00
   -3   -2    3     -2.24      0.00
   -3   -2    2     -5.21      0.00
   -3   -2    1     -8.20      0.00
    3    2    0     -6.38      0.00
    3    2    1     -5.60      0.00
    3    2    2     -0.99      0.00
    3    2    3      5.82      0.00
    3    2    4      6.07      0.00
    3    2    5      6.97      0.00
    3    2    6      5.26      0.00
    3    2    7      1.99      0.00
    3    2    8     -0.09      0.00
    3    2    9     -2.57      0.00
    3    2   10     -2.45      0.00
    3    2   11     -2.47      0.00
    3    2   12     -2.21      0.00
    3    2   13     -1.36      0.00
    3    2   14     -0.31      0.00
    3    2   15      0.47      0.00
    3    2   16      0.65      0.00
    3    2   17      0.55      0.00
    3    2   18      0.77      0.00
    3    2   19      0.98      0.00
    3    2   20      0.16      0.00
    3    2   21      0.56      0.00
    3    2   22      0.11      0.00
    3    2   23      0.20      0.00
    3    2   24      0.57      0.00
   -3   -3   21      0.48      0.00
   -3   -3   20     -0.79      0.00
   -3   -3   19     -0.18      0.00
   -3   -3   18      0.17      0.00
   -3   -3   17     -0.92      0.00
   -3   -3   16     -0.45      0.00
   -3   -3   15     -1.07      0.00
   -3   -3   14     -0.63      0.00
   -3   -3   13     -0.07      0.00
   -3   -3   12      0.40      0.00
   -3   -3   10      1.99      0.00
   -3   -3    9      1.98      0.00
   -3   -3    8      1.37      0.00
   -3   -3    7     -0.23      0.00
   -3   -3    6     -2.33      0.00
   -3   -3    5     -4.11      0.00
   -3   -3    4     -4.51      0.00
   -3   -3    3     -4.10      0.00
   -3   -3    2     -2.08      0.00
   -3   -3    1      1.92      0.00
    3    3    0      4.33      0.00
    3    3    1      7.55      0.00
    3    3    2      8.37      0.00
    3    3    3      3.63      0.00
    3    3    4      1.00      0.00
    3    3    5     -2.28      0.00
    3    3    6     -4.66      0.00
    3    3    7     -4.48      0.00
    3    3    8     -4.38      0.00
    3    3    9     -1.98      0.00
    3    3   10     -0.58      0.00
    3    3   11      0.39      0.00
    3    3   12      1.74      0.00
    3    3   13      2.03      0.00
    3    3   14      1.73      0.00
    3    3   15      1.25      0.00
    3    3   16      0.64      0.00
    3    3   17      0.51      0.00
    3    3   18      0.30      0.00
    3    3   19     -0.68      0.00
    3    3   20     -0.29      0.00
    3    3   21     -0.48      0.00
    3    3   22     -0.15      0.00
    3    3   23      0.10      0.00
   -3   -4   20      0.07      0.00
   -3   -4   19     -0.10      0.00
   -3   -4   18     -1.01      0.00
   -3   -4   17     -0.08      0.00
   -3   -4   16     -0.31      0.00
   -3   -4   15      0.84      0.00
   -3   -4   14      1.16      0.00
   -3   -4   13      1.10      0.00
   -3   -4   12      1.27      0.00
   -3   -4   11      0.14      0.00
   -3   -4   10     -0.27      0.00
   -3   -4    9     -1.39      0.00
   -3   -4    8     -2.46      0.00
   -3   -4    7     -2.67      0.00
   -3   -4    6     -1.94      0.00
   -3   -4    5     -0.43      0.00
   -3   -4    4      1.83      0.00
   -3   -4    3      4.19      0.00
   -3   -4    2      5.17      0.00
   -3   -4    1      4.63      0.00
    3    4    0      3.04      0.00
    3    4    1     -0.48      0.00
    3    4    2     -4.81      0.00
    3    4    3     -5.54      0.00
    3    4    4     -5.37      0.00
    3    4    5     -4.03      0.00
    3    4    6     -1.40      0.00
    3    4    7      0.30      0.00
    3    4    8      2.75      0.00
    3    4    9      3.07      0.00
    3    4   10      2.72      0.00
    3    4   11      2.56      0.00
    3    4   12      0.99      0.00
    3    4   13     -0.08      0.00
    3    4   14     -0.63      0.00
    3    4   15     -1.15      0.00
    3    4   16     -0.97      0.00
    3    4   17     -0.95      0.00
    3    4   18     -1.42      0.00
    3    4   19     -0.50      0.00
    3    4   20     -0.17      0.00
    3    4   21      0.09      0.00
    3    4   22      0.08      0.00
    3    4   23     -0.57      0.00
   -3   -5   20     -0.25      0.00
   -3   -5   19     -0.49      0.00
   -3   -5   18      0.85      0.00
   -3   -5   17      0.67      0.00
   -3   -5   16      1.53      0.00
   -3   -5   15      0.70      0.00
   -3   -5   14     -0.16      0.00
   -3   -5   13     -0.52      0.00
   -3   -5   12     -1.45      0.00
   -3   -5   11     -0.94      0.00
   -3   -5   10     -1.47      0.00
   -3   -5    9     -1.08      0.00
   -3   -5    7      1.28      0.00
   -3   -5    6      2.46      0.00
   -3   -5    5      3.45      0.00
   -3   -5    4      2.98      0.00
   -3   -5    3      0.59      0.00
   -3   -5    2     -1.24      0.00
   -3   -5    1     -3.61      0.00
    3    5    0     -5.06      0.00
    3    5    1     -4.68      0.00
    3    5    2     -2.49      0.00
    3    5    3      0.08      0.00
    3    5    4      1.93      0.00
    3    5    5      3.47      0.00
    3    5    6      3.77      0.00
    3    5    7      3.64      0.00
    3    5    8      1.81      0.00
    3    5    9      0.24      0.00
    3    5   10     -0.74      0.00
    3    5   11     -2.27      0.00
    3    5   12     -2.07      0.00
    3    5   13     -1.56      0.00
    3    5   14     -1.24      0.00
    3    5   15     -0.36      0.00
    3    5   16     -0.09      0.00
    3    5   17     -0.16      0.00
    3    5   18      0.86      0.00
    3    5   20      0.55      0.00
    3    5   21      0.35      0.00
    3    5   22     -0.07      0.00
    3    5   23      0.45      0.00
   -3   -6   20      0.41      0.00
   -3   -6   19      1.36      0.00
   -3   -6   18      0.47      0.00
   -3   -6   17      0.47      0.00
   -3   -6   16     -1.12      0.00
   -3   -6   15     -1.63      0.00
   -3   -6   14     -1.14      0.00
   -3   -6   13     -0.96      0.00
   -3   -6   12      0.27      0.00
   -3   -6   11     -0.06      0.00
   -3   -6   10      0.85      0.00
   -3   -6    9      1.64      0.00
   -3   -6    8      1.70      0.00
   -3   -6    7      1.64      0.00
   -3   -6    6      0.80      0.00
   -3   -6    5     -1.20      0.00
   -3   -6    4     -3.39      0.00
   -3   -6    3     -3.15      0.00
   -3   -6    2     -3.14      0.00
   -3   -6    1     -1.36      0.00
    3    6    0      0.97      0.00
    3    6    1      2.32      0.00
    3    6    2      3.77      0.00
    3    6    3      3.31      0.00
    3    6    4      2.69      0.00
    3    6    5      1.41      0.00
    3    6    6     -0.37      0.00
    3    6    7     -2.04      0.00
    3    6    8     -2.62      0.00
    3    6    9     -2.46      0.00
    3    6   10     -2.19      0.00
    3    6   11     -0.48      0.00
    3    6   12      0.36      0.00
    3    6   13      0.76      0.00
    3    6   14      1.32      0.00
    3    6   15      0.95      0.00
    3    6   16      0.67      0.00
    3    6   17      1.11      0.00
    3    6   18      0.66      0.00
    3    6   19     -0.19      0.00
    3    6   20     -0.12      0.00
    3    6   21     -0.30      0.00
    3    6   22     -0.03      0.00
    3    6   23      0.04      0.00
   -3   -7   20      0.36      0.00
   -3   -7   19     -0.97      0.00
   -3   -7   18     -1.02      0.00
   -3   -7   17     -1.91      0.00
   -3   -7   16     -1.00      0.00
   -3   -7   15      0.48      0.00
   -3   -7   14      0.88      0.00
   -3   -7   13      1.58      0.00
   -3   -7   12      0.68      0.00
   -3   -7   11      1.17      0.00
   -3   -7   10      0.90      0.00
   -3   -7    9      0.07      0.00
   -3   -7    8     -0.48      0.00
   -3   -7    7     -1.70      0.00
   -3   -7    6     -2.64      0.00
   -3   -7    5     -2.51      0.00
   -3   -7    4     -0.17      0.00
   -3   -7    3      0.91      0.00
   -3   -7    2      2.62      0.00
   -3   -7    1      3.16      0.00
    3    7    0      2.20      0.00
    3    7    1      2.21      0.00
    3    7    2      0.27      0.00
    3    7    3     -0.84      0.00
    3    7    4     -2.06      0.00
    3    7    5     -3.12      0.00
    3    7    6     -2.59      0.00
    3    7    7     -1.67      0.00
    3    7    8     -0.48      0.00
    3    7    9      0.66      0.00
    3    7   10      1.90      0.00
    3    7   11      1.62      0.00
    3    7   12      1.30      0.00
    3    7   13      0.91      0.00
    3    7   14     -0.01      0.00
    3    7   15     -0.19      0.00
    3    7   16     -0.02      0.00
    3    7   17     -0.39      0.00
    3    7   18     -0.94      0.00
    3    7   19     -0.41      0.00
    3    7   20     -0.50      0.00
    3    7   21     -0.32      0.00
    3    7   22      0.06      0.00
   -3   -8   19     -0.40      0.00
   -3   -8   18     -0.23      0.00
   -3   -8   17      1.30      0.00
   -3   -8   16      2.21      0.00
   -3   -8   15      1.40      0.00
   -3   -8   14      0.96      0.00
   -3   -8   13     -0.37      0.00
   -3   -8   12     -0.21      0.00
   -3   -8   11     -0.78      0.00
   -3   -8   10     -1.36      0.00
   -3   -8    9     -1.29      0.00
   -3   -8    8     -1.57      0.00
   -3   -8    7     -0.76      0.00
   -3   -8    6      0.59      0.00
   -3   -8    5      2.59      0.00
   -3   -8    4      2.38      0.00
   -3   -8    3      2.06      0.00
   -3   -8    2      0.84      0.00
   -3   -8    1     -0.73      0.00
    3    8    0     -0.76      0.00
    3    8    1     -2.42      0.00
    3    8    2     -2.57      0.00
    3    8    3     -2.52      0.00
    3    8    4     -1.69      0.00
    3    8    5      0.40      0.00
    3    8    6      1.14      0.00
    3    8    7      1.94      0.00
    3    8    8      2.26      0.00
    3    8    9      1.83      0.00
    3    8   10      0.62      0.00
    3    8   11     -0.04      0.00
    3    8   12     -0.75      0.00
    3    8   13     -1.11      0.00
    3    8   14     -0.59      0.00
    3    8   15     -0.36      0.00
    3    8   16     -0.31      0.00
    3    8   17     -0.65      0.00
    3    8   18     -0.06      0.00
    3    8   19     -0.14      0.00
    3    8   20      0.09      0.00
    3    8   21      0.65      0.00
   -3   -9   19      0.86      0.00
   -3   -9   18      1.49      0.00
   -3   -9   17      0.94      0.00
   -3   -9   16     -0.77      0.00
   -3   -9   15     -1.26      0.00
   -3   -9   14     -1.92      0.00
   -3   -9   13     -1.24      0.00
   -3   -9   12     -1.10      0.00
   -3   -9   11     -0.84      0.00
   -3   -9   10      0.01      0.00
   -3   -9    9      0.36      0.00
   -3   -9    8      1.41      0.00
   -3   -9    7      1.89      0.00
   -3   -9    6      2.06      0.00
   -3   -9    5      0.42      0.00
   -3   -9    4     -0.81      0.00
   -3   -9    3     -1.65      0.00
   -3   -9    2     -2.17      0.00
   -3   -9    1     -1.44      0.00
    3    9    0     -1.94      0.00
    3    9    1     -0.89      0.00
    3    9    2      0.31      0.00
    3    9    3      1.89      0.00
    3    9    4      2.96      0.00
    3    9    5      1.89      0.00
    3    9    6      1.69      0.00
    3    9    7      0.81      0.00
    3    9    8     -0.53      0.00
    3    9    9     -1.33      0.00
    3    9   10     -1.52      0.00
    3    9   11     -1.55      0.00
    3    9   12     -0.72      0.00
    3    9   13      0.10      0.00
    3    9   14      0.10      0.00
    3    9   15      0.23      0.00
    3    9   16     -0.36      0.00
    3    9   17      0.20      0.00
    3    9   18      0.31      0.00
    3    9   19      0.52      0.00
    3    9   20      0.88      0.00
    3    9   21     -0.17      0.00
   -3  -10   18     -0.91      0.00
   -3  -10   17     -1.90      0.00
   -3  -10   16     -1.26      0.00
   -3  -10   15     -0.81      0.00
   -3  -10   14      0.40      0.00
   -3  -10   13      0.93      0.00
   -3  -10   12      1.17      0.00
   -3  -10   11      1.73      0.00
   -3  -10   10      1.37      0.00
   -3  -10    9      1.30      0.00
   -3  -10    8      0.56      0.00
   -3  -10    7     -0.21      0.00
   -3  -10    6     -1.60      0.00
   -3  -10    5     -1.95      0.00
   -3  -10    4     -1.35      0.00
   -3  -10    3     -0.89      0.00
   -3  -10    2      0.30      0.00
   -3  -10    1      0.48      0.00
    3   10    0      1.53      0.00
    3   10    1      2.41      0.00
    3   10    2      2.58      0.00
    3   10    3      1.28      0.00
    3   10    4     -0.74      0.00
    3   10    5     -0.78      0.00
    3   10    6     -1.70      0.00
    3   10    7     -2.21      0.00
    3   10    8     -1.57      0.00
    3   10    9     -0.99      0.00
    3   10   10     -0.10      0.00
    3   10   11      1.11      0.00
    3   10   12      1.04      0.00
    3   10   13      0.46      0.00
    3   10   14      0.43      0.00
    3   10   15     -0.36      0.00
    3   10   16      0.54      0.00
    3   10   17      0.76      0.00
    3   10   18      0.49      0.00
    3   10   19      0.40      0.00
    3   10   20     -0.81      0.00
   -3  -11   18     -0.51      0.00
   -3  -11   17      0.63      0.00
   -3  -11   16      1.15      0.00
   -3  -11   15      1.78      0.00
   -3  -11   14      1.54      0.00
   -3  -11   13      0.85      0.00
   -3  -11   12      0.58      0.00
   -3  -11   11     -0.59      0.00
   -3  -11   10     -0.97      0.00
   -3  -11    9     -1.39      0.00
   -3  -11    8     -1.55      0.00
   -3  -11    7     -1.56      0.00
   -3  -11    6     -0.87      0.00
   -3  -11    5      0.38      0.00
   -3  -11    4      0.81      0.00
   -3  -11    3      1.59      0.00
   -3  -11    2      1.31      0.00
   -3  -11    1      1.26      0.00
    3   11    0      1.13      0.00
    3   11    1     -0.20      0.00
    3   11    2     -2.01      0.00
    3   11    3     -2.47      0.00
    3   11    4     -1.27      0.00
    3   11    5     -1.42      0.00
    3   11    6     -0.64      0.00
    3   11    7      0.71      0.00
    3   11    8      1.10      0.00
    3   11    9      1.78      0.00
    3   11   10      1.75      0.00
    3   11   11      0.29      0.00
    3   11   12     -0.26      0.00
    3   11   13     -0.16      0.00
    3   11   14     -0.64      0.00
    3   11   15      0.68      0.00
    3   11   16      0.46      0.00
    3   11   17     -0.43      0.00
    3   11   18     -0.52      0.00
    3   11   19     -1.26      0.00
   -3  -12   17      0.67      0.00
   -3  -12   16      0.40      0.00
   -3  -12   15     -0.46      0.00
   -3  -12   14     -1.32      0.00
   -3  -12   13     -1.35      0.00
   -3  -12   12     -1.97      0.00
   -3  -12   11     -1.20      0.00
   -3  -12   10     -0.61      0.00
   -3  -12    9     -0.20      0.00
   -3  -12    8      0.49      0.00
   -3  -12    7      0.94      0.00
   -3  -12    6      1.64      0.00
   -3  -12    5      1.30      0.00
   -3  -12    4      1.10      0.00
   -3  -12    3      0.07      0.00
   -3  -12    2     -0.55      0.00
   -3  -12    1     -0.68      0.00
    3   12    0     -1.90      0.00
    3   12    1     -2.10      0.00
    3   12    2     -0.68      0.00
    3   12    3      0.65      0.00
    3   12    4      0.55      0.00
    3   12    5      1.38      0.00
    3   12    6      1.87      0.00
    3   12    7      1.11      0.00
    3   12    8      0.86      0.00
    3   12    9     -0.37      0.00
    3   12   10     -1.66      0.00
    3   12   11     -0.91      0.00
    3   12   12     -0.38      0.00
    3   12   13     -0.39      0.00
    3   12   14      0.82      0.00
    3   12   15     -0.21      0.00
    3   12   16     -1.06      0.00
    3   12   17     -0.49      0.00
    3   12   18     -0.58      0.00
    3   12   19      0.67      0.00
   -3  -13   16     -0.98      0.00
   -3  -13   15     -0.95      0.00
   -3  -13   14     -0.24      0.00
   -3  -13   13     -0.11      0.00
   -3  -13   12      1.24      0.00
   -3  -13   11      1.40      0.00
   -3  -13   10      1.19      0.00
   -3  -13    9      1.46      0.00
   -3  -13    8      0.81      0.00
   -3  -13    7      0.87      0.00
   -3  -13    6     -0.03      0.00
   -3  -13    5     -0.74      0.00
   -3  -13    4     -1.39      0.00
   -3  -13    3     -1.24      0.00
   -3  -13    2     -0.56      0.00
   -3  -13    1     -1.06      0.00
    3   13    0      0.01      0.00
    3   13    1      1.36      0.00
    3   13    2      1.47      0.00
    3   13    3      0.98      0.00
    3   13    4      1.07      0.00
    3   13    5      0.55      0.00
    3   13    6     -0.70      0.00
    3   13    7     -0.94      0.00
    3   13    8     -1.64      0.00
    3   13    9     -1.25      0.00
    3   13   10      0.56      0.00
    3   13   11      0.59      0.00
    3   13   12      0.42      0.00
    3   13   13      0.87      0.00
    3   13   14     -0.61      0.00
    3   13   15     -0.68      0.00
    3   13   16      0.40      0.00
    3   13   17      0.36      0.00
    3   13   18      1.07      0.00
   -3  -14   15      0.91      0.00
   -3  -14   14      0.78      0.00
   -3  -14   13      1.38      0.00
   -3  -14   12      0.34      0.00
   -3  -14   11     -0.21      0.00
   -3  -14   10     -0.11      0.00
   -3  -14    9     -1.13      0.00
   -3  -14    8     -0.63      0.00
   -3  -14    7     -1.30      0.00
   -3  -14    6     -1.46      0.00
   -3  -14    5     -0.75      0.00
   -3  -14    4      0.11      0.00
   -3  -14    3      0.77      0.00
   -3  -14    2      0.18      0.00
   -3  -14    1      1.13      0.00
    3   14    0      1.27      0.00
    3   14    1      0.58      0.00
    3   14    2      0.15      0.00
    3   14    3     -0.32      0.00
    3   14    4     -0.83      0.00
    3   14    5     -1.49      0.00
    3   14    6     -0.87      0.00
    3   14    7     -0.47      0.00
    3   14    8      0.69      0.00
    3   14    9      1.62      0.00
    3   14   10      0.31      0.00
    3   14   11     -0.05      0.00
    3   14   12     -0.04      0.00
    3   14   13     -1.02      0.00
    3   14   14     -0.17      0.00
    3   14   15      0.68      0.00
    3   14   16      0.26      0.00
    3   14   17      0.39      0.00
   -3  -15   14     -0.17      0.00
   -3  -15   13     -1.21      0.00
   -3  -15   12     -0.87      0.00
   -3  -15   11     -0.45      0.00
   -3  -15   10     -1.11      0.00
   -3  -15    9      0.17      0.00
   -3  -15    8     -0.39      0.00
   -3  -15    7      0.07      0.00
   -3  -15    6      1.25      0.00
   -3  -15    5      1.19      0.00
   -3  -15    4      0.84      0.00
   -3  -15    3     -0.14      0.00
   -3  -15    2      0.50      0.00
   -3  -15    1      0.08      0.00
    3   15    0     -0.35      0.00
    3   15    1     -0.58      0.00
    3   15    2     -1.18      0.00
    3   15    3     -0.85      0.00
    3   15    4     -0.79      0.00
    3   15    5      0.35      0.00
    3   15    6      0.88      0.00
    3   15    7      1.11      0.00
    3   15    8      0.61      0.00
    3   15    9     -0.98      0.00
    3   15   10     -0.57      0.00
    3   15   11     -0.31      0.00
    3   15   12     -0.48      0.00
    3   15   13      0.54      0.00
    3   15   14      0.61      0.00
    3   15   15      0.01      0.00
    3   15   16     -0.05      0.00
   -3  -16   13      0.51      0.00
   -3  -16   12      0.53      0.00
   -3  -16   11     -0.01      0.00
   -3  -16   10      1.25      0.00
   -3  -16    9      0.17      0.00
   -3  -16    8      0.71      0.00
   -3  -16    7      1.17      0.00
   -3  -16    6     -0.19      0.00
   -3  -16    5     -0.58      0.00
   -3  -16    4     -0.95      0.00
   -3  -16    3      0.04      0.00
   -3  -16    2     -0.20      0.00
   -3  -16    1     -0.30      0.00
    3   16    0     -0.59      0.00
    3   16    1     -0.82      0.00
    3   16    2      0.36      0.00
    3   16    3      0.39      0.00
    3   16    4      1.28      0.00
    3   16    5      1.04      0.00
    3   16    6      0.17      0.00
    3   16    7     -0.44      0.00
    3   16    8     -1.01      0.00
    3   16    9      0.18      0.00
    3   16   10      0.36      0.00
    3   16   11      0.29      0.00
    3   16   12      0.68      0.00
    3   16   13      0.21      0.00
    3   16   14     -0.13      0.00
   -3  -17   11      0.61      0.00
   -3  -17   10     -0.72      0.00
   -3  -17    9      0.05      0.00
   -3  -17    8     -0.12      0.00
   -3  -17    7     -1.38      0.00
   -3  -17    6     -0.51      0.00
   -3  -17    5     -0.19      0.00
   -3  -17    4      0.74      0.00
   -3  -17    3      0.23      0.00
   -3  -17    2     -0.13      0.00
   -3  -17    1     -0.42      0.00
    3   17    0     -0.02      0.00
    3   17    1      1.20      0.00
    3   17    2      0.46      0.00
    3   17    3      0.85      0.00
    3   17    4     -0.05      0.00
    3   17    5     -0.98      0.00
    3   17    6     -0.60      0.00
    3   17    7     -0.44      0.00
    3   17    8      0.55      0.00
    3   17    9      0.19      0.00
    3   17   10     -0.04      0.00
    3   17   11     -0.02      0.00
    3   17   12     -0.30      0.00
    3   17   13     -0.28      0.00
   -3  -18   10      0.24      0.00
   -3  -18    9     -0.19      0.00
   -3  -18    8     -0.60      0.00
   -3  -18    7      0.84      0.00
   -3  -18    6      0.57      0.00
   -3  -18    5      0.70      0.00
   -3  -18    4     -0.24      0.00
   -3  -18    3     -0.60      0.00
   -3  -18    2     -0.31      0.00
   -3  -18    1      0.47      0.00
    3   18    0      0.93      0.00
    3   18    1     -0.40      0.00
    3   18    2     -0.01      0.00
    3   18    3     -0.91      0.00
    3   18    4     -1.04      0.00
    3   18    5      0.09      0.00
    3   18    6     -0.01      0.00
    3   18    7      0.46      0.00
    3   18    8     -0.06      0.00
    3   18    9     -0.15      0.00
    3   18   10     -0.06      0.00
    3   18   11     -0.05      0.00
   -3  -19    8      0.91      0.00
   -3  -19    7     -0.17      0.00
   -3  -19    6     -0.18      0.00
   -3  -19    5     -0.74      0.00
   -3  -19    4     -0.45      0.00
   -3  -19    3      0.37      0.00
   -3  -19    2      0.71      0.00
   -3  -19    1      0.25      0.00
    3   19    0     -0.83      0.00
    3   19    1     -0.05      0.00
    3   19    2     -0.67      0.00
    3   19    3     -0.11      0.00
    3   19    4      0.82      0.00
    3   19    5      0.11      0.00
    3   19    6      0.50      0.00
    3   19    7      0.10      0.00
    3   19    8      0.06      0.00
    3   19    9      0.14      0.00
   -3  -20    5      0.26      0.00
   -3  -20    4      0.71      0.00
   -3  -20    3      0.18      0.00
   -3  -20    2     -0.44      0.00
   -3  -20    1     -0.63      0.00
    3   20    0      0.25      0.00
    3   20    1     -0.24      0.00
    3   20    2      0.47      0.00
    3   20    3      0.67      0.00
    3   20    4     -0.19      0.00
    3   20    5      0.41      0.00
    3   20    6     -0.12      0.00
    4  -22    1     -0.37      0.00
   -4   21    2      0.73      0.00
   -4   21    1     -0.20      0.00
    4  -21    1      0.22      0.00
    4  -21    3      0.26      0.00
    4  -21    4      0.31      0.00
    4  -21    5     -0.15      0.00
    4  -21    6     -0.30      0.00
   -4   20    5     -0.02      0.00
   -4   20    4      0.13      0.00
   -4   20    3     -0.04      0.00
   -4   20    2     -0.97      0.00
   -4   20    1     -0.34      0.00
   -4   20    0     -0.05      0.00
    4  -20    1     -0.42      0.00
    4  -20    3     -0.36      0.00
    4  -20    4     -0.57      0.00
    4  -20    5     -0.26      0.00
    4  -20    6     -0.10      0.00
    4  -20    9      0.11      0.00
   -4   19    8      0.19      0.00
   -4   19    7      0.49      0.00
   -4   19    6     -0.06      0.00
   -4   19    5      0.10      0.00
   -4   19    4     -0.04      0.00
   -4   19    2      0.42      0.00
   -4   19    1      0.25      0.00
   -4   19    0     -0.12      0.00
    4  -19    1      0.40      0.00
    4  -19    3      0.33      0.00
    4  -19    4      0.64      0.00
    4  -19    5      0.42      0.00
    4  -19    6      0.14      0.00
    4  -19    7      0.36      0.00
    4  -19    8      0.58      0.00
    4  -19    9      0.69      0.00
   -4   18    9      0.64      0.00
   -4   18    7     -0.05      0.00
   -4   18    6      0.20      0.00
   -4   18    5      0.04      0.00
   -4   18    4     -0.38      0.00
   -4   18    3      0.55      0.00
   -4   18    2     -0.10      0.00
   -4   18    1     -0.16      0.00
   -4   18    0      0.51      0.00
    4  -18    1      0.06      0.00
    4  -18    2      0.15      0.00
    4  -18    3      0.10      0.00
    4  -18    4     -0.37      0.00
    4  -18    5     -0.38      0.00
    4  -18    6      0.02      0.00
    4  -18    7      0.07      0.00
    4  -18    8     -0.03      0.00
    4  -18    9     -0.46      0.00
    4  -18   10     -0.95      0.00
    4  -18   12     -0.86      0.00
    4  -18   13     -0.22      0.00
   -4   17   10      0.27      0.00
   -4   17    9     -0.04      0.00
   -4   17    8     -0.86      0.00
   -4   17    7     -0.40      0.00
   -4   17    6     -0.60      0.00
   -4   17    5     -0.85      0.00
   -4   17    4      0.10      0.00
   -4   17    3     -0.52      0.00
   -4   17    2     -0.05      0.00
   -4   17    1      0.47      0.00
   -4   17    0     -0.28      0.00
    4  -17    1     -0.12      0.00
    4  -17    2     -0.26      0.00
    4  -17    3     -0.49      0.00
    4  -17    4     -0.13      0.00
    4  -17    5      0.15      0.00
    4  -17    6     -0.07      0.00
    4  -17    7     -0.31      0.00
    4  -17    8     -0.65      0.00
    4  -17   10      0.06      0.00
    4  -17   11      0.07      0.00
    4  -17   12      0.82      0.00
    4  -17   13      0.79      0.00
   -4   16   12      0.02      0.00
   -4   16   11     -0.56      0.00
   -4   16   10     -0.82      0.00
   -4   16    9     -1.14      0.00
   -4   16    8     -0.20      0.00
   -4   16    7     -0.28      0.00
   -4   16    6     -0.07      0.00
   -4   16    5      0.97      0.00
   -4   16    4      0.41      0.00
   -4   16    3      0.92      0.00
   -4   16    2      0.74      0.00
   -4   16    1     -0.25      0.00
   -4   16    0      0.04      0.00
    4  -16    1     -0.14      0.00
    4  -16    2     -0.21      0.00
    4  -16    3      0.12      0.00
    4  -16    4      0.12      0.00
    4  -16    5     -0.08      0.00
    4  -16    6     -0.13      0.00
    4  -16    7     -0.08      0.00
    4  -16    8      0.47      0.00
    4  -16    9      0.76      0.00
    4  -16   10      0.52      0.00
    4  -16   11      1.04      0.00
    4  -16   12      0.37      0.00
    4  -16   13     -0.04      0.00
   -4   15   13     -0.65      0.00
   -4   15   12     -0.86      0.00
   -4   15   11     -0.56      0.00
   -4   15   10     -0.20      0.00
   -4   15    9      0.89      0.00
   -4   15    8      0.63      0.00
   -4   15    7      0.93      0.00
   -4   15    6      1.39      0.00
   -4   15    5      0.32      0.00
   -4   15    4      0.27      0.00
   -4   15    3     -0.54      0.00
   -4   15    2     -1.16      0.00
   -4   15    1     -0.52      0.00
   -4   15    0     -0.56      0.00
    4  -15    1     -0.32      0.00
    4  -15    2      0.11      0.00
    4  -15    3      0.26      0.00
    4  -15    4      0.30      0.00
    4  -15    5      0.30      0.00
    4  -15    6      0.44      0.00
    4  -15    7      0.70      0.00
    4  -15    8      0.28      0.00
    4  -15    9      0.02      0.00
    4  -15   10      0.27      0.00
    4  -15   11     -0.72      0.00
    4  -15   12     -0.66      0.00
    4  -15   13     -0.45      0.00
    4  -15   14     -1.42      0.00
    4  -15   18      0.38      0.00
   -4   14   14     -0.66      0.00
   -4   14   13     -0.22      0.00
   -4   14   12      0.46      0.00
   -4   14   11      0.86      0.00
   -4   14   10      1.29      0.00
   -4   14    9      0.48      0.00
   -4   14    8      0.46      0.00
   -4   14    7      0.08      0.00
   -4   14    6     -1.17      0.00
   -4   14    5     -1.14      0.00
   -4   14    4     -1.45      0.00
   -4   14    3     -0.91      0.00
   -4   14    2      0.13      0.00
   -4   14    1      0.27      0.00
   -4   14    0      0.71      0.00
    4  -14    1      1.01      0.00
    4  -14    2      0.93      0.00
    4  -14    3      0.49      0.00
    4  -14    4     -0.03      0.00
    4  -14    5     -0.11      0.00
    4  -14    6     -0.27      0.00
    4  -14    7     -0.83      0.00
    4  -14    8     -0.59      0.00
    4  -14    9     -0.51      0.00
    4  -14   10     -1.23      0.00
    4  -14   11     -0.45      0.00
    4  -14   12     -0.38      0.00
    4  -14   13     -0.62      0.00
    4  -14   15      0.79      0.00
    4  -14   16      0.17      0.00
    4  -14   17      0.52      0.00
    4  -14   18     -0.04      0.00
    4  -14   19      0.02      0.00
   -4   13   15     -0.06      0.00
   -4   13   14      0.67      0.00
   -4   13   13      1.04      0.00
   -4   13   12      0.79      0.00
   -4   13   11      0.40      0.00
   -4   13   10     -0.58      0.00
   -4   13    9     -0.62      0.00
   -4   13    8     -1.09      0.00
   -4   13    7     -1.47      0.00
   -4   13    6     -0.63      0.00
   -4   13    5     -0.08      0.00
   -4   13    4      1.01      0.00
   -4   13    3      1.48      0.00
   -4   13    2      1.15      0.00
   -4   13    1      1.07      0.00
   -4   13    0      0.61      0.00
    4  -13    1     -0.17      0.00
    4  -13    2     -1.08      0.00
    4  -13    3     -1.34      0.00
    4  -13    4     -0.87      0.00
    4  -13    5     -0.72      0.00
    4  -13    6     -0.67      0.00
    4  -13    7      0.11      0.00
    4  -13    8      0.03      0.00
    4  -13    9     -0.08      0.00
    4  -13   10      1.00      0.00
    4  -13   11      0.62      0.00
    4  -13   13      1.70      0.00
    4  -13   14      0.43      0.00
    4  -13   15     -0.08      0.00
    4  -13   16      0.22      0.00
    4  -13   17     -0.22      0.00
    4  -13   18      0.08      0.00
    4  -13   20     -0.19      0.00
   -4   12   16      0.24      0.00
   -4   12   15      0.71      0.00
   -4   12   14      0.39      0.00
   -4   12   13     -0.40      0.00
   -4   12   12     -0.88      0.00
   -4   12   11     -1.21      0.00
   -4   12   10     -0.82      0.00
   -4   12    9     -0.72      0.00
   -4   12    8     -0.11      0.00
   -4   12    7      0.92      0.00
   -4   12    6      1.34      0.00
   -4   12    5      1.62      0.00
   -4   12    4      0.84      0.00
   -4   12    3     -0.03      0.00
   -4   12    2     -0.52      0.00
   -4   12    1     -1.20      0.00
   -4   12    0     -1.73      0.00
    4  -12    1     -1.72      0.00
    4  -12    2     -0.67      0.00
    4  -12    3      0.46      0.00
    4  -12    4      0.68      0.00
    4  -12    5      0.82      0.00
    4  -12    6      1.31      0.00
    4  -12    7      0.77      0.00
    4  -12    8      0.80      0.00
    4  -12    9      1.17      0.00
    4  -12   10      0.02      0.00
    4  -12   11      0.25      0.00
    4  -12   12      0.19      0.00
    4  -12   13     -1.16      0.00
    4  -12   14     -0.78      0.00
    4  -12   15     -0.36      0.00
    4  -12   16     -0.53      0.00
    4  -12   17     -0.20      0.00
    4  -12   18     -0.31      0.00
    4  -12   19     -0.67      0.00
   -4   11   17      0.02      0.00
   -4   11   16      0.06      0.00
   -4   11   15     -0.57      0.00
   -4   11   14     -1.12      0.00
   -4   11   13     -0.84      0.00
   -4   11   12     -0.35      0.00
   -4   11   11      0.25      0.00
   -4   11   10      0.65      0.00
   -4   11    9      1.22      0.00
   -4   11    8      1.36      0.00
   -4   11    7      0.94      0.00
   -4   11    6      0.22      0.00
   -4   11    5     -0.99      0.00
   -4   11    4     -1.42      0.00
   -4   11    3     -1.41      0.00
   -4   11    2     -1.34      0.00
   -4   11    1     -0.83      0.00
   -4   11    0      0.36      0.00
    4  -11    1      1.74      0.00
    4  -11    2      1.99      0.00
    4  -11    3      1.33      0.00
    4  -11    4      0.84      0.00
    4  -11    5      0.65      0.00
    4  -11    6     -0.25      0.00
    4  -11    7     -0.42      0.00
    4  -11    8     -0.71      0.00
    4  -11    9     -1.63      0.00
    4  -11   10     -0.73      0.00
    4  -11   11     -0.82      0.00
    4  -11   12     -1.15      0.00
    4  -11   13     -0.04      0.00
    4  -11   14      0.03      0.00
    4  -11   15     -0.07      0.00
    4  -11   16      0.03      0.00
    4  -11   17     -0.14      0.00
    4  -11   18     -0.13      0.00
    4  -11   19      0.35      0.00
   -4   10   17     -0.25      0.00
   -4   10   16     -0.56      0.00
   -4   10   15     -0.39      0.00
   -4   10   14      0.47      0.00
   -4   10   13      0.95      0.00
   -4   10   12      0.97      0.00
   -4   10   11      1.01      0.00
   -4   10   10      0.75      0.00
   -4   10    9     -0.02      0.00
   -4   10    8     -0.63      0.00
   -4   10    7     -1.33      0.00
   -4   10    6     -1.73      0.00
   -4   10    5     -1.09      0.00
   -4   10    4     -0.32      0.00
   -4   10    3      0.39      0.00
   -4   10    2      1.29      0.00
   -4   10    1      2.29      0.00
   -4   10    0      2.20      0.00
    4  -10    1      0.85      0.00
    4  -10    2     -0.37      0.00
    4  -10    3     -1.06      0.00
    4  -10    4     -1.21      0.00
    4  -10    5     -1.77      0.00
    4  -10    6     -1.64      0.00
    4  -10    7     -1.27      0.00
    4  -10    8     -0.84      0.00
    4  -10    9      0.70      0.00
    4  -10   10      0.57      0.00
    4  -10   11      0.57      0.00
    4  -10   12      1.11      0.00
    4  -10   13      0.41      0.00
    4  -10   14      0.35      0.00
    4  -10   15      0.31      0.00
    4  -10   16      0.33      0.00
    4  -10   17      0.55      0.00
    4  -10   18      0.72      0.00
    4  -10   19      0.63      0.00
    4  -10   21      0.09      0.00
   -4    9   18      0.12      0.00
   -4    9   17      0.15      0.00
   -4    9   16      0.52      0.00
   -4    9   15      1.00      0.00
   -4    9   14      0.68      0.00
   -4    9   13      0.02      0.00
   -4    9   12     -0.15      0.00
   -4    9   11     -0.78      0.00
   -4    9   10     -1.28      0.00
   -4    9    9     -1.08      0.00
   -4    9    8     -1.06      0.00
   -4    9    7     -0.41      0.00
   -4    9    6      0.75      0.00
   -4    9    5      1.52      0.00
   -4    9    4      1.81      0.00
   -4    9    3      1.84      0.00
   -4    9    2      1.49      0.00
   -4    9    1     -0.29      0.00
   -4    9    0     -1.96      0.00
    4   -9    1     -2.36      0.00
    4   -9    2     -2.27      0.00
    4   -9    3     -1.45      0.00
    4   -9    4     -1.04      0.00
    4   -9    5     -0.05      0.00
    4   -9    7      2.02      0.00
    4   -9    8      2.42      0.00
    4   -9    9      1.21      0.00
    4   -9   10      0.46      0.00
    4   -9   11      0.23      0.00
    4   -9   12     -0.47      0.00
    4   -9   13     -0.13      0.00
    4   -9   14     -0.10      0.00
    4   -9   15      0.05      0.00
    4   -9   16      0.07      0.00
    4   -9   17     -0.20      0.00
    4   -9   18     -0.35      0.00
    4   -9   19     -0.77      0.00
    4   -9   20     -0.77      0.00
   -4    8   18      0.13      0.00
   -4    8   17      0.20      0.00
   -4    8   16      0.04      0.00
   -4    8   15     -0.59      0.00
   -4    8   14     -0.99      0.00
   -4    8   13     -0.67      0.00
   -4    8   12     -0.89      0.00
   -4    8   11     -0.49      0.00
   -4    8   10      0.32      0.00
   -4    8    9      0.49      0.00
   -4    8    8      1.27      0.00
   -4    8    7      1.80      0.00
   -4    8    6      1.59      0.00
   -4    8    5      0.69      0.00
   -4    8    4     -0.32      0.00
   -4    8    3     -1.43      0.00
   -4    8    2     -3.09      0.00
   -4    8    1     -2.99      0.00
   -4    8    0     -1.65      0.00
    4   -8    1     -0.38      0.00
    4   -8    2      1.40      0.00
    4   -8    3      2.10      0.00
    4   -8    4      2.86      0.00
    4   -8    5      3.36      0.00
    4   -8    6      1.77      0.00
    4   -8    7      0.19      0.00
    4   -8    8     -1.45      0.00
    4   -8    9     -1.98      0.00
    4   -8   10     -1.39      0.00
    4   -8   11     -1.10      0.00
    4   -8   12     -0.39      0.00
    4   -8   13     -0.25      0.00
    4   -8   14     -0.16      0.00
    4   -8   15     -0.29      0.00
    4   -8   16     -0.48      0.00
    4   -8   17     -0.24      0.00
    4   -8   18     -0.41      0.00
    4   -8   19     -0.16      0.00
    4   -8   20      0.26      0.00
    4   -8   21      0.68      0.00
    4   -8   22      0.70      0.00
    4   -8   24      0.18      0.00
   -4    7   19     -0.33      0.00
   -4    7   18     -0.30      0.00
   -4    7   17     -0.50      0.00
   -4    7   16     -0.57      0.00
   -4    7   15     -0.31      0.00
   -4    7   14      0.30      0.00
   -4    7   13      0.25      0.00
   -4    7   12      0.85      0.00
   -4    7   11      1.17      0.00
   -4    7   10      0.72      0.00
   -4    7    9      0.94      0.00
   -4    7    8      0.45      0.00
   -4    7    7     -0.56      0.00
   -4    7    6     -1.87      0.00
   -4    7    5     -2.42      0.00
   -4    7    4     -2.44      0.00
   -4    7    3     -2.17      0.00
   -4    7    2      0.11      0.00
   -4    7    0      3.22      0.00
    4   -7    1      3.95      0.00
    4   -7    3      1.51      0.00
    4   -7    4     -0.19      0.00
    4   -7    5     -3.17      0.00
    4   -7    6     -3.86      0.00
    4   -7    7     -3.22      0.00
    4   -7    8     -1.93      0.00
    4   -7    9      0.10      0.00
    4   -7   10      0.61      0.00
    4   -7   11      0.87      0.00
    4   -7   12      0.90      0.00
    4   -7   13      0.54      0.00
    4   -7   14      0.35      0.00
    4   -7   15      0.32      0.00
    4   -7   16      0.52      0.00
    4   -7   17      0.18      0.00
    4   -7   18      0.31      0.00
    4   -7   19      0.70      0.00
    4   -7   20      0.51      0.00
    4   -7   21      0.08      0.00
    4   -7   23     -0.25      0.00
   -4    6   19      0.16      0.00
   -4    6   18      0.10      0.00
   -4    6   17      0.41      0.00
   -4    6   16      0.60      0.00
   -4    6   15      0.75      0.00
   -4    6   14      0.45      0.00
   -4    6   13      0.64      0.00
   -4    6   12      0.21      0.00
   -4    6   11     -0.50      0.00
   -4    6   10     -0.44      0.00
   -4    6    9     -1.17      0.00
   -4    6    8     -1.77      0.00
   -4    6    7     -2.01      0.00
   -4    6    6     -0.89      0.00
   -4    6    5      0.54      0.00
   -4    6    4      1.84      0.00
   -4    6    3      3.87      0.00
   -4    6    2      3.97      0.00
   -4    6    1      2.82      0.00
   -4    6    0      1.00      0.00
    4   -6    1     -1.94      0.00
    4   -6    2     -3.75      0.00
    4   -6    3     -4.68      0.00
    4   -6    4     -4.81      0.00
    4   -6    6      1.06      0.00
    4   -6    7      2.48      0.00
    4   -6    8      3.57      0.00
    4   -6    9      2.26      0.00
    4   -6   10      1.41      0.00
    4   -6   11      1.05      0.00
    4   -6   12     -0.08      0.00
    4   -6   13     -0.18      0.00
    4   -6   14     -0.21      0.00
    4   -6   15     -0.29      0.00
    4   -6   16     -0.56      0.00
    4   -6   17     -0.29      0.00
    4   -6   18      0.18      0.00
    4   -6   19     -0.29      0.00
    4   -6   20     -0.49      0.00
    4   -6   21     -0.36      0.00
    4   -6   22     -0.26      0.00
    4   -6   24     -0.08      0.00
   -4    5   19      0.19      0.00
   -4    5   18      0.44      0.00
   -4    5   17      0.15      0.00
   -4    5   16     -0.09      0.00
   -4    5   15     -0.27      0.00
   -4    5   14     -0.30      0.00
   -4    5   13     -0.81      0.00
   -4    5   12     -0.97      0.00
   -4    5   11     -0.59      0.00
   -4    5   10     -0.84      0.00
   -4    5    9     -0.43      0.00
   -4    5    8      0.42      0.00
   -4    5    7      2.19      0.00
   -4    5    6      3.01      0.00
   -4    5    5      2.82      0.00
   -4    5    4      2.39      0.00
   -4    5    2     -2.39      0.00
   -4    5    1     -4.44      0.00
   -4    5    0     -5.45      0.00
    4   -5    1     -4.25      0.00
    4   -5    2     -1.72      0.00
    4   -5    3      1.38      0.00
    4   -5    4      4.76      0.00
    4   -5    5      5.42      0.00
    4   -5    6      3.61      0.00
    4   -5    7      2.04      0.00
    4   -5    8     -0.71      0.00
    4   -5    9     -1.41      0.00
    4   -5   10     -1.44      0.00
    4   -5   11     -2.45      0.00
    4   -5   12     -1.39      0.00
    4   -5   13     -0.94      0.00
    4   -5   14     -0.72      0.00
    4   -5   15     -0.29      0.00
    4   -5   16      0.20      0.00
    4   -5   17      0.63      0.00
    4   -5   18     -0.08      0.00
    4   -5   19     -0.07      0.00
    4   -5   20      0.13      0.00
    4   -5   21      0.04      0.00
    4   -5   22      0.22      0.00
   -4    4   19     -0.02      0.00
   -4    4   18     -0.53      0.00
   -4    4   17     -0.60      0.00
   -4    4   16     -0.33      0.00
   -4    4   15     -0.43      0.00
   -4    4   14     -0.57      0.00
   -4    4   13     -0.10      0.00
   -4    4   12      0.34      0.00
   -4    4   11      0.44      0.00
   -4    4   10      1.15      0.00
   -4    4    9      1.71      0.00
   -4    4    8      2.26      0.00
   -4    4    7      1.01      0.00
   -4    4    6     -0.92      0.00
   -4    4    5     -2.34      0.00
   -4    4    4     -4.22      0.00
   -4    4    3     -4.68      0.00
   -4    4    2     -3.79      0.00
   -4    4    1     -1.10      0.00
   -4    4    0      2.25      0.00
    4   -4    1      5.21      0.00
    4   -4    2      6.38      0.00
    4   -4    3      5.03      0.00
    4   -4    6     -3.39      0.00
    4   -4    7     -4.19      0.00
    4   -4    8     -2.86      0.00
    4   -4    9     -1.73      0.00
    4   -4   10     -1.62      0.00
    4   -4   11      0.80      0.00
    4   -4   12      1.12      0.00
    4   -4   13      1.13      0.00
    4   -4   14      1.44      0.00
    4   -4   15      1.11      0.00
    4   -4   16      0.91      0.00
    4   -4   17     -0.21      0.00
    4   -4   18     -0.14      0.00
    4   -4   19      0.02      0.00
    4   -4   20     -0.12      0.00
    4   -4   21      0.13      0.00
    4   -4   22      0.00      0.00
    4   -4   23      0.17      0.00
    4   -4   24      0.27      0.00
   -4    3   20     -0.24      0.00
   -4    3   19     -0.62      0.00
   -4    3   18     -0.27      0.00
   -4    3   17      0.33      0.00
   -4    3   16      0.00      0.00
   -4    3   15      0.23      0.00
   -4    3   14      0.82      0.00
   -4    3   13      0.76      0.00
   -4    3   12      0.78      0.00
   -4    3   11      0.90      0.00
   -4    3   10      0.40      0.00
   -4    3    9     -0.30      0.00
   -4    3    8     -2.30      0.00
   -4    3    7     -3.38      0.00
   -4    3    6     -2.90      0.00
   -4    3    5     -2.14      0.00
   -4    3    4     -0.05      0.00
   -4    3    3      2.64      0.00
   -4    3    2      5.43      0.00
   -4    3    1      6.13      0.00
   -4    3    0      5.32      0.00
    4   -3    1      2.01      0.00
    4   -3    6     -1.65      0.00
    4   -3    7      0.57      0.00
    4   -3    8      1.72      0.00
    4   -3    9      1.96      0.00
    4   -3   10      3.65      0.00
    4   -3   11      2.12      0.00
    4   -3   12      1.01      0.00
    4   -3   13      0.60      0.00
    4   -3   14     -0.47      0.00
    4   -3   15     -0.59      0.00
    4   -3   16     -1.35      0.00
    4   -3   17     -0.71      0.00
    4   -3   18     -0.19      0.00
    4   -3   19     -0.15      0.00
    4   -3   20      0.15      0.00
    4   -3   21      0.02      0.00
    4   -3   22      0.06      0.00
    4   -3   23     -0.22      0.00
    4   -3   24     -0.58      0.00
   -4    2   20     -0.17      0.00
   -4    2   19      0.49      0.00
   -4    2   18      0.97      0.00
   -4    2   17      0.17      0.00
   -4    2   16      0.54      0.00
   -4    2   15      0.69      0.00
   -4    2   14      0.00      0.00
   -4    2   13     -0.02      0.00
   -4    2   12     -0.48      0.00
   -4    2   11     -1.21      0.00
   -4    2   10     -1.60      0.00
   -4    2    9     -2.30      0.00
   -4    2    8     -1.08      0.00
   -4    2    7      1.18      0.00
   -4    2    6      2.66      0.00
   -4    2    5      4.15      0.00
   -4    2    4      4.82      0.00
   -4    2    3      4.00      0.00
   -4    2    2      0.78      0.00
   -4    2    1     -2.29      0.00
   -4    2    0     -5.91      0.00
    4   -2    1     -7.45      0.00
    4   -2    2     -4.66      0.00
    4   -2    5      3.65      0.00
    4   -2    6      3.65      0.00
    4   -2    7      3.34      0.00
    4   -2    8      2.28      0.00
    4   -2    9      1.83      0.00
    4   -2   10     -1.11      0.00
    4   -2   11     -2.03      0.00
    4   -2   12     -1.74      0.00
    4   -2   13     -1.99      0.00
    4   -2   14     -1.06      0.00
    4   -2   15     -1.08      0.00
    4   -2   16      0.03      0.00
    4   -2   17      0.58      0.00
    4   -2   18      0.33      0.00
    4   -2   19      0.33      0.00
    4   -2   20      0.09      0.00
    4   -2   21     -0.07      0.00
    4   -2   22     -0.33      0.00
    4   -2   23     -0.07      0.00
    4   -2   24      0.39      0.00
    4   -2   25      0.69      0.00
   -4    1   20      0.92      0.00
   -4    1   19      0.72      0.00
   -4    1   18     -0.58      0.00
   -4    1   17     -0.04      0.00
   -4    1   16     -0.25      0.00
   -4    1   15     -0.96      0.00
   -4    1   14     -0.51      0.00
   -4    1   13     -0.96      0.00
   -4    1   12     -0.91      0.00
   -4    1   11     -0.33      0.00
   -4    1   10      0.17      0.00
   -4    1    9      2.10      0.00
   -4    1    8      3.29      0.00
   -4    1    7      2.69      0.00
   -4    1    6      1.67      0.00
   -4    1    5     -0.18      0.00
   -4    1    4     -2.86      0.00
   -4    1    3     -5.61      0.00
   -4    1    2     -5.97      0.00
   -4    1    1     -5.52      0.00
   -4    1    0     -2.14      0.00
    4   -1    1      3.03      0.00
    4   -1    2      4.23      0.00
    4   -1    4      4.95      0.00
    4   -1    5      1.90      0.00
    4   -1    6      0.70      0.00
    4   -1    7     -1.29      0.00
    4   -1    8     -2.38      0.00
    4   -1   10     -2.73      0.00
    4   -1   11     -0.89      0.00
    4   -1   12     -0.33      0.00
    4   -1   13      0.78      0.00
    4   -1   14      0.61      0.00
    4   -1   15      1.34      0.00
    4   -1   16      1.26      0.00
    4   -1   17      0.44      0.00
    4   -1   18      0.24      0.00
    4   -1   19      0.07      0.00
    4   -1   20     -0.13      0.00
    4   -1   21     -0.10      0.00
    4   -1   22      0.45      0.00
    4   -1   23      0.37      0.00
    4   -1   24      0.31      0.00
   -4    0   20     -0.52      0.00
   -4    0   19     -1.50      0.00
   -4    0   18     -0.23      0.00
   -4    0   17     -0.40      0.00
   -4    0   16     -0.62      0.00
   -4    0   15      0.28      0.00
   -4    0   14     -0.17      0.00
   -4    0   13      0.51      0.00
   -4    0   12      1.10      0.00
   -4    0   11      1.30      0.00
   -4    0   10      2.02      0.00
   -4    0    9      1.00      0.00
   -4    0    8     -1.03      0.00
   -4    0    7     -2.51      0.00
   -4    0    6     -3.68      0.00
   -4    0    5     -4.21      0.00
   -4    0    4     -3.23      0.00
   -4    0    3     -0.28      0.00
   -4    0    2      2.39      0.00
   -4    0    1      5.89      0.00
    4    0    0      7.42      0.00
    4    0    1      4.42      0.00
    4    0    2      3.16      0.00
    4    0    3     -0.40      0.00
    4    0    4     -3.75      0.00
    4    0    5     -3.45      0.00
    4    0    6     -4.34      0.00
    4    0    7     -3.46      0.00
    4    0    8     -2.01      0.00
    4    0    9      0.52      0.00
    4    0   10      2.34      0.00
    4    0   11      1.97      0.00
    4    0   12      1.94      0.00
    4    0   13      1.17      0.00
    4    0   14      1.22      0.00
    4    0   15      0.57      0.00
    4    0   16     -0.43      0.00
    4    0   17     -0.43      0.00
    4    0   18     -0.34      0.00
    4    0   20     -0.22      0.00
    4    0   21      0.21      0.00
    4    0   22     -0.34      0.00
    4    0   23     -0.21      0.00
    4    0   24     -0.71      0.00
   -4   -1   20     -0.85      0.00
   -4   -1   19      0.88      0.00
   -4   -1   18      0.34      0.00
   -4   -1   17      0.22      0.00
   -4   -1   16      0.89      0.00
   -4   -1   15      0.09      0.00
   -4   -1   14      0.85      0.00
   -4   -1   13      0.67      0.00
   -4   -1   12      0.20      0.00
   -4   -1   11     -0.06      0.00
   -4   -1   10     -1.59      0.00
   -4   -1    9     -2.50      0.00
   -4   -1    8     -2.28      0.00
   -4   -1    7     -1.27      0.00
   -4   -1    6      0.39      0.00
   -4   -1    5      2.68      0.00
   -4   -1    4      4.68      0.00
   -4   -1    3      5.05      0.00
   -4   -1    2      4.61      0.00
   -4   -1    1      1.53      0.00
    4    1    0     -2.86      0.00
    4    1    1     -3.88      0.00
    4    1    2     -6.00      0.00
    4    1    3     -5.95      0.00
    4    1    4     -2.64      0.00
    4    1    5     -1.60      0.00
    4    1    6      1.11      0.00
    4    1    7      3.15      0.00
    4    1    8      3.94      0.00
    4    1    9      3.59      0.00
    4    1   10      1.34      0.00
    4    1   11      0.40      0.00
    4    1   12     -0.36      0.00
    4    1   13     -0.65      0.00
    4    1   14     -1.21      0.00
    4    1   15     -1.70      0.00
    4    1   16     -1.12      0.00
    4    1   17     -0.66      0.00
    4    1   18     -0.66      0.00
    4    1   19     -0.06      0.00
    4    1   20      0.24      0.00
    4    1   21     -0.30      0.00
    4    1   22      0.20      0.00
    4    1   23     -0.26      0.00
    4    1   24      0.16      0.00
   -4   -2   20      1.45      0.00
   -4   -2   18     -0.02      0.00
   -4   -2   17      0.38      0.00
   -4   -2   16     -0.44      0.00
   -4   -2   15      0.41      0.00
   -4   -2   14     -0.39      0.00
   -4   -2   13     -0.76      0.00
   -4   -2   12     -0.85      0.00
   -4   -2   11     -1.41      0.00
   -4   -2   10     -0.65      0.00
   -4   -2    9      0.41      0.00
   -4   -2    8      1.85      0.00
   -4   -2    7      2.82      0.00
   -4   -2    6      3.06      0.00
   -4   -2    5      2.15      0.00
   -4   -2    4      0.14      0.00
   -4   -2    3     -2.21      0.00
   -4   -2    2     -5.06      0.00
   -4   -2    1     -5.94      0.00
    4    2    0     -4.02      0.00
    4    2    1     -2.87      0.00
    4    2    2      0.18      0.00
    4    2    3      3.82      0.00
    4    2    4      4.09      0.00
    4    2    5      5.10      0.00
    4    2    6      4.22      0.00
    4    2    7      1.88      0.00
    4    2    8     -0.06      0.00
    4    2    9     -2.49      0.00
    4    2   10     -2.46      0.00
    4    2   11     -2.12      0.00
    4    2   12     -1.96      0.00
    4    2   13     -1.45      0.00
    4    2   14     -0.99      0.00
    4    2   15      0.09      0.00
    4    2   16      0.73      0.00
    4    2   17      0.62      0.00
    4    2   18      1.14      0.00
    4    2   19      1.01      0.00
    4    2   20      0.30      0.00
    4    2   21      0.62      0.00
    4    2   22     -0.12      0.00
    4    2   23      0.31      0.00
    4    2   24      0.64      0.00
   -4   -3   20     -0.80      0.00
   -4   -3   19     -0.25      0.00
   -4   -3   18      0.16      0.00
   -4   -3   17     -0.47      0.00
   -4   -3   15     -0.83      0.00
   -4   -3   14     -0.53      0.00
   -4   -3   13     -0.15      0.00
   -4   -3   12      0.02      0.00
   -4   -3   11      1.03      0.00
   -4   -3   10      1.22      0.00
   -4   -3    9      1.73      0.00
   -4   -3    8      1.00      0.00
   -4   -3    7     -0.31      0.00
   -4   -3    6     -1.78      0.00
   -4   -3    5     -3.09      0.00
   -4   -3    4     -3.79      0.00
   -4   -3    3     -3.34      0.00
   -4   -3    2     -0.73      0.00
   -4   -3    1      2.00      0.00
    4    3    0      3.62      0.00
    4    3    1      5.27      0.00
    4    3    2      5.32      0.00
    4    3    3      2.82      0.00
    4    3    4      1.06      0.00
    4    3    5     -1.55      0.00
    4    3    6     -3.73      0.00
    4    3    7     -3.97      0.00
    4    3    8     -3.95      0.00
    4    3    9     -1.80      0.00
    4    3   10     -0.38      0.00
    4    3   11      0.20      0.00
    4    3   12      1.38      0.00
    4    3   13      1.62      0.00
    4    3   14      2.02      0.00
    4    3   15      1.85      0.00
    4    3   16      0.93      0.00
    4    3   17      0.91      0.00
    4    3   18      0.22      0.00
    4    3   19     -0.65      0.00
    4    3   20     -0.43      0.00
    4    3   21     -0.89      0.00
    4    3   22     -0.10      0.00
    4    3   23      0.10      0.00
    4    3   24     -0.68      0.00
   -4   -4   20      0.20      0.00
   -4   -4   18     -0.51      0.00
   -4   -4   17      0.03      0.00
   -4   -4   16     -0.91      0.00
   -4   -4   15      0.25      0.00
   -4   -4   14      0.67      0.00
   -4   -4   13      0.64      0.00
   -4   -4   12      0.88      0.00
   -4   -4   11      0.10      0.00
   -4   -4   10      0.26      0.00
   -4   -4    9     -0.99      0.00
   -4   -4    8     -1.76      0.00
   -4   -4    7     -1.82      0.00
   -4   -4    6     -1.55      0.00
   -4   -4    5     -0.51      0.00
   -4   -4    4      1.46      0.00
   -4   -4    3      3.70      0.00
   -4   -4    2      3.95      0.00
   -4   -4    1      3.49      0.00
    4    4    0      1.94      0.00
    4    4    1     -0.56      0.00
    4    4    2     -3.04      0.00
    4    4    3     -4.23      0.00
    4    4    4     -4.47      0.00
    4    4    5     -3.60      0.00
    4    4    6     -1.37      0.00
    4    4    7      0.32      0.00
    4    4    8      2.48      0.00
    4    4    9      2.86      0.00
    4    4   10      2.41      0.00
    4    4   11      2.52      0.00
    4    4   12      1.15      0.00
    4    4   13      0.52      0.00
    4    4   14     -0.26      0.00
    4    4   15     -1.32      0.00
    4    4   16     -1.02      0.00
    4    4   17     -1.44      0.00
    4    4   18     -1.64      0.00
    4    4   19     -0.79      0.00
    4    4   20     -0.48      0.00
    4    4   21      0.44      0.00
    4    4   22      0.34      0.00
    4    4   23     -0.32      0.00
    4    4   24      0.18      0.00
   -4   -5   19     -0.58      0.00
   -4   -5   18      0.19      0.00
   -4   -5   17     -0.14      0.00
   -4   -5   16      1.34      0.00
   -4   -5   14      0.15      0.00
   -4   -5   12     -0.87      0.00
   -4   -5   11     -0.21      0.00
   -4   -5   10     -1.13      0.00
   -4   -5    9     -0.79      0.00
   -4   -5    8      0.02      0.00
   -4   -5    7      0.57      0.00
   -4   -5    6      1.71      0.00
   -4   -5    5      2.69      0.00
   -4   -5    4      2.55      0.00
   -4   -5    3      0.54      0.00
   -4   -5    2     -0.86      0.00
   -4   -5    1     -3.03      0.00
    4    5    0     -4.01      0.00
    4    5    1     -3.54      0.00
    4    5    2     -2.55      0.00
    4    5    3     -0.28      0.00
    4    5    4      1.51      0.00
    4    5    5      3.15      0.00
    4    5    6      3.51      0.00
    4    5    7      3.20      0.00
    4    5    8      1.69      0.00
    4    5    9      0.22      0.00
    4    5   10     -0.52      0.00
    4    5   11     -2.13      0.00
    4    5   12     -1.91      0.00
    4    5   13     -1.76      0.00
    4    5   14     -1.72      0.00
    4    5   15     -0.50      0.00
    4    5   16     -0.51      0.00
    4    5   17     -0.11      0.00
    4    5   18      0.94      0.00
    4    5   19      1.11      0.00
    4    5   20      1.20      0.00
    4    5   21      0.52      0.00
    4    5   22     -0.14      0.00
    4    5   23      0.14      0.00
   -4   -6   19      0.87      0.00
   -4   -6   18      0.54      0.00
   -4   -6   17      1.17      0.00
   -4   -6   16     -0.43      0.00
   -4   -6   15     -1.26      0.00
   -4   -6   14     -0.98      0.00
   -4   -6   13     -0.84      0.00
   -4   -6   12      0.29      0.00
   -4   -6   11     -0.44      0.00
   -4   -6   10      0.31      0.00
   -4   -6    9      0.88      0.00
   -4   -6    8      0.87      0.00
   -4   -6    7      1.39      0.00
   -4   -6    6      0.87      0.00
   -4   -6    5     -0.57      0.00
   -4   -6    4     -2.44      0.00
   -4   -6    3     -2.64      0.00
   -4   -6    2     -3.01      0.00
   -4   -6    1     -1.35      0.00
    4    6    0      0.70      0.00
    4    6    1      1.67      0.00
    4    6    2      3.40      0.00
    4    6    3      3.14      0.00
    4    6    4      2.65      0.00
    4    6    5      1.25      0.00
    4    6    6     -0.57      0.00
    4    6    7     -1.80      0.00
    4    6    8     -2.44      0.00
    4    6    9     -2.28      0.00
    4    6   10     -2.22      0.00
    4    6   11     -0.50      0.00
    4    6   12      0.21      0.00
    4    6   13      0.59      0.00
    4    6   14      1.46      0.00
    4    6   15      0.84      0.00
    4    6   16      1.03      0.00
    4    6   17      1.37      0.00
    4    6   18      0.78      0.00
    4    6   19      0.13      0.00
    4    6   20     -0.48      0.00
    4    6   21     -0.72      0.00
    4    6   22     -0.31      0.00
    4    6   23      0.00      0.00
   -4   -7   19     -0.25      0.00
   -4   -7   18     -0.35      0.00
   -4   -7   17     -1.82      0.00
   -4   -7   16     -1.34      0.00
   -4   -7   15      0.07      0.00
   -4   -7   14      0.59      0.00
   -4   -7   13      1.29      0.00
   -4   -7   12      0.21      0.00
   -4   -7   11      0.71      0.00
   -4   -7   10      0.74      0.00
   -4   -7    9      0.27      0.00
   -4   -7    8      0.27      0.00
   -4   -7    7     -0.88      0.00
   -4   -7    6     -1.82      0.00
   -4   -7    5     -2.08      0.00
   -4   -7    4     -0.72      0.00
   -4   -7    3      0.24      0.00
   -4   -7    2      2.27      0.00
   -4   -7    1      2.99      0.00
    4    7    0      2.14      0.00
    4    7    1      2.21      0.00
    4    7    2      0.32      0.00
    4    7    3     -0.74      0.00
    4    7    4     -2.10      0.00
    4    7    5     -2.97      0.00
    4    7    6     -2.16      0.00
    4    7    7     -1.52      0.00
    4    7    8     -0.39      0.00
    4    7    9      0.59      0.00
    4    7   10      1.89      0.00
    4    7   11      1.58      0.00
    4    7   12      1.18      0.00
    4    7   13      0.96      0.00
    4    7   14     -0.07      0.00
    4    7   15      0.16      0.00
    4    7   16      0.01      0.00
    4    7   17     -0.59      0.00
    4    7   18     -0.95      0.00
    4    7   19     -0.85      0.00
    4    7   20     -0.59      0.00
    4    7   21     -0.11      0.00
    4    7   22      0.32      0.00
   -4   -8   18     -0.83      0.00
   -4   -8   17      0.72      0.00
   -4   -8   16      1.91      0.00
   -4   -8   15      1.38      0.00
   -4   -8   14      0.96      0.00
   -4   -8   13     -0.42      0.00
   -4   -8   12     -0.08      0.00
   -4   -8   11     -0.16      0.00
   -4   -8   10     -0.68      0.00
   -4   -8    9     -0.67      0.00
   -4   -8    8     -1.33      0.00
   -4   -8    7     -1.00      0.00
   -4   -8    6     -0.06      0.00
   -4   -8    5      1.46      0.00
   -4   -8    4      1.90      0.00
   -4   -8    3      2.28      0.00
   -4   -8    2      1.10      0.00
   -4   -8    1     -0.62      0.00
    4    8    0     -0.82      0.00
    4    8    1     -2.27      0.00
    4    8    2     -2.30      0.00
    4    8    3     -2.41      0.00
    4    8    4     -1.46      0.00
    4    8    5      0.58      0.00
    4    8    6      0.97      0.00
    4    8    7      1.77      0.00
    4    8    8      1.98      0.00
    4    8    9      1.64      0.00
    4    8   10      0.47      0.00
    4    8   11     -0.21      0.00
    4    8   12     -0.61      0.00
    4    8   13     -0.93      0.00
    4    8   14     -0.29      0.00
    4    8   15     -0.53      0.00
    4    8   16     -0.56      0.00
    4    8   17     -0.53      0.00
    4    8   18     -0.16      0.00
    4    8   19      0.10      0.00
    4    8   20      0.33      0.00
    4    8   21      0.63      0.00
    4    8   22     -0.06      0.00
   -4   -9   18      1.39      0.00
   -4   -9   17      1.13      0.00
   -4   -9   16     -0.46      0.00
   -4   -9   15     -1.05      0.00
   -4   -9   14     -1.72      0.00
   -4   -9   13     -0.91      0.00
   -4   -9   12     -0.57      0.00
   -4   -9   11     -0.82      0.00
   -4   -9   10     -0.34      0.00
   -4   -9    9     -0.22      0.00
   -4   -9    8      0.63      0.00
   -4   -9    7      1.33      0.00
   -4   -9    6      1.65      0.00
   -4   -9    5      0.85      0.00
   -4   -9    4      0.00      0.00
   -4   -9    3     -1.34      0.00
   -4   -9    2     -2.16      0.00
   -4   -9    1     -1.37      0.00
    4    9    0     -1.55      0.00
    4    9    1     -0.70      0.00
    4    9    2      0.12      0.00
    4    9    3      1.69      0.00
    4    9    4      2.72      0.00
    4    9    5      1.55      0.00
    4    9    6      1.45      0.00
    4    9    7      0.59      0.00
    4    9    8     -0.48      0.00
    4    9    9     -1.10      0.00
    4    9   10     -1.29      0.00
    4    9   11     -1.09      0.00
    4    9   12     -0.47      0.00
    4    9   13      0.05      0.00
    4    9   14     -0.30      0.00
    4    9   15      0.08      0.00
    4    9   16     -0.09      0.00
    4    9   17      0.17      0.00
    4    9   18      0.34      0.00
    4    9   19      0.38      0.00
    4    9   20      0.60      0.00
    4    9   21     -0.22      0.00
   -4  -10   17     -1.57      0.00
   -4  -10   16     -1.12      0.00
   -4  -10   15     -0.69      0.00
   -4  -10   14      0.44      0.00
   -4  -10   13      0.85      0.00
   -4  -10   12      0.52      0.00
   -4  -10   11      1.14      0.00
   -4  -10   10      1.13      0.00
   -4  -10    9      1.20      0.00
   -4  -10    8      0.92      0.00
   -4  -10    7      0.17      0.00
   -4  -10    6     -0.81      0.00
   -4  -10    5     -1.27      0.00
   -4  -10    4     -1.50      0.00
   -4  -10    3     -1.08      0.00
   -4  -10    2      0.36      0.00
   -4  -10    1      0.54      0.00
    4   10    0      1.13      0.00
    4   10    1      1.81      0.00
    4   10    2      2.29      0.00
    4   10    3      1.26      0.00
    4   10    4     -0.70      0.00
    4   10    5     -0.70      0.00
    4   10    6     -1.46      0.00
    4   10    7     -1.70      0.00
    4   10    8     -1.13      0.00
    4   10    9     -0.88      0.00
    4   10   10     -0.04      0.00
    4   10   11      0.77      0.00
    4   10   12      0.49      0.00
    4   10   13      0.16      0.00
    4   10   14      0.57      0.00
    4   10   15     -0.04      0.00
    4   10   16      0.36      0.00
    4   10   17      0.55      0.00
    4   10   18      0.38      0.00
    4   10   19      0.45      0.00
    4   10   20     -0.50      0.00
   -4  -11   17      0.47      0.00
   -4  -11   16      0.94      0.00
   -4  -11   15      1.40      0.00
   -4  -11   14      1.16      0.00
   -4  -11   13      0.40      0.00
   -4  -11   12      0.68      0.00
   -4  -11   11     -0.05      0.00
   -4  -11   10     -0.59      0.00
   -4  -11    9     -0.93      0.00
   -4  -11    8     -1.43      0.00
   -4  -11    7     -1.30      0.00
   -4  -11    6     -0.87      0.00
   -4  -11    5     -0.35      0.00
   -4  -11    4      0.45      0.00
   -4  -11    3      1.50      0.00
   -4  -11    2      1.00      0.00
   -4  -11    1      0.79      0.00
    4   11    0      0.96      0.00
    4   11    1      0.12      0.00
    4   11    2     -1.51      0.00
    4   11    3     -2.23      0.00
    4   11    4     -1.13      0.00
    4   11    5     -1.08      0.00
    4   11    6     -0.36      0.00
    4   11    7      0.56      0.00
    4   11    8      0.56      0.00
    4   11    9      1.37      0.00
    4   11   10      1.30      0.00
    4   11   11      0.09      0.00
    4   11   12      0.08      0.00
    4   11   13      0.28      0.00
    4   11   14     -0.44      0.00
    4   11   15      0.36      0.00
    4   11   16      0.33      0.00
    4   11   17     -0.16      0.00
    4   11   18     -0.19      0.00
    4   11   19     -1.05      0.00
    4   11   20     -0.32      0.00
   -4  -12   16      0.16      0.00
   -4  -12   15     -0.39      0.00
   -4  -12   14     -1.04      0.00
   -4  -12   13     -0.76      0.00
   -4  -12   12     -1.47      0.00
   -4  -12   11     -1.30      0.00
   -4  -12   10     -0.78      0.00
   -4  -12    9     -0.53      0.00
   -4  -12    8      0.40      0.00
   -4  -12    7      0.66      0.00
   -4  -12    6      0.93      0.00
   -4  -12    5      1.31      0.00
   -4  -12    4      1.32      0.00
   -4  -12    3      0.04      0.00
   -4  -12    1     -0.29      0.00
    4   12    0     -1.37      0.00
    4   12    1     -1.77      0.00
    4   12    2     -0.81      0.00
    4   12    3      0.56      0.00
    4   12    4      0.68      0.00
    4   12    5      1.15      0.00
    4   12    6      1.28      0.00
    4   12    7      0.61      0.00
    4   12    8      0.91      0.00
    4   12    9     -0.17      0.00
    4   12   10     -1.29      0.00
    4   12   11     -0.36      0.00
    4   12   12     -0.26      0.00
    4   12   13     -0.59      0.00
    4   12   14      0.45      0.00
    4   12   15     -0.13      0.00
    4   12   16     -0.64      0.00
    4   12   17     -0.44      0.00
    4   12   18     -0.83      0.00
    4   12   19      0.30      0.00
   -4  -13   15     -0.61      0.00
   -4  -13   14     -0.10      0.00
   -4  -13   13     -0.28      0.00
   -4  -13   12      0.62      0.00
   -4  -13   11      1.14      0.00
   -4  -13   10      1.15      0.00
   -4  -13    9      1.58      0.00
   -4  -13    8      0.74      0.00
   -4  -13    7      0.67      0.00
   -4  -13    6      0.52      0.00
   -4  -13    5     -0.27      0.00
   -4  -13    4     -1.37      0.00
   -4  -13    3     -1.13      0.00
   -4  -13    2     -0.43      0.00
   -4  -13    1     -0.97      0.00
    4   13    0     -0.10      0.00
    4   13    1      1.00      0.00
    4   13    2      1.37      0.00
    4   13    3      0.96      0.00
    4   13    4      0.62      0.00
    4   13    5      0.18      0.00
    4   13    6     -0.58      0.00
    4   13    7     -0.39      0.00
    4   13    8     -1.32      0.00
    4   13    9     -1.12      0.00
    4   13   10      0.62      0.00
    4   13   11      0.26      0.00
    4   13   12      0.14      0.00
    4   13   13      0.72      0.00
    4   13   14     -0.36      0.00
    4   13   15     -0.42      0.00
    4   13   16      0.07      0.00
    4   13   17      0.02      0.00
    4   13   18      1.00      0.00
   -4  -14   14      0.50      0.00
   -4  -14   13      1.08      0.00
   -4  -14   12      0.62      0.00
   -4  -14   11      0.15      0.00
   -4  -14   10      0.00      0.00
   -4  -14    9     -1.14      0.00
   -4  -14    8     -0.61      0.00
   -4  -14    7     -0.84      0.00
   -4  -14    6     -1.45      0.00
   -4  -14    5     -1.27      0.00
   -4  -14    4     -0.13      0.00
   -4  -14    3      0.75      0.00
   -4  -14    2      0.26      0.00
   -4  -14    1      1.08      0.00
    4   14    0      1.02      0.00
    4   14    1      0.54      0.00
    4   14    2      0.02      0.00
    4   14    3     -0.65      0.00
    4   14    4     -0.71      0.00
    4   14    5     -0.99      0.00
    4   14    6     -0.45      0.00
    4   14    7     -0.53      0.00
    4   14    8      0.50      0.00
    4   14    9      1.58      0.00
    4   14   10      0.13      0.00
    4   14   11     -0.06      0.00
    4   14   12      0.02      0.00
    4   14   13     -0.81      0.00
    4   14   14     -0.14      0.00
    4   14   15      0.30      0.00
    4   14   16      0.25      0.00
    4   14   17      0.68      0.00
   -4  -15   13     -0.83      0.00
   -4  -15   12     -0.78      0.00
   -4  -15   11     -0.72      0.00
   -4  -15   10     -1.18      0.00
   -4  -15    9      0.12      0.00
   -4  -15    8     -0.31      0.00
   -4  -15    7     -0.30      0.00
   -4  -15    6      0.74      0.00
   -4  -15    5      1.42      0.00
   -4  -15    4      1.37      0.00
   -4  -15    3      0.16      0.00
   -4  -15    2      0.38      0.00
   -4  -15    1     -0.29      0.00
    4   15    0     -0.49      0.00
    4   15    1     -0.62      0.00
    4   15    2     -1.10      0.00
    4   15    3     -0.37      0.00
    4   15    4     -0.35      0.00
    4   15    5      0.40      0.00
    4   15    6      0.61      0.00
    4   15    7      1.01      0.00
    4   15    8      0.71      0.00
    4   15    9     -1.11      0.00
    4   15   10     -0.68      0.00
    4   15   11     -0.36      0.00
    4   15   12     -0.38      0.00
    4   15   13      0.49      0.00
    4   15   14      0.41      0.00
    4   15   15      0.23      0.00
   -4  -16   12      0.25      0.00
   -4  -16   11      0.17      0.00
   -4  -16   10      1.23      0.00
   -4  -16    9      0.17      0.00
   -4  -16    8      0.59      0.00
   -4  -16    7      1.24      0.00
   -4  -16    6      0.59      0.00
   -4  -16    5     -0.15      0.00
   -4  -16    4     -1.32      0.00
   -4  -16    3     -0.66      0.00
   -4  -16    2     -0.67      0.00
   -4  -16    1     -0.18      0.00
    4   16    0     -0.18      0.00
    4   16    1     -0.43      0.00
    4   16    2      0.71      0.00
    4   16    3      0.41      0.00
    4   16    4      0.97      0.00
    4   16    5      0.72      0.00
    4   16    6      0.09      0.00
    4   16    7     -0.51      0.00
    4   16    8     -1.36      0.00
    4   16    9      0.01      0.00
    4   16   10      0.50      0.00
    4   16   11      0.56      0.00
    4   16   12      0.73      0.00
    4   16   13      0.14      0.00
    4   16   14      0.02      0.00
   -4  -17   10     -0.68      0.00
   -4  -17    9      0.15      0.00
   -4  -17    8      0.06      0.00
   -4  -17    7     -0.98      0.00
   -4  -17    6     -1.01      0.00
   -4  -17    5     -1.18      0.00
   -4  -17    4      0.32      0.00
   -4  -17    3      0.55      0.00
   -4  -17    2      0.66      0.00
   -4  -17    1      0.20      0.00
    4   17    0      0.04      0.00
    4   17    1      0.99      0.00
    4   17    2      0.11      0.00
    4   17    3      0.42      0.00
    4   17    4     -0.29      0.00
    4   17    5     -1.00      0.00
    4   17    6     -0.66      0.00
    4   17    7     -0.53      0.00
    4   17    8      0.86      0.00
    4   17    9      0.73      0.00
    4   17   10      0.21      0.00
    4   17   11     -0.16      0.00
    4   17   12     -0.48      0.00
    4   17   13     -0.27      0.00
   -4  -18    8     -0.69      0.00
   -4  -18    7      0.11      0.00
   -4  -18    6      0.28      0.00
   -4  -18    5      1.41      0.00
   -4  -18    4      0.68      0.00
   -4  -18    3     -0.02      0.00
   -4  -18    2     -0.45      0.00
   -4  -18    1     -0.25      0.00
    4   18    0      0.41      0.00
    4   18    1     -0.62      0.00
    4   18    2     -0.17      0.00
    4   18    3     -0.80      0.00
    4   18    4     -0.77      0.00
    4   18    5      0.31      0.00
    4   18    6      0.28      0.00
    4   18    7      0.91      0.00
    4   18    9     -0.49      0.00
    4   18   10     -0.51      0.00
    4   18   11     -0.22      0.00
   -4  -19    6      0.64      0.00
   -4  -19    5     -0.62      0.00
   -4  -19    4     -0.93      0.00
   -4  -19    3     -0.47      0.00
   -4  -19    2      0.03      0.00
   -4  -19    1      0.33      0.00
    4   19    0     -0.47      0.00
    4   19    1      0.13      0.00
    4   19    2     -0.28      0.00
    4   19    3      0.24      0.00
    4   19    4      0.96      0.00
    4   19    5      0.19      0.00
    4   19    6      0.43      0.00
    4   19    7     -0.28      0.00
    4   19    8     -0.52      0.00
   -4  -20    2      0.31      0.00
   -4  -20    1     -0.22      0.00
    4   20    0      0.27      0.00
    4   20    1     -0.04      0.00
    4   20    2      0.42      0.00
    4   20    3      0.39      0.00
   -5   21    2      0.56      0.00
   -5   21    1     -0.08      0.00
   -5   21    0     -0.05      0.00
   -5   20    2     -0.66      0.00
   -5   20    1     -0.28      0.00
   -5   20    0     -0.45      0.00
    5  -20    3     -0.02      0.00
    5  -20    4     -0.17      0.00
    5  -20    5     -0.11      0.00
   -5   19    7      0.59      0.00
   -5   19    6      0.13      0.00
   -5   19    5      0.26      0.00
   -5   19    4     -0.02      0.00
   -5   19    3     -0.55      0.00
   -5   19    2      0.10      0.00
   -5   19    1     -0.17      0.00
   -5   19    0      0.04      0.00
    5  -19    1      0.58      0.00
    5  -19    2      0.42      0.00
    5  -19    4      0.37      0.00
    5  -19    5      0.17      0.00
    5  -19    6     -0.19      0.00
    5  -19    7      0.14      0.00
    5  -19    8      0.44      0.00
   -5   18    9      0.66      0.00
   -5   18    8      0.84      0.00
   -5   18    7      0.03      0.00
   -5   18    6      0.04      0.00
   -5   18    5     -0.22      0.00
   -5   18    4     -0.60      0.00
   -5   18    3      0.19      0.00
   -5   18    2     -0.16      0.00
   -5   18    1      0.25      0.00
   -5   18    0      0.72      0.00
    5  -18    1      0.18      0.00
    5  -18    2      0.04      0.00
    5  -18    3     -0.20      0.00
    5  -18    4     -0.50      0.00
    5  -18    5     -0.51      0.00
    5  -18    6      0.07      0.00
    5  -18    7      0.32      0.00
    5  -18    8      0.28      0.00
    5  -18   10     -0.66      0.00
   -5   17   10      0.38      0.00
   -5   17    9      0.08      0.00
   -5   17    8     -0.98      0.00
   -5   17    7     -0.74      0.00
   -5   17    6     -0.76      0.00
   -5   17    5     -0.80      0.00
   -5   17    4      0.19      0.00
   -5   17    3     -0.12      0.00
   -5   17    2      0.43      0.00
   -5   17    1      0.57      0.00
   -5   17    0     -0.35      0.00
    5  -17    1     -0.41      0.00
    5  -17    2     -0.54      0.00
    5  -17    3     -0.50      0.00
    5  -17    4     -0.05      0.00
    5  -17    5      0.47      0.00
    5  -17    6      0.35      0.00
    5  -17    7     -0.07      0.00
    5  -17    8     -0.65      0.00
    5  -17    9     -0.69      0.00
    5  -17   10     -0.25      0.00
    5  -17   12      0.70      0.00
    5  -17   13      0.41      0.00
   -5   16   11     -0.43      0.00
   -5   16   10     -0.89      0.00
   -5   16    9     -1.45      0.00
   -5   16    8     -0.45      0.00
   -5   16    7     -0.09      0.00
   -5   16    6      0.24      0.00
   -5   16    5      1.16      0.00
   -5   16    4      0.66      0.00
   -5   16    3      0.94      0.00
   -5   16    2      0.46      0.00
   -5   16    1     -0.62      0.00
   -5   16    0     -0.34      0.00
    5  -16    1     -0.22      0.00
    5  -16    2      0.04      0.00
    5  -16    3      0.44      0.00
    5  -16    4      0.46      0.00
    5  -16    5      0.01      0.00
    5  -16    6     -0.42      0.00
    5  -16    7     -0.52      0.00
    5  -16    8      0.10      0.00
    5  -16    9      0.53      0.00
    5  -16   10      0.55      0.00
    5  -16   11      1.00      0.00
    5  -16   12      0.14      0.00
    5  -16   13      0.07      0.00
   -5   15   13     -0.55      0.00
   -5   15   11     -0.81      0.00
   -5   15   10     -0.40      0.00
   -5   15    9      1.00      0.00
   -5   15    8      1.11      0.00
   -5   15    7      1.14      0.00
   -5   15    6      1.30      0.00
   -5   15    5      0.27      0.00
   -5   15    4      0.06      0.00
   -5   15    3     -0.81      0.00
   -5   15    2     -1.40      0.00
   -5   15    1     -0.51      0.00
   -5   15    0     -0.17      0.00
    5  -15    1      0.10      0.00
    5  -15    2      0.30      0.00
    5  -15    3      0.14      0.00
    5  -15    4     -0.10      0.00
    5  -15    5     -0.17      0.00
    5  -15    6      0.20      0.00
    5  -15    7      0.76      0.00
    5  -15    8      0.50      0.00
    5  -15    9      0.28      0.00
    5  -15   10      0.31      0.00
    5  -15   11     -0.66      0.00
    5  -15   12     -0.18      0.00
    5  -15   13     -0.08      0.00
    5  -15   14     -1.03      0.00
   -5   14   13     -0.19      0.00
   -5   14   12      0.28      0.00
   -5   14   11      1.02      0.00
   -5   14   10      1.67      0.00
   -5   14    9      0.84      0.00
   -5   14    8      0.28      0.00
   -5   14    7     -0.22      0.00
   -5   14    6     -1.20      0.00
   -5   14    5     -1.24      0.00
   -5   14    4     -1.54      0.00
   -5   14    3     -0.96      0.00
   -5   14    2      0.41      0.00
   -5   14    1      0.67      0.00
   -5   14    0      0.74      0.00
    5  -14    1      0.71      0.00
    5  -14    2      0.48      0.00
    5  -14    3      0.22      0.00
    5  -14    4      0.02      0.00
    5  -14    5      0.18      0.00
    5  -14    6      0.09      0.00
    5  -14    7     -0.60      0.00
    5  -14    8     -0.49      0.00
    5  -14    9     -0.52      0.00
    5  -14   10     -1.01      0.00
    5  -14   11     -0.08      0.00
    5  -14   12     -0.46      0.00
    5  -14   13     -0.89      0.00
    5  -14   14      0.42      0.00
   -5   13   14      0.57      0.00
   -5   13   13      0.92      0.00
   -5   13   12      1.04      0.00
   -5   13   11      0.53      0.00
   -5   13   10     -0.70      0.00
   -5   13    9     -1.10      0.00
   -5   13    8     -1.28      0.00
   -5   13    7     -1.33      0.00
   -5   13    6     -0.73      0.00
   -5   13    5     -0.17      0.00
   -5   13    4      1.01      0.00
   -5   13    3      1.77      0.00
   -5   13    2      1.24      0.00
   -5   13    1      0.71      0.00
   -5   13    0      0.29      0.00
    5  -13    1     -0.23      0.00
    5  -13    2     -0.74      0.00
    5  -13    3     -0.97      0.00
    5  -13    4     -0.67      0.00
    5  -13    5     -0.67      0.00
    5  -13    6     -0.73      0.00
    5  -13    7      0.07      0.00
    5  -13    8      0.03      0.00
    5  -13    9      0.03      0.00
    5  -13   10      0.83      0.00
    5  -13   11      0.02      0.00
    5  -13   12      0.30      0.00
    5  -13   13      1.35      0.00
    5  -13   14      0.42      0.00
    5  -13   16      0.42      0.00
    5  -13   18      0.53      0.00
    5  -13   19      0.28      0.00
   -5   12   15      0.47      0.00
   -5   12   14      0.31      0.00
   -5   12   13     -0.23      0.00
   -5   12   12     -1.01      0.00
   -5   12   11     -1.47      0.00
   -5   12   10     -1.06      0.00
   -5   12    9     -0.53      0.00
   -5   12    8      0.12      0.00
   -5   12    7      0.74      0.00
   -5   12    6      1.32      0.00
   -5   12    5      1.79      0.00
   -5   12    4      1.14      0.00
   -5   12    3     -0.10      0.00
   -5   12    2     -0.80      0.00
   -5   12    1     -1.09      0.00
   -5   12    0     -1.36      0.00
    5  -12    1     -1.35      0.00
    5  -12    2     -0.73      0.00
    5  -12    3      0.22      0.00
    5  -12    4      0.56      0.00
    5  -12    5      0.79      0.00
    5  -12    6      1.30      0.00
    5  -12    7      0.64      0.00
    5  -12    8      0.58      0.00
    5  -12    9      0.69      0.00
    5  -12   10     -0.37      0.00
    5  -12   11      0.34      0.00
    5  -12   12      0.54      0.00
    5  -12   13     -0.63      0.00
    5  -12   14     -0.30      0.00
    5  -12   15     -0.24      0.00
    5  -12   16     -0.27      0.00
    5  -12   17     -0.02      0.00
    5  -12   18     -0.60      0.00
   -5   11   16     -0.06      0.00
   -5   11   15     -0.51      0.00
   -5   11   14     -0.94      0.00
   -5   11   13     -0.98      0.00
   -5   11   12     -0.38      0.00
   -5   11   11      0.35      0.00
   -5   11   10      0.92      0.00
   -5   11    9      1.24      0.00
   -5   11    8      1.09      0.00
   -5   11    7      1.11      0.00
   -5   11    6      0.51      0.00
   -5   11    5     -0.84      0.00
   -5   11    4     -1.60      0.00
   -5   11    3     -1.51      0.00
   -5   11    2     -1.03      0.00
   -5   11    1     -0.61      0.00
   -5   11    0      0.19      0.00
    5  -11    1      1.23      0.00
    5  -11    2      1.79      0.00
    5  -11    3      1.38      0.00
    5  -11    4      0.82      0.00
    5  -11    5      0.46      0.00
    5  -11    6     -0.56      0.00
    5  -11    7     -0.55      0.00
    5  -11    8     -0.74      0.00
    5  -11    9     -1.26      0.00
    5  -11   10     -0.09      0.00
    5  -11   11     -0.32      0.00
    5  -11   12     -0.85      0.00
    5  -11   13     -0.03      0.00
    5  -11   14     -0.10      0.00
    5  -11   15     -0.12      0.00
    5  -11   16     -0.32      0.00
    5  -11   17     -0.80      0.00
    5  -11   18     -0.52      0.00
    5  -11   19      0.21      0.00
   -5   10   16     -0.49      0.00
   -5   10   15     -0.29      0.00
   -5   10   14      0.32      0.00
   -5   10   13      0.98      0.00
   -5   10   12      1.01      0.00
   -5   10   11      0.98      0.00
   -5   10   10      0.57      0.00
   -5   10    9     -0.14      0.00
   -5   10    8     -0.26      0.00
   -5   10    7     -1.14      0.00
   -5   10    6     -1.82      0.00
   -5   10    5     -1.30      0.00
   -5   10    4     -0.34      0.00
   -5   10    3      0.54      0.00
   -5   10    2      1.04      0.00
   -5   10    1      1.70      0.00
   -5   10    0      1.79      0.00
    5  -10    1      1.02      0.00
    5  -10    2     -0.25      0.00
    5  -10    3     -1.12      0.00
    5  -10    4     -1.26      0.00
    5  -10    5     -1.60      0.00
    5  -10    6     -1.06      0.00
    5  -10    7     -0.80      0.00
    5  -10    8     -0.38      0.00
    5  -10    9      0.93      0.00
    5  -10   12      0.69      0.00
    5  -10   13      0.11      0.00
    5  -10   14     -0.03      0.00
    5  -10   15     -0.27      0.00
    5  -10   16     -0.02      0.00
    5  -10   17      0.80      0.00
    5  -10   18      1.28      0.00
    5  -10   19      1.23      0.00
   -5    9   17      0.13      0.00
   -5    9   16      0.59      0.00
   -5    9   15      0.86      0.00
   -5    9   14      0.70      0.00
   -5    9   13      0.01      0.00
   -5    9   12     -0.22      0.00
   -5    9   11     -0.73      0.00
   -5    9   10     -1.08      0.00
   -5    9    9     -0.70      0.00
   -5    9    8     -1.14      0.00
   -5    9    7     -0.68      0.00
   -5    9    6      0.56      0.00
   -5    9    5      1.39      0.00
   -5    9    4      1.66      0.00
   -5    9    3      1.39      0.00
   -5    9    2      1.12      0.00
   -5    9    1     -0.04      0.00
   -5    9    0     -1.28      0.00
    5   -9    1     -2.05      0.00
    5   -9    2     -1.96      0.00
    5   -9    3     -0.98      0.00
    5   -9    4     -0.56      0.00
    5   -9    5      0.31      0.00
    5   -9    6      0.99      0.00
    5   -9    7      1.52      0.00
    5   -9    8      1.91      0.00
    5   -9    9      0.64      0.00
    5   -9   11     -0.02      0.00
    5   -9   12     -0.54      0.00
    5   -9   13     -0.28      0.00
    5   -9   14     -0.05      0.00
    5   -9   15      0.66      0.00
    5   -9   16      0.95      0.00
    5   -9   17      0.44      0.00
    5   -9   18     -0.24      0.00
    5   -9   19     -1.12      0.00
    5   -9   20     -1.23      0.00
    5   -9   21     -1.12      0.00
   -5    8   17      0.35      0.00
   -5    8   16     -0.04      0.00
   -5    8   15     -0.51      0.00
   -5    8   14     -0.92      0.00
   -5    8   13     -0.60      0.00
   -5    8   12     -0.65      0.00
   -5    8   11     -0.37      0.00
   -5    8   10      0.31      0.00
   -5    8    9      0.10      0.00
   -5    8    8      0.92      0.00
   -5    8    7      1.64      0.00
   -5    8    6      1.42      0.00
   -5    8    5      0.64      0.00
   -5    8    4     -0.32      0.00
   -5    8    3     -1.02      0.00
   -5    8    2     -2.15      0.00
   -5    8    1     -2.18      0.00
   -5    8    0     -1.46      0.00
    5   -8    2      1.27      0.00
    5   -8    3      1.48      0.00
    5   -8    5      2.16      0.00
    5   -8    6      1.43      0.00
    5   -8    7      0.37      0.00
    5   -8    8     -1.27      0.00
    5   -8   10     -1.12      0.00
    5   -8   11     -0.78      0.00
    5   -8   12     -0.10      0.00
    5   -8   13      0.32      0.00
    5   -8   14      0.55      0.00
    5   -8   15     -0.07      0.00
    5   -8   16     -0.86      0.00
    5   -8   17     -1.05      0.00
    5   -8   18     -1.11      0.00
    5   -8   19     -0.42      0.00
    5   -8   20      0.26      0.00
    5   -8   21      0.76      0.00
    5   -8   22      1.03      0.00
   -5    7   18     -0.17      0.00
   -5    7   17     -0.63      0.00
   -5    7   16     -0.53      0.00
   -5    7   15     -0.28      0.00
   -5    7   14      0.27      0.00
   -5    7   13      0.29      0.00
   -5    7   12      0.56      0.00
   -5    7   11      0.86      0.00
   -5    7   10      0.39      0.00
   -5    7    9      0.81      0.00
   -5    7    8      0.55      0.00
   -5    7    7     -0.41      0.00
   -5    7    6     -1.39      0.00
   -5    7    5     -1.87      0.00
   -5    7    4     -1.74      0.00
   -5    7    3     -1.56      0.00
   -5    7    2      0.01      0.00
   -5    7    1      1.35      0.00
   -5    7    0      2.32      0.00
    5   -7    1      2.82      0.00
    5   -7    2      1.69      0.00
    5   -7    3      1.10      0.00
    5   -7    4      0.13      0.00
    5   -7    5     -1.74      0.00
    5   -7    7     -2.90      0.00
    5   -7    9      0.06      0.00
    5   -7   10      0.63      0.00
    5   -7   11      0.90      0.00
    5   -7   12      0.94      0.00
    5   -7   13      0.36      0.00
    5   -7   14     -0.41      0.00
    5   -7   15     -0.50      0.00
    5   -7   16      0.01      0.00
    5   -7   17      0.30      0.00
    5   -7   18      0.84      0.00
    5   -7   19      1.08      0.00
    5   -7   20      0.83      0.00
    5   -7   21      0.46      0.00
    5   -7   22     -0.20      0.00
    5   -7   23     -0.44      0.00
   -5    6   18     -0.17      0.00
   -5    6   17      0.36      0.00
   -5    6   16      0.53      0.00
   -5    6   15      0.58      0.00
   -5    6   14      0.37      0.00
   -5    6   13      0.33      0.00
   -5    6   12      0.22      0.00
   -5    6   11     -0.35      0.00
   -5    6   10     -0.21      0.00
   -5    6    9     -0.74      0.00
   -5    6    8     -1.33      0.00
   -5    6    7     -1.43      0.00
   -5    6    6     -0.69      0.00
   -5    6    5      0.41      0.00
   -5    6    4      1.30      0.00
   -5    6    3      2.72      0.00
   -5    6    2      2.65      0.00
   -5    6    1      1.96      0.00
   -5    6    0      0.75      0.00
    5   -6    1     -1.36      0.00
    5   -6    2     -2.18      0.00
    5   -6    3     -2.97      0.00
    5   -6    4     -3.52      0.00
    5   -6    6     -0.08      0.00
    5   -6    8      3.06      0.00
    5   -6    9      2.05      0.00
    5   -6   10      1.27      0.00
    5   -6   11      0.81      0.00
    5   -6   12     -0.34      0.00
    5   -6   13     -0.55      0.00
    5   -6   14     -0.14      0.00
    5   -6   15      0.20      0.00
    5   -6   16      0.17      0.00
    5   -6   17      0.19      0.00
    5   -6   18      0.14      0.00
    5   -6   19     -0.31      0.00
    5   -6   20     -0.52      0.00
    5   -6   21     -0.76      0.00
    5   -6   22     -0.58      0.00
    5   -6   23     -0.08      0.00
   -5    5   18      0.48      0.00
   -5    5   17      0.19      0.00
   -5    5   16     -0.09      0.00
   -5    5   15     -0.10      0.00
   -5    5   14     -0.25      0.00
   -5    5   13     -0.38      0.00
   -5    5   12     -0.66      0.00
   -5    5   11     -0.46      0.00
   -5    5   10     -0.55      0.00
   -5    5    9     -0.35      0.00
   -5    5    8      0.29      0.00
   -5    5    7      1.47      0.00
   -5    5    6      2.12      0.00
   -5    5    5      1.97      0.00
   -5    5    4      1.65      0.00
   -5    5    3     -0.19      0.00
   -5    5    2     -1.67      0.00
   -5    5    1     -2.85      0.00
   -5    5    0     -3.69      0.00
    5   -5    1     -2.75      0.00
    5   -5    3      0.25      0.00
    5   -5    8     -0.38      0.00
    5   -5    9     -1.13      0.00
    5   -5   10     -1.30      0.00
    5   -5   11     -2.14      0.00
    5   -5   12     -1.23      0.00
    5   -5   13     -0.56      0.00
    5   -5   14     -0.35      0.00
    5   -5   15     -0.19      0.00
    5   -5   16     -0.11      0.00
    5   -5   17      0.16      0.00
    5   -5   18     -0.14      0.00
    5   -5   19     -0.17      0.00
    5   -5   20     -0.20      0.00
    5   -5   21      0.05      0.00
    5   -5   22      0.42      0.00
    5   -5   23      0.14      0.00
    5   -5   24      0.09      0.00
   -5    4   19      0.26      0.00
   -5    4   18     -0.28      0.00
   -5    4   17     -0.41      0.00
   -5    4   16     -0.07      0.00
   -5    4   15     -0.40      0.00
   -5    4   14     -0.36      0.00
   -5    4   13     -0.26      0.00
   -5    4   12      0.03      0.00
   -5    4   11      0.41      0.00
   -5    4   10      0.77      0.00
   -5    4    9      1.14      0.00
   -5    4    8      1.53      0.00
   -5    4    7      0.73      0.00
   -5    4    6     -0.64      0.00
   -5    4    5     -1.73      0.00
   -5    4    4     -3.15      0.00
   -5    4    3     -3.05      0.00
   -5    4    2     -2.24      0.00
   -5    4    1     -0.86      0.00
   -5    4    0      1.48      0.00
    5   -4    1      3.26      0.00
    5   -4    7     -3.90      0.00
    5   -4    8     -2.64      0.00
    5   -4    9     -1.71      0.00
    5   -4   10     -1.53      0.00
    5   -4   11      0.45      0.00
    5   -4   12      0.93      0.00
    5   -4   13      1.00      0.00
    5   -4   14      1.15      0.00
    5   -4   15      0.80      0.00
    5   -4   16      0.84      0.00
    5   -4   17      0.10      0.00
    5   -4   18     -0.16      0.00
    5   -4   19     -0.14      0.00
    5   -4   20      0.09      0.00
    5   -4   21      0.29      0.00
    5   -4   22     -0.03      0.00
    5   -4   23      0.11      0.00
   -5    3   19     -0.44      0.00
   -5    3   18     -0.32      0.00
   -5    3   17      0.21      0.00
   -5    3   16     -0.34      0.00
   -5    3   15      0.08      0.00
   -5    3   14      0.41      0.00
   -5    3   13      0.52      0.00
   -5    3   12      0.91      0.00
   -5    3   11      0.60      0.00
   -5    3   10      0.23      0.00
   -5    3    9     -0.17      0.00
   -5    3    8     -1.55      0.00
   -5    3    7     -2.39      0.00
   -5    3    6     -2.15      0.00
   -5    3    5     -1.53      0.00
   -5    3    4      0.41      0.00
   -5    3    3      2.12      0.00
   -5    3    2      3.37      0.00
   -5    3    1      4.21      0.00
   -5    3    0      3.67      0.00
    5   -3    1      1.62      0.00
    5   -3    7      0.61      0.00
    5   -3    8      1.43      0.00
    5   -3    9      1.67      0.00
    5   -3   10      3.08      0.00
    5   -3   11      2.16      0.00
    5   -3   12      1.31      0.00
    5   -3   13      0.68      0.00
    5   -3   14     -0.33      0.00
    5   -3   15     -0.37      0.00
    5   -3   16     -1.11      0.00
    5   -3   17     -0.95      0.00
    5   -3   18     -0.32      0.00
    5   -3   19      0.07      0.00
    5   -3   20      0.18      0.00
    5   -3   21     -0.02      0.00
    5   -3   22      0.11      0.00
    5   -3   23     -0.05      0.00
    5   -3   24     -0.40      0.00
    5   -3   25     -0.42      0.00
   -5    2   19      0.03      0.00
   -5    2   18      0.61      0.00
   -5    2   17     -0.11      0.00
   -5    2   16      0.59      0.00
   -5    2   15      0.62      0.00
   -5    2   14      0.19      0.00
   -5    2   13      0.33      0.00
   -5    2   12     -0.62      0.00
   -5    2   11     -0.98      0.00
   -5    2   10     -1.08      0.00
   -5    2    9     -1.65      0.00
   -5    2    8     -0.84      0.00
   -5    2    7      0.75      0.00
   -5    2    6      2.04      0.00
   -5    2    5      3.35      0.00
   -5    2    4      3.27      0.00
   -5    2    3      2.20      0.00
   -5    2    2      0.70      0.00
   -5    2    1     -1.58      0.00
   -5    2    0     -4.17      0.00
    5   -2    1     -5.24      0.00
    5   -2    2     -4.02      0.00
    5   -2    7      2.67      0.00
    5   -2    8      1.91      0.00
    5   -2    9      1.73      0.00
    5   -2   10     -0.44      0.00
    5   -2   11     -1.52      0.00
    5   -2   12     -1.85      0.00
    5   -2   13     -2.05      0.00
    5   -2   14     -1.10      0.00
    5   -2   16     -0.31      0.00
    5   -2   17      0.61      0.00
    5   -2   18      0.57      0.00
    5   -2   19      0.32      0.00
    5   -2   20      0.12      0.00
    5   -2   21     -0.02      0.00
    5   -2   22     -0.27      0.00
    5   -2   23     -0.25      0.00
    5   -2   24     -0.07      0.00
    5   -2   25      0.51      0.00
   -5    1   19      0.74      0.00
   -5    1   18     -0.33      0.00
   -5    1   17      0.36      0.00
   -5    1   16     -0.12      0.00
   -5    1   15     -0.71      0.00
   -5    1   14     -0.31      0.00
   -5    1   13     -1.14      0.00
   -5    1   12     -0.62      0.00
   -5    1   11     -0.06      0.00
   -5    1   10      0.13      0.00
   -5    1    9      1.50      0.00
   -5    1    8      2.40      0.00
   -5    1    7      2.22      0.00
   -5    1    6      1.37      0.00
   -5    1    5     -0.58      0.00
   -5    1    4     -2.46      0.00
   -5    1    3     -3.55      0.00
   -5    1    2     -4.29      0.00
   -5    1    1     -4.03      0.00
   -5    1    0     -1.43      0.00
    5   -1    1      1.92      0.00
    5   -1    2      3.69      0.00
    5   -1    3      5.02      0.00
    5   -1    5      1.22      0.00
    5   -1    8     -1.74      0.00
    5   -1    9     -3.12      0.00
    5   -1   10     -2.74      0.00
    5   -1   11     -1.49      0.00
    5   -1   12     -0.48      0.00
    5   -1   13      0.75      0.00
    5   -1   14      0.56      0.00
    5   -1   15      1.15      0.00
    5   -1   16      1.45      0.00
    5   -1   17      0.59      0.00
    5   -1   18      0.17      0.00
    5   -1   19      0.08      0.00
    5   -1   20     -0.23      0.00
    5   -1   21     -0.20      0.00
    5   -1   22      0.12      0.00
    5   -1   23      0.16      0.00
    5   -1   24      0.61      0.00
    5   -1   25      0.02      0.00
   -5    0   19     -1.03      0.00
   -5    0   18     -0.02      0.00
   -5    0   17     -0.49      0.00
   -5    0   16     -0.53      0.00
   -5    0   14     -0.36      0.00
   -5    0   13      0.68      0.00
   -5    0   12      0.96      0.00
   -5    0   11      0.83      0.00
   -5    0   10      1.39      0.00
   -5    0    9      0.72      0.00
   -5    0    8     -0.60      0.00
   -5    0    7     -2.04      0.00
   -5    0    6     -3.17      0.00
   -5    0    5     -3.10      0.00
   -5    0    4     -1.83      0.00
   -5    0    3     -0.44      0.00
   -5    0    2      1.68      0.00
   -5    0    1      4.48      0.00
    5    0    0      5.26      0.00
    5    0    1      3.72      0.00
    5    0    2      1.99      0.00
    5    0    3     -1.07      0.00
    5    0    4     -3.16      0.00
    5    0    5     -2.76      0.00
    5    0    6     -2.77      0.00
    5    0    7     -2.43      0.00
    5    0    8     -1.82      0.00
    5    0    9     -0.08      0.00
    5    0   10      1.73      0.00
    5    0   11      2.16      0.00
    5    0   12      2.05      0.00
    5    0   13      1.12      0.00
    5    0   14      1.11      0.00
    5    0   15      0.84      0.00
    5    0   16     -0.29      0.00
    5    0   17     -0.43      0.00
    5    0   18     -0.31      0.00
    5    0   19     -0.68      0.00
    5    0   20     -0.26      0.00
    5    0   21      0.06      0.00
    5    0   22     -0.13      0.00
    5    0   23      0.33      0.00
    5    0   24     -0.51      0.00
    5    0   25     -0.60      0.00
   -5   -1   19      0.61      0.00
   -5   -1   17      0.26      0.00
   -5   -1   16      0.77      0.00
   -5   -1   15     -0.25      0.00
   -5   -1   14      0.72      0.00
   -5   -1   13      0.27      0.00
   -5   -1   12     -0.18      0.00
   -5   -1   11     -0.15      0.00
   -5   -1   10     -1.13      0.00
   -5   -1    9     -1.73      0.00
   -5   -1    8     -1.96      0.00
   -5   -1    7     -1.06      0.00
   -5   -1    6      0.62      0.00
   -5   -1    5      2.32      0.00
   -5   -1    4      3.15      0.00
   -5   -1    3      3.83      0.00
   -5   -1    2      3.61      0.00
   -5   -1    1      0.97      0.00
    5    1    0     -1.85      0.00
    5    1    1     -3.45      0.00
    5    1    2     -4.62      0.00
    5    1    3     -3.75      0.00
    5    1    4     -1.51      0.00
    5    1    5     -0.74      0.00
    5    1    6      0.52      0.00
    5    1    7      1.92      0.00
    5    1    8      2.94      0.00
    5    1    9      3.27      0.00
    5    1   10      1.75      0.00
    5    1   11      0.41      0.00
    5    1   12     -0.45      0.00
    5    1   13     -0.56      0.00
    5    1   14     -0.77      0.00
    5    1   15     -1.59      0.00
    5    1   16     -1.21      0.00
    5    1   17     -0.79      0.00
    5    1   18     -0.95      0.00
    5    1   19     -0.02      0.00
    5    1   20      0.22      0.00
    5    1   21      0.04      0.00
    5    1   22      0.54      0.00
    5    1   23     -0.47      0.00
    5    1   24     -0.13      0.00
    5    1   25      0.60      0.00
   -5   -2   19     -0.05      0.00
   -5   -2   18      0.01      0.00
   -5   -2   17      0.06      0.00
   -5   -2   16     -0.80      0.00
   -5   -2   15      0.40      0.00
   -5   -2   14     -0.34      0.00
   -5   -2   13     -0.45      0.00
   -5   -2   12     -0.29      0.00
   -5   -2   11     -0.70      0.00
   -5   -2   10     -0.24      0.00
   -5   -2    9      0.17      0.00
   -5   -2    8      1.60      0.00
   -5   -2    7      2.39      0.00
   -5   -2    6      2.30      0.00
   -5   -2    5      1.36      0.00
   -5   -2    4      0.28      0.00
   -5   -2    3     -1.52      0.00
   -5   -2    2     -3.91      0.00
   -5   -2    1     -4.27      0.00
    5    2    0     -3.43      0.00
    5    2    1     -1.82      0.00
    5    2    2      0.65      0.00
    5    2    3      2.46      0.00
    5    2    4      2.65      0.00
    5    2    5      3.15      0.00
    5    2    6      3.13      0.00
    5    2    7      1.94      0.00
    5    2    8      0.52      0.00
    5    2    9     -1.75      0.00
    5    2   10     -2.39      0.00
    5    2   11     -2.01      0.00
    5    2   12     -1.68      0.00
    5    2   13     -1.20      0.00
    5    2   14     -1.32      0.00
    5    2   15     -0.32      0.00
    5    2   16      0.43      0.00
    5    2   17      0.42      0.00
    5    2   18      1.44      0.00
    5    2   19      1.13      0.00
    5    2   20      0.64      0.00
    5    2   21      0.68      0.00
    5    2   22     -0.59      0.00
    5    2   23      0.06      0.00
    5    2   24      0.49      0.00
    5    2   25     -0.27      0.00
   -5   -3   19     -0.21      0.00
   -5   -3   18     -0.07      0.00
   -5   -3   17     -0.30      0.00
   -5   -3   16      0.89      0.00
   -5   -3   15     -0.23      0.00
   -5   -3   14     -0.05      0.00
   -5   -3   13      0.12      0.00
   -5   -3   12      0.04      0.00
   -5   -3   11      0.59      0.00
   -5   -3   10      0.49      0.00
   -5   -3    9      1.30      0.00
   -5   -3    8      0.55      0.00
   -5   -3    7     -0.52      0.00
   -5   -3    6     -1.47      0.00
   -5   -3    5     -2.25      0.00
   -5   -3    4     -2.86      0.00
   -5   -3    3     -2.71      0.00
   -5   -3    2     -0.65      0.00
   -5   -3    1      1.04      0.00
    5    3    0      2.92      0.00
    5    3    1      3.87      0.00
    5    3    2      3.35      0.00
    5    3    3      2.18      0.00
    5    3    4      1.04      0.00
    5    3    5     -0.38      0.00
    5    3    6     -2.26      0.00
    5    3    7     -3.06      0.00
    5    3    8     -3.50      0.00
    5    3    9     -2.04      0.00
    5    3   10     -0.46      0.00
    5    3   11      0.13      0.00
    5    3   12      1.10      0.00
    5    3   13      1.03      0.00
    5    3   14      1.81      0.00
    5    3   15      1.98      0.00
    5    3   16      1.19      0.00
    5    3   17      1.48      0.00
    5    3   18      0.27      0.00
    5    3   19     -0.53      0.00
    5    3   20     -0.67      0.00
    5    3   21     -1.45      0.00
    5    3   22     -0.16      0.00
    5    3   23      0.16      0.00
    5    3   24     -0.38      0.00
   -5   -4   19      0.28      0.00
   -5   -4   18      0.13      0.00
   -5   -4   17      0.58      0.00
   -5   -4   16     -0.83      0.00
   -5   -4   15     -0.16      0.00
   -5   -4   14      0.03      0.00
   -5   -4   13      0.06      0.00
   -5   -4   12      0.27      0.00
   -5   -4   11     -0.29      0.00
   -5   -4   10      0.29      0.00
   -5   -4    9     -0.85      0.00
   -5   -4    8     -1.19      0.00
   -5   -4    7     -1.05      0.00
   -5   -4    6     -1.02      0.00
   -5   -4    5     -0.29      0.00
   -5   -4    4      0.96      0.00
   -5   -4    3      2.64      0.00
   -5   -4    2      2.87      0.00
   -5   -4    1      3.11      0.00
    5    4    0      1.65      0.00
    5    4    1     -0.26      0.00
    5    4    2     -1.51      0.00
    5    4    3     -2.78      0.00
    5    4    4     -3.15      0.00
    5    4    5     -3.24      0.00
    5    4    6     -1.84      0.00
    5    4    7     -0.28      0.00
    5    4    8      1.72      0.00
    5    4    9      2.57      0.00
    5    4   10      2.17      0.00
    5    4   11      2.32      0.00
    5    4   12      1.08      0.00
    5    4   13      0.90      0.00
    5    4   14      0.17      0.00
    5    4   15     -1.07      0.00
    5    4   16     -0.76      0.00
    5    4   17     -1.83      0.00
    5    4   18     -1.84      0.00
    5    4   19     -1.13      0.00
    5    4   20     -0.84      0.00
    5    4   21      0.79      0.00
    5    4   22      0.68      0.00
   -5   -5   18     -0.17      0.00
   -5   -5   17     -0.92      0.00
   -5   -5   16      0.47      0.00
   -5   -5   15      0.47      0.00
   -5   -5   14      0.23      0.00
   -5   -5   13      0.05      0.00
   -5   -5   12     -0.49      0.00
   -5   -5   11      0.33      0.00
   -5   -5   10     -0.57      0.00
   -5   -5    9     -0.12      0.00
   -5   -5    8      0.30      0.00
   -5   -5    7      0.25      0.00
   -5   -5    6      1.20      0.00
   -5   -5    5      1.73      0.00
   -5   -5    4      1.80      0.00
   -5   -5    3      0.70      0.00
   -5   -5    2     -0.08      0.00
   -5   -5    1     -2.14      0.00
    5    5    0     -3.01      0.00
    5    5    1     -2.70      0.00
    5    5    2     -2.58      0.00
    5    5    3     -0.93      0.00
    5    5    4      0.30      0.00
    5    5    5      2.17      0.00
    5    5    6      3.04      0.00
    5    5    7      2.94      0.00
    5    5    8      1.92      0.00
    5    5    9      0.40      0.00
    5    5   10     -0.24      0.00
    5    5   11     -1.82      0.00
    5    5   12     -1.61      0.00
    5    5   13     -1.74      0.00
    5    5   14     -1.89      0.00
    5    5   15     -0.61      0.00
    5    5   16     -1.02      0.00
    5    5   17     -0.14      0.00
    5    5   18      0.91      0.00
    5    5   19      1.18      0.00
    5    5   20      1.84      0.00
    5    5   21      0.76      0.00
    5    5   22     -0.10      0.00
    5    5   23     -0.16      0.00
   -5   -6   18      0.01      0.00
   -5   -6   17      1.15      0.00
   -5   -6   16      0.21      0.00
   -5   -6   15     -0.43      0.00
   -5   -6   14     -0.56      0.00
   -5   -6   13     -0.56      0.00
   -5   -6   12      0.51      0.00
   -5   -6   11     -0.27      0.00
   -5   -6   10      0.23      0.00
   -5   -6    9      0.25      0.00
   -5   -6    8     -0.01      0.00
   -5   -6    7      0.82      0.00
   -5   -6    6      0.43      0.00
   -5   -6    5     -0.29      0.00
   -5   -6    4     -1.32      0.00
   -5   -6    3     -1.79      0.00
   -5   -6    2     -2.65      0.00
   -5   -6    1     -1.56      0.00
    5    6    0     -0.03      0.00
    5    6    1      0.75      0.00
    5    6    2      2.54      0.00
    5    6    3      2.65      0.00
    5    6    4      2.87      0.00
    5    6    5      1.69      0.00
    5    6    6     -0.14      0.00
    5    6    7     -1.29      0.00
    5    6    8     -2.20      0.00
    5    6    9     -2.05      0.00
    5    6   10     -2.22      0.00
    5    6   11     -0.67      0.00
    5    6   12      0.02      0.00
    5    6   13      0.49      0.00
    5    6   14      1.48      0.00
    5    6   15      0.61      0.00
    5    6   16      1.31      0.00
    5    6   17      1.53      0.00
    5    6   18      0.89      0.00
    5    6   19      0.52      0.00
    5    6   20     -0.77      0.00
    5    6   21     -1.10      0.00
    5    6   22     -0.71      0.00
    5    6   23     -0.24      0.00
   -5   -7   18      0.44      0.00
   -5   -7   17     -0.95      0.00
   -5   -7   16     -0.98      0.00
   -5   -7   15     -0.27      0.00
   -5   -7   14      0.29      0.00
   -5   -7   13      1.11      0.00
   -5   -7   12      0.01      0.00
   -5   -7   11      0.15      0.00
   -5   -7   10      0.04      0.00
   -5   -7    9     -0.05      0.00
   -5   -7    8      0.59      0.00
   -5   -7    7     -0.33      0.00
   -5   -7    6     -0.90      0.00
   -5   -7    5     -1.11      0.00
   -5   -7    4     -0.80      0.00
   -5   -7    3     -0.38      0.00
   -5   -7    2      1.40      0.00
   -5   -7    1      2.34      0.00
    5    7    0      2.10      0.00
    5    7    1      2.32      0.00
    5    7    2      0.80      0.00
    5    7    3     -0.04      0.00
    5    7    4     -1.72      0.00
    5    7    5     -2.74      0.00
    5    7    6     -2.04      0.00
    5    7    7     -1.63      0.00
    5    7    8     -0.45      0.00
    5    7    9      0.30      0.00
    5    7   10      1.68      0.00
    5    7   11      1.62      0.00
    5    7   12      1.24      0.00
    5    7   13      0.96      0.00
    5    7   14     -0.27      0.00
    5    7   15      0.41      0.00
    5    7   16      0.04      0.00
    5    7   17     -0.70      0.00
    5    7   18     -0.88      0.00
    5    7   19     -1.34      0.00
    5    7   20     -0.75      0.00
    5    7   21      0.00      0.00
    5    7   22      0.56      0.00
    5    7   23      0.39      0.00
   -5   -8   17      0.12      0.00
   -5   -8   16      1.10      0.00
   -5   -8   15      1.10      0.00
   -5   -8   14      0.91      0.00
   -5   -8   13     -0.58      0.00
   -5   -8   12     -0.47      0.00
   -5   -8   11     -0.17      0.00
   -5   -8   10     -0.12      0.00
   -5   -8    9      0.16      0.00
   -5   -8    8     -0.75      0.00
   -5   -8    7     -0.73      0.00
   -5   -8    6     -0.14      0.00
   -5   -8    5      0.47      0.00
   -5   -8    4      1.02      0.00
   -5   -8    3      1.89      0.00
   -5   -8    2      1.30      0.00
   -5   -8    1     -0.02      0.00
    5    8    0     -0.59      0.00
    5    8    1     -1.90      0.00
    5    8    2     -2.02      0.00
    5    8    3     -2.48      0.00
    5    8    4     -1.55      0.00
    5    8    5      0.34      0.00
    5    8    6      0.72      0.00
    5    8    7      1.60      0.00
    5    8    8      1.63      0.00
    5    8    9      1.57      0.00
    5    8   10      0.62      0.00
    5    8   11     -0.28      0.00
    5    8   12     -0.71      0.00
    5    8   13     -0.98      0.00
    5    8   14      0.03      0.00
    5    8   15     -0.52      0.00
    5    8   16     -0.72      0.00
    5    8   17     -0.46      0.00
    5    8   18     -0.36      0.00
    5    8   19      0.38      0.00
    5    8   20      0.68      0.00
    5    8   21      0.74      0.00
    5    8   22      0.04      0.00
   -5   -9   17      0.82      0.00
   -5   -9   16     -0.15      0.00
   -5   -9   15     -0.80      0.00
   -5   -9   14     -1.66      0.00
   -5   -9   13     -0.84      0.00
   -5   -9   12      0.03      0.00
   -5   -9   11     -0.14      0.00
   -5   -9   10     -0.05      0.00
   -5   -9    9     -0.50      0.00
   -5   -9    8      0.02      0.00
   -5   -9    7      0.81      0.00
   -5   -9    6      0.82      0.00
   -5   -9    5      0.66      0.00
   -5   -9    4      0.50      0.00
   -5   -9    3     -0.72      0.00
   -5   -9    2     -1.69      0.00
   -5   -9    1     -1.42      0.00
    5    9    0     -1.38      0.00
    5    9    1     -0.63      0.00
    5    9    2     -0.12      0.00
    5    9    3      1.41      0.00
    5    9    4      2.35      0.00
    5    9    5      1.41      0.00
    5    9    6      1.35      0.00
    5    9    7      0.42      0.00
    5    9    8     -0.23      0.00
    5    9    9     -0.77      0.00
    5    9   10     -1.25      0.00
    5    9   11     -0.92      0.00
    5    9   12     -0.24      0.00
    5    9   13      0.30      0.00
    5    9   14     -0.47      0.00
    5    9   15     -0.17      0.00
    5    9   16      0.05      0.00
    5    9   17      0.19      0.00
    5    9   18      0.61      0.00
    5    9   19      0.36      0.00
    5    9   20      0.26      0.00
    5    9   21     -0.37      0.00
   -5  -10   16     -0.86      0.00
   -5  -10   15     -0.56      0.00
   -5  -10   14      0.65      0.00
   -5  -10   13      1.27      0.00
   -5  -10   12      0.47      0.00
   -5  -10   11      0.55      0.00
   -5  -10   10      0.41      0.00
   -5  -10    9      0.74      0.00
   -5  -10    8      1.00      0.00
   -5  -10    7      0.07      0.00
   -5  -10    6     -0.34      0.00
   -5  -10    5     -0.46      0.00
   -5  -10    4     -1.17      0.00
   -5  -10    3     -1.01      0.00
   -5  -10    2      0.15      0.00
   -5  -10    1      0.56      0.00
    5   10    0      0.97      0.00
    5   10    1      1.33      0.00
    5   10    2      1.92      0.00
    5   10    3      1.15      0.00
    5   10    4     -0.46      0.00
    5   10    5     -0.58      0.00
    5   10    6     -1.29      0.00
    5   10    7     -1.17      0.00
    5   10    8     -0.79      0.00
    5   10    9     -0.92      0.00
    5   10   10     -0.03      0.00
    5   10   11      0.63      0.00
    5   10   12      0.21      0.00
    5   10   13     -0.27      0.00
    5   10   14      0.39      0.00
    5   10   15      0.30      0.00
    5   10   16      0.43      0.00
    5   10   17      0.52      0.00
    5   10   18      0.07      0.00
    5   10   19      0.15      0.00
    5   10   20     -0.34      0.00
    5   10   21      0.00      0.00
   -5  -11   16      0.79      0.00
   -5  -11   15      1.23      0.00
   -5  -11   14      0.97      0.00
   -5  -11   13     -0.22      0.00
   -5  -11   12      0.07      0.00
   -5  -11   11     -0.11      0.00
   -5  -11   10     -0.22      0.00
   -5  -11    8     -1.33      0.00
   -5  -11    7     -0.87      0.00
   -5  -11    6     -0.39      0.00
   -5  -11    5     -0.59      0.00
   -5  -11    4      0.17      0.00
   -5  -11    3      1.11      0.00
   -5  -11    2      0.77      0.00
   -5  -11    1      0.48      0.00
    5   11    0      0.54      0.00
    5   11    1      0.14      0.00
    5   11    2     -1.06      0.00
    5   11    3     -1.78      0.00
    5   11    4     -1.08      0.00
    5   11    5     -0.90      0.00
    5   11    6     -0.05      0.00
    5   11    7      0.38      0.00
    5   11    8      0.03      0.00
    5   11    9      0.98      0.00
    5   11   10      0.95      0.00
    5   11   11     -0.08      0.00
    5   11   12      0.15      0.00
    5   11   13      0.64      0.00
    5   11   14      0.12      0.00
    5   11   15      0.29      0.00
    5   11   16      0.05      0.00
    5   11   17     -0.33      0.00
    5   11   18     -0.08      0.00
    5   11   19     -0.58      0.00
   -5  -12   15     -0.51      0.00
   -5  -12   14     -1.20      0.00
   -5  -12   13     -0.53      0.00
   -5  -12   12     -0.73      0.00
   -5  -12   11     -0.76      0.00
   -5  -12    9     -0.84      0.00
   -5  -12    8      0.50      0.00
   -5  -12    7      0.72      0.00
   -5  -12    6      0.30      0.00
   -5  -12    5      0.92      0.00
   -5  -12    4      1.01      0.00
   -5  -12    3     -0.01      0.00
   -5  -12    2     -0.35      0.00
   -5  -12    1     -0.22      0.00
    5   12    0     -0.85      0.00
    5   12    1     -1.20      0.00
    5   12    2     -0.75      0.00
    5   12    3      0.32      0.00
    5   12    4      0.74      0.00
    5   12    5      1.11      0.00
    5   12    6      0.78      0.00
    5   12    7      0.14      0.00
    5   12    8      0.91      0.00
    5   12    9      0.12      0.00
    5   12   10     -0.82      0.00
    5   12   11      0.11      0.00
    5   12   12      0.06      0.00
    5   12   13     -0.48      0.00
    5   12   14     -0.10      0.00
    5   12   15     -0.51      0.00
    5   12   16     -0.50      0.00
    5   12   17     -0.15      0.00
    5   12   18     -0.58      0.00
    5   12   19      0.05      0.00
   -5  -13   14      0.28      0.00
   -5  -13   13      0.09      0.00
   -5  -13   12      0.32      0.00
   -5  -13   11      0.64      0.00
   -5  -13   10      0.72      0.00
   -5  -13    9      1.65      0.00
   -5  -13    8      0.69      0.00
   -5  -13    7      0.09      0.00
   -5  -13    6      0.51      0.00
   -5  -13    5     -0.04      0.00
   -5  -13    4     -0.92      0.00
   -5  -13    3     -0.72      0.00
   -5  -13    2     -0.29      0.00
   -5  -13    1     -0.62      0.00
    5   13    0     -0.02      0.00
    5   13    1      0.59      0.00
    5   13    2      1.12      0.00
    5   13    3      1.06      0.00
    5   13    4      0.45      0.00
    5   13    5     -0.20      0.00
    5   13    6     -0.58      0.00
    5   13    7      0.09      0.00
    5   13    8     -0.82      0.00
    5   13    9     -0.93      0.00
    5   13   10      0.46      0.00
    5   13   11     -0.09      0.00
    5   13   12     -0.26      0.00
    5   13   13      0.13      0.00
    5   13   14     -0.35      0.00
    5   13   15      0.04      0.00
    5   13   16      0.24      0.00
    5   13   17     -0.07      0.00
    5   13   18      0.63      0.00
   -5  -14   13      0.45      0.00
   -5  -14   12      0.42      0.00
   -5  -14   11      0.32      0.00
   -5  -14   10      0.33      0.00
   -5  -14    9     -1.07      0.00
   -5  -14    8     -0.86      0.00
   -5  -14    7     -0.39      0.00
   -5  -14    6     -0.91      0.00
   -5  -14    5     -1.02      0.00
   -5  -14    4     -0.23      0.00
   -5  -14    3      0.39      0.00
   -5  -14    2      0.22      0.00
   -5  -14    1      0.89      0.00
    5   14    0      0.67      0.00
    5   14    1      0.53      0.00
    5   14    2      0.09      0.00
    5   14    3     -0.90      0.00
    5   14    4     -0.89      0.00
    5   14    5     -0.72      0.00
    5   14    6     -0.04      0.00
    5   14    7     -0.52      0.00
    5   14    8      0.08      0.00
    5   14    9      1.16      0.00
    5   14   10     -0.03      0.00
    5   14   11     -0.04      0.00
    5   14   12      0.04      0.00
    5   14   13     -0.33      0.00
    5   14   14      0.33      0.00
    5   14   15      0.21      0.00
    5   14   16      0.07      0.00
    5   14   17      0.54      0.00
   -5  -15   12     -0.38      0.00
   -5  -15   11     -0.63      0.00
   -5  -15   10     -1.22      0.00
   -5  -15    9     -0.04      0.00
   -5  -15    8      0.11      0.00
   -5  -15    7     -0.19      0.00
   -5  -15    6      0.25      0.00
   -5  -15    5      0.91      0.00
   -5  -15    4      1.13      0.00
   -5  -15    3      0.42      0.00
   -5  -15    2      0.44      0.00
   -5  -15    1     -0.41      0.00
    5   15    0     -0.44      0.00
    5   15    1     -0.66      0.00
    5   15    2     -1.25      0.00
    5   15    3     -0.25      0.00
    5   15    4      0.06      0.00
    5   15    5      0.61      0.00
    5   15    6      0.40      0.00
    5   15    7      0.74      0.00
    5   15    8      0.86      0.00
    5   15    9     -0.74      0.00
    5   15   10     -0.47      0.00
    5   15   11     -0.30      0.00
    5   15   12     -0.14      0.00
    5   15   13      0.53      0.00
    5   15   14      0.08      0.00
    5   15   15      0.07      0.00
   -5  -16   10      1.07      0.00
   -5  -16    9      0.38      0.00
   -5  -16    8      0.31      0.00
   -5  -16    7      0.65      0.00
   -5  -16    6      0.67      0.00
   -5  -16    5      0.31      0.00
   -5  -16    4     -0.84      0.00
   -5  -16    3     -0.73      0.00
   -5  -16    2     -1.01      0.00
   -5  -16    1     -0.27      0.00
    5   16    0     -0.12      0.00
    5   16    1     -0.28      0.00
    5   16    2      1.03      0.00
    5   16    3      0.74      0.00
    5   16    4      0.92      0.00
    5   16    5      0.46      0.00
    5   16    6      0.05      0.00
    5   16    7     -0.27      0.00
    5   16    8     -1.34      0.00
    5   16    9     -0.33      0.00
    5   16   10      0.24      0.00
    5   16   11      0.57      0.00
    5   16   12      0.65      0.00
    5   16   13     -0.09      0.00
    5   16   14     -0.02      0.00
   -5  -17    9     -0.08      0.00
   -5  -17    8     -0.02      0.00
   -5  -17    7     -0.31      0.00
   -5  -17    6     -0.63      0.00
   -5  -17    5     -1.31      0.00
   -5  -17    4     -0.24      0.00
   -5  -17    3      0.16      0.00
   -5  -17    2      0.89      0.00
   -5  -17    1      0.64      0.00
    5   17    0      0.28      0.00
    5   17    1      1.08      0.00
    5   17    2      0.07      0.00
    5   17    3      0.05      0.00
    5   17    4     -0.60      0.00
    5   17    5     -1.06      0.00
    5   17    6     -0.70      0.00
    5   17    7     -0.83      0.00
    5   17    8      0.57      0.00
    5   17    9      0.91      0.00
    5   17   10      0.57      0.00
    5   17   11     -0.03      0.00
    5   17   12     -0.57      0.00
   -5  -18    7     -0.22      0.00
   -5  -18    6     -0.27      0.00
   -5  -18    5      1.10      0.00
   -5  -18    4      0.91      0.00
   -5  -18    3      0.67      0.00
   -5  -18    2     -0.11      0.00
   -5  -18    1     -0.51      0.00
    5   18    0      0.05      0.00
    5   18    1     -0.90      0.00
    5   18    2     -0.55      0.00
    5   18    3     -0.87      0.00
    5   18    4     -0.65      0.00
    5   18    5      0.37      0.00
    5   18    6      0.34      0.00
    5   18    7      1.19      0.00
    5   18    8      0.71      0.00
    5   18    9     -0.25      0.00
    5   18   10     -0.67      0.00
   -5  -19    4     -0.61      0.00
   -5  -19    3     -0.89      0.00
   -5  -19    2     -0.66      0.00
   -5  -19    1      0.11      0.00
    5   19    0     -0.42      0.00
    5   19    1      0.16      0.00
    5   19    2      0.06      0.00
    5   19    3      0.55      0.00
    5   19    4      1.14      0.00
    5   19    5      0.41      0.00
    5   19    6      0.61      0.00
    5   19    7     -0.22      0.00
   -6   19    7      0.59      0.00
   -6   19    4      0.03      0.00
   -6   19    3     -0.24      0.00
   -6   19    0     -0.24      0.00
    6  -19    3      0.53      0.00
    6  -19    5      0.25      0.00
   -6   18    7      0.27      0.00
   -6   18    6      0.01      0.00
   -6   18    5     -0.30      0.00
   -6   18    4     -0.60      0.00
   -6   18    3     -0.20      0.00
   -6   18    2     -0.56      0.00
   -6   18    1      0.06      0.00
   -6   18    0      0.67      0.00
    6  -18    1      0.58      0.00
    6  -18    2      0.41      0.00
    6  -18    4     -0.41      0.00
    6  -18    5     -0.66      0.00
    6  -18    7      0.17      0.00
   -6   17    8     -0.71      0.00
   -6   17    7     -0.91      0.00
   -6   17    6     -0.93      0.00
   -6   17    5     -0.89      0.00
   -6   17    4     -0.09      0.00
   -6   17    3     -0.11      0.00
   -6   17    2      0.67      0.00
   -6   17    1      0.98      0.00
   -6   17    0      0.25      0.00
    6  -17    1     -0.23      0.00
    6  -17    3     -0.76      0.00
    6  -17    4     -0.42      0.00
    6  -17    5      0.31      0.00
    6  -17    9     -0.64      0.00
   -6   16    8     -0.95      0.00
   -6   16    7     -0.33      0.00
   -6   16    6      0.22      0.00
   -6   16    5      1.13      0.00
   -6   16    4      0.92      0.00
   -6   16    3      1.23      0.00
   -6   16    2      0.78      0.00
   -6   16    1     -0.49      0.00
   -6   16    0     -0.78      0.00
    6  -16    1     -0.77      0.00
    6  -16    2     -0.30      0.00
    6  -16    3      0.35      0.00
    6  -16    4      0.74      0.00
    6  -16    5      0.44      0.00
    6  -16    6     -0.13      0.00
    6  -16    7     -0.55      0.00
    6  -16    8     -0.31      0.00
    6  -16    9      0.17      0.00
    6  -16   10      0.50      0.00
    6  -16   11      0.89      0.00
    6  -16   12      0.08      0.00
   -6   15   12     -0.60      0.00
   -6   15   10     -0.81      0.00
   -6   15    9      0.46      0.00
   -6   15    8      1.22      0.00
   -6   15    7      1.48      0.00
   -6   15    6      1.52      0.00
   -6   15    5      0.57      0.00
   -6   15    4      0.21      0.00
   -6   15    3     -0.71      0.00
   -6   15    2     -1.67      0.00
   -6   15    1     -1.10      0.00
   -6   15    0     -0.41      0.00
    6  -15    1      0.28      0.00
    6  -15    2      0.72      0.00
    6  -15    3      0.56      0.00
    6  -15    4      0.04      0.00
    6  -15    5     -0.38      0.00
    6  -15    6     -0.26      0.00
    6  -15    7      0.35      0.00
    6  -15    8      0.51      0.00
    6  -15    9      0.53      0.00
    6  -15   10      0.31      0.00
    6  -15   11     -0.62      0.00
    6  -15   12     -0.08      0.00
   -6   14   13     -0.08      0.00
   -6   14   12      0.01      0.00
   -6   14   11      0.66      0.00
   -6   14   10      1.65      0.00
   -6   14    9      1.53      0.00
   -6   14    8      0.77      0.00
   -6   14    7     -0.15      0.00
   -6   14    6     -1.14      0.00
   -6   14    5     -1.33      0.00
   -6   14    4     -1.68      0.00
   -6   14    3     -1.46      0.00
   -6   14    2      0.01      0.00
   -6   14    1      0.86      0.00
   -6   14    0      1.14      0.00
    6  -14    1      1.00      0.00
    6  -14    2      0.39      0.00
    6  -14    3     -0.10      0.00
    6  -14    4     -0.32      0.00
    6  -14    5     -0.01      0.00
    6  -14    6      0.24      0.00
    6  -14    7     -0.17      0.00
    6  -14    8     -0.23      0.00
    6  -14    9     -0.59      0.00
    6  -14   10     -0.87      0.00
    6  -14   13     -0.59      0.00
    6  -14   15     -0.35      0.00
   -6   13   13      0.55      0.00
   -6   13   12      1.02      0.00
   -6   13   11      0.93      0.00
   -6   13   10     -0.06      0.00
   -6   13    9     -1.17      0.00
   -6   13    8     -1.72      0.00
   -6   13    7     -1.57      0.00
   -6   13    6     -1.01      0.00
   -6   13    5     -0.48      0.00
   -6   13    4      0.53      0.00
   -6   13    3      1.78      0.00
   -6   13    2      1.76      0.00
   -6   13    1      1.04      0.00
   -6   13    0      0.27      0.00
    6  -13    1     -0.50      0.00
    6  -13    2     -0.80      0.00
    6  -13    3     -0.84      0.00
    6  -13    4     -0.44      0.00
    6  -13    5     -0.35      0.00
    6  -13    6     -0.55      0.00
    6  -13    7     -0.06      0.00
    6  -13    8     -0.13      0.00
    6  -13    9      0.20      0.00
    6  -13   10      0.92      0.00
    6  -13   11     -0.09      0.00
    6  -13   12     -0.02      0.00
    6  -13   13      0.65      0.00
    6  -13   15      0.54      0.00
   -6   12   14      0.18      0.00
   -6   12   13      0.15      0.00
   -6   12   12     -0.58      0.00
   -6   12   11     -1.31      0.00
   -6   12   10     -1.62      0.00
   -6   12    9     -0.98      0.00
   -6   12    8      0.12      0.00
   -6   12    7      0.65      0.00
   -6   12    6      1.23      0.00
   -6   12    5      1.76      0.00
   -6   12    4      1.72      0.00
   -6   12    3      0.57      0.00
   -6   12    2     -0.69      0.00
   -6   12    1     -1.26      0.00
   -6   12    0     -1.46      0.00
    6  -12    1     -1.11      0.00
    6  -12    2     -0.61      0.00
    6  -12    3      0.16      0.00
    6  -12    4      0.45      0.00
    6  -12    5      0.61      0.00
    6  -12    6      1.09      0.00
    6  -12    7      0.61      0.00
    6  -12    8      0.69      0.00
    6  -12    9      0.46      0.00
    6  -12   10     -0.77      0.00
    6  -12   11     -0.07      0.00
    6  -12   12      0.33      0.00
    6  -12   13     -0.19      0.00
    6  -12   14      0.10      0.00
    6  -12   16     -0.03      0.00
    6  -12   17      0.22      0.00
   -6   11   15     -0.29      0.00
   -6   11   14     -0.46      0.00
   -6   11   13     -0.89      0.00
   -6   11   12     -0.66      0.00
   -6   11   11     -0.20      0.00
   -6   11   10      0.86      0.00
   -6   11    9      1.51      0.00
   -6   11    8      1.10      0.00
   -6   11    7      1.20      0.00
   -6   11    6      0.81      0.00
   -6   11    5     -0.18      0.00
   -6   11    4     -1.37      0.00
   -6   11    3     -1.92      0.00
   -6   11    2     -1.36      0.00
   -6   11    1     -0.67      0.00
   -6   11    0      0.24      0.00
    6  -11    1      0.90      0.00
    6  -11    3      1.25      0.00
    6  -11    4      0.81      0.00
    6  -11    5      0.48      0.00
    6  -11    6     -0.55      0.00
    6  -11    7     -0.59      0.00
    6  -11    8     -1.02      0.00
    6  -11   10      0.09      0.00
    6  -11   11      0.18      0.00
    6  -11   12     -0.15      0.00
    6  -11   14     -0.12      0.00
    6  -11   15      0.13      0.00
    6  -11   16     -0.19      0.00
    6  -11   17     -0.88      0.00
   -6   10   15     -0.21      0.00
   -6   10   14     -0.11      0.00
   -6   10   13      0.53      0.00
   -6   10   12      0.75      0.00
   -6   10   11      1.17      0.00
   -6   10   10      0.79      0.00
   -6   10    9     -0.21      0.00
   -6   10    8     -0.08      0.00
   -6   10    7     -0.82      0.00
   -6   10    6     -1.56      0.00
   -6   10    5     -1.67      0.00
   -6   10    4     -1.02      0.00
   -6   10    3      0.34      0.00
   -6   10    2      1.05      0.00
   -6   10    1      1.52      0.00
   -6   10    0      1.39      0.00
    6  -10    1      0.99      0.00
    6  -10    2      0.01      0.00
    6  -10    3     -0.88      0.00
    6  -10    4     -1.18      0.00
    6  -10    5     -1.57      0.00
    6  -10    6     -0.87      0.00
    6  -10    7     -0.66      0.00
    6  -10    9      1.37      0.00
    6  -10   10      0.76      0.00
    6  -10   11      0.33      0.00
    6  -10   12      0.24      0.00
    6  -10   13     -0.10      0.00
    6  -10   14     -0.10      0.00
    6  -10   15     -0.66      0.00
    6  -10   16     -0.59      0.00
    6  -10   17      0.22      0.00
    6  -10   18      1.02      0.00
    6  -10   19      1.49      0.00
   -6    9   16      0.39      0.00
   -6    9   15      0.44      0.00
   -6    9   14      0.64      0.00
   -6    9   13      0.17      0.00
   -6    9   12      0.11      0.00
   -6    9   11     -0.50      0.00
   -6    9   10     -1.03      0.00
   -6    9    9     -0.40      0.00
   -6    9    8     -0.98      0.00
   -6    9    7     -0.88      0.00
   -6    9    6     -0.03      0.00
   -6    9    5      0.95      0.00
   -6    9    4      1.81      0.00
   -6    9    3      1.46      0.00
   -6    9    2      0.95      0.00
   -6    9    1     -0.02      0.00
   -6    9    0     -0.77      0.00
    6   -9    1     -1.50      0.00
    6   -9    3     -0.85      0.00
    6   -9    4     -0.33      0.00
    6   -9    6      0.92      0.00
    6   -9    7      1.41      0.00
    6   -9    8      1.65      0.00
    6   -9    9      0.21      0.00
    6   -9   10     -0.38      0.00
    6   -9   12     -0.62      0.00
    6   -9   14     -0.43      0.00
    6   -9   15      0.49      0.00
    6   -9   16      1.16      0.00
    6   -9   17      1.16      0.00
   -6    8   17      0.32      0.00
   -6    8   16     -0.04      0.00
   -6    8   15     -0.13      0.00
   -6    8   14     -0.58      0.00
   -6    8   13     -0.33      0.00
   -6    8   12     -0.46      0.00
   -6    8   11     -0.37      0.00
   -6    8   10      0.37      0.00
   -6    8    9     -0.17      0.00
   -6    8    8      0.42      0.00
   -6    8    7      1.20      0.00
   -6    8    6      1.37      0.00
   -6    8    5      1.04      0.00
   -6    8    4     -0.19      0.00
   -6    8    3     -0.91      0.00
   -6    8    2     -1.59      0.00
   -6    8    1     -1.45      0.00
   -6    8    0     -1.13      0.00
    6   -8    1     -0.28      0.00
    6   -8    2      1.01      0.00
    6   -8    3      1.21      0.00
    6   -8    4      1.45      0.00
    6   -8    5      1.10      0.00
    6   -8    9     -1.42      0.00
    6   -8   10     -0.93      0.00
    6   -8   11     -0.31      0.00
    6   -8   12      0.08      0.00
    6   -8   13      0.48      0.00
    6   -8   14      1.11      0.00
    6   -8   15      0.61      0.00
    6   -8   16     -0.20      0.00
    6   -8   17     -1.07      0.00
    6   -8   18     -1.64      0.00
    6   -8   19     -0.83      0.00
    6   -8   20     -0.04      0.00
    6   -8   21      0.46      0.00
   -6    7   17     -0.50      0.00
   -6    7   16     -0.25      0.00
   -6    7   15     -0.25      0.00
   -6    7   14      0.22      0.00
   -6    7   13      0.18      0.00
   -6    7   12      0.18      0.00
   -6    7   11      0.54      0.00
   -6    7   10     -0.06      0.00
   -6    7    9      0.50      0.00
   -6    7    8      0.62      0.00
   -6    7    7     -0.05      0.00
   -6    7    6     -0.81      0.00
   -6    7    5     -1.62      0.00
   -6    7    4     -1.41      0.00
   -6    7    3     -1.03      0.00
   -6    7    2      0.08      0.00
   -6    7    1      0.79      0.00
   -6    7    0      1.46      0.00
    6   -7    1      1.89      0.00
    6   -7    2      0.92      0.00
    6   -7    3      0.40      0.00
    6   -7   11      0.81      0.00
    6   -7   12      0.90      0.00
    6   -7   13      0.56      0.00
    6   -7   14     -0.49      0.00
    6   -7   15     -0.87      0.00
    6   -7   16     -0.87      0.00
    6   -7   17     -0.35      0.00
    6   -7   18      0.79      0.00
    6   -7   19      1.05      0.00
    6   -7   20      0.85      0.00
    6   -7   21      0.67      0.00
   -6    6   17      0.32      0.00
   -6    6   16      0.25      0.00
   -6    6   15      0.33      0.00
   -6    6   14      0.11      0.00
   -6    6   13     -0.10      0.00
   -6    6   12      0.13      0.00
   -6    6   11     -0.27      0.00
   -6    6   10      0.09      0.00
   -6    6    9     -0.21      0.00
   -6    6    8     -0.86      0.00
   -6    6    7     -0.98      0.00
   -6    6    6     -0.68      0.00
   -6    6    5      0.33      0.00
   -6    6    4      1.02      0.00
   -6    6    3      1.83      0.00
   -6    6    2      1.56      0.00
   -6    6    1      1.12      0.00
   -6    6    0      0.44      0.00
    6   -6    2     -1.30      0.00
    6   -6   10      0.80      0.00
    6   -6   11      0.49      0.00
    6   -6   12     -0.36      0.00
    6   -6   13     -0.86      0.00
    6   -6   14     -0.44      0.00
    6   -6   15     -0.07      0.00
    6   -6   16      0.47      0.00
    6   -6   17      0.76      0.00
    6   -6   18      0.26      0.00
    6   -6   19     -0.12      0.00
    6   -6   20     -0.22      0.00
    6   -6   21     -0.65      0.00
    6   -6   22     -0.54      0.00
   -6    5   18      0.30      0.00
   -6    5   17     -0.06      0.00
   -6    5   16     -0.15      0.00
   -6    5   15     -0.09      0.00
   -6    5   14     -0.21      0.00
   -6    5   13      0.13      0.00
   -6    5   12     -0.17      0.00
   -6    5   11     -0.12      0.00
   -6    5   10     -0.28      0.00
   -6    5    9     -0.37      0.00
   -6    5    8      0.19      0.00
   -6    5    7      0.89      0.00
   -6    5    6      1.46      0.00
   -6    5    5      1.31      0.00
   -6    5    4      0.95      0.00
   -6    5    3     -0.35      0.00
   -6    5    2     -1.15      0.00
   -6    5    1     -1.62      0.00
   -6    5    0     -2.17      0.00
    6   -5    1     -1.26      0.00
    6   -5    2     -0.54      0.00
    6   -5   11     -1.49      0.00
    6   -5   12     -1.03      0.00
    6   -5   13     -0.35      0.00
    6   -5   14     -0.12      0.00
    6   -5   15      0.23      0.00
    6   -5   16      0.08      0.00
    6   -5   17     -0.12      0.00
    6   -5   18     -0.02      0.00
    6   -5   19      0.00      0.00
    6   -5   20     -0.31      0.00
    6   -5   21     -0.08      0.00
    6   -5   22      0.25      0.00
    6   -5   23      0.10      0.00
   -6    4   18     -0.20      0.00
   -6    4   17     -0.11      0.00
   -6    4   16      0.25      0.00
   -6    4   15     -0.09      0.00
   -6    4   14      0.11      0.00
   -6    4   13     -0.27      0.00
   -6    4   12     -0.30      0.00
   -6    4   11      0.13      0.00
   -6    4   10      0.36      0.00
   -6    4    9      0.81      0.00
   -6    4    8      0.92      0.00
   -6    4    7      0.42      0.00
   -6    4    6     -0.45      0.00
   -6    4    5     -1.21      0.00
   -6    4    4     -2.14      0.00
   -6    4    3     -1.79      0.00
   -6    4    2     -1.04      0.00
   -6    4    1     -0.43      0.00
   -6    4    0      1.09      0.00
    6   -4    2      1.92      0.00
    6   -4   10     -1.12      0.00
    6   -4   11      0.06      0.00
    6   -4   12      0.57      0.00
    6   -4   13      0.73      0.00
    6   -4   14      0.98      0.00
    6   -4   15      0.57      0.00
    6   -4   16      0.58      0.00
    6   -4   17      0.41      0.00
    6   -4   18     -0.15      0.00
    6   -4   19     -0.48      0.00
    6   -4   20     -0.14      0.00
    6   -4   21      0.13      0.00
    6   -4   22     -0.01      0.00
    6   -4   23      0.08      0.00
   -6    3   18      0.02      0.00
   -6    3   17      0.30      0.00
   -6    3   16     -0.43      0.00
   -6    3   15     -0.10      0.00
   -6    3   14     -0.20      0.00
   -6    3   13      0.03      0.00
   -6    3   12      0.85      0.00
   -6    3   11      0.55      0.00
   -6    3   10      0.28      0.00
   -6    3    9     -0.23      0.00
   -6    3    8     -1.10      0.00
   -6    3    7     -1.50      0.00
   -6    3    6     -1.43      0.00
   -6    3    5     -1.03      0.00
   -6    3    4      0.52      0.00
   -6    3    3      1.59      0.00
   -6    3    2      1.89      0.00
   -6    3    1      2.48      0.00
   -6    3    0      1.80      0.00
    6   -3    1      0.63      0.00
    6   -3    2     -0.36      0.00
    6   -3    9      1.16      0.00
    6   -3   10      1.96      0.00
    6   -3   11      1.65      0.00
    6   -3   12      1.29      0.00
    6   -3   13      0.84      0.00
    6   -3   14     -0.11      0.00
    6   -3   15     -0.18      0.00
    6   -3   16     -0.76      0.00
    6   -3   17     -1.22      0.00
    6   -3   18     -0.70      0.00
    6   -3   19      0.05      0.00
    6   -3   20      0.31      0.00
    6   -3   21      0.22      0.00
    6   -3   22      0.20      0.00
    6   -3   24     -0.04      0.00
   -6    2   18      0.16      0.00
   -6    2   17     -0.55      0.00
   -6    2   16      0.27      0.00
   -6    2   15      0.31      0.00
   -6    2   14      0.37      0.00
   -6    2   13      0.82      0.00
   -6    2   12     -0.44      0.00
   -6    2   11     -0.85      0.00
   -6    2   10     -1.00      0.00
   -6    2    9     -1.15      0.00
   -6    2    8     -0.42      0.00
   -6    2    7      0.43      0.00
   -6    2    6      1.36      0.00
   -6    2    5      2.48      0.00
   -6    2    4      2.17      0.00
   -6    2    3      1.07      0.00
   -6    2    2      0.45      0.00
   -6    2    1     -1.12      0.00
   -6    2    0     -2.34      0.00
    6   -2    1     -2.49      0.00
    6   -2    2     -2.30      0.00
    6   -2    8      1.45      0.00
    6   -2    9      1.17      0.00
    6   -2   10      0.11      0.00
    6   -2   11     -0.63      0.00
    6   -2   12     -1.30      0.00
    6   -2   13     -1.75      0.00
    6   -2   14     -1.11      0.00
    6   -2   15     -1.20      0.00
    6   -2   16     -0.74      0.00
    6   -2   17      0.54      0.00
    6   -2   18      0.90      0.00
    6   -2   19      0.62      0.00
    6   -2   20      0.32      0.00
    6   -2   21     -0.04      0.00
    6   -2   22     -0.15      0.00
    6   -2   23     -0.15      0.00
    6   -2   24     -0.32      0.00
   -6    1   18     -0.36      0.00
   -6    1   17      0.58      0.00
   -6    1   16      0.17      0.00
   -6    1   15     -0.20      0.00
   -6    1   14      0.00      0.00
   -6    1   13     -1.33      0.00
   -6    1   12     -0.71      0.00
   -6    1   11     -0.03      0.00
   -6    1   10      0.37      0.00
   -6    1    9      1.32      0.00
   -6    1    8      1.61      0.00
   -6    1    7      1.69      0.00
   -6    1    6      1.22      0.00
   -6    1    5     -0.48      0.00
   -6    1    4     -1.89      0.00
   -6    1    3     -2.14      0.00
   -6    1    2     -2.79      0.00
   -6    1    1     -2.30      0.00
   -6    1    0     -0.68      0.00
    6   -1    1      0.56      0.00
    6   -1    2      1.89      0.00
    6   -1    3      2.85      0.00
    6   -1    4      2.56      0.00
    6   -1    9     -1.79      0.00
    6   -1   10     -1.93      0.00
    6   -1   11     -1.62      0.00
    6   -1   12     -0.81      0.00
    6   -1   13      0.34      0.00
    6   -1   14      0.37      0.00
    6   -1   16      1.64      0.00
    6   -1   17      0.83      0.00
    6   -1   18      0.15      0.00
    6   -1   19     -0.04      0.00
    6   -1   20     -0.45      0.00
    6   -1   21     -0.20      0.00
    6   -1   22     -0.11      0.00
    6   -1   23     -0.28      0.00
    6   -1   24      0.40      0.00
    6   -1   25      0.16      0.00
   -6    0   18      0.41      0.00
   -6    0   17     -0.28      0.00
   -6    0   16     -0.41      0.00
   -6    0   15      0.13      0.00
   -6    0   14     -0.67      0.00
   -6    0   13      0.72      0.00
   -6    0   12      1.12      0.00
   -6    0   11      0.89      0.00
   -6    0   10      0.99      0.00
   -6    0    9      0.26      0.00
   -6    0    8     -0.37      0.00
   -6    0    7     -1.49      0.00
   -6    0    6     -2.60      0.00
   -6    0    5     -2.43      0.00
   -6    0    4     -1.18      0.00
   -6    0    3     -0.49      0.00
   -6    0    2      1.13      0.00
   -6    0    1      2.69      0.00
    6    0    0      2.74      0.00
    6    0    1      2.60      0.00
    6    0    2      1.45      0.00
    6    0    3     -0.39      0.00
    6    0    4     -1.77      0.00
    6    0    5     -1.83      0.00
    6    0    6     -1.55      0.00
    6    0    7     -1.48      0.00
    6    0    8     -1.08      0.00
    6    0    9     -0.46      0.00
    6    0   10      0.65      0.00
    6    0   11      1.58      0.00
    6    0   12      1.76      0.00
    6    0   13      1.11      0.00
    6    0   14      1.04      0.00
    6    0   15      0.99      0.00
    6    0   16     -0.29      0.00
    6    0   17     -0.52      0.00
    6    0   18     -0.33      0.00
    6    0   19     -0.72      0.00
    6    0   20     -0.14      0.00
    6    0   21     -0.19      0.00
    6    0   22     -0.25      0.00
    6    0   23      0.61      0.00
    6    0   24     -0.06      0.00
    6    0   25     -0.29      0.00
   -6   -1   18     -0.15      0.00
   -6   -1   17      0.09      0.00
   -6   -1   16      0.54      0.00
   -6   -1   15     -0.32      0.00
   -6   -1   14      0.83      0.00
   -6   -1   13      0.22      0.00
   -6   -1   12     -0.47      0.00
   -6   -1   11     -0.58      0.00
   -6   -1   10     -1.17      0.00
   -6   -1    9     -1.21      0.00
   -6   -1    8     -1.60      0.00
   -6   -1    7     -1.00      0.00
   -6   -1    6      0.47      0.00
   -6   -1    5      1.89      0.00
   -6   -1    4      2.25      0.00
   -6   -1    3      2.83      0.00
   -6   -1    2      2.43      0.00
   -6   -1    1      0.67      0.00
    6    1    0     -0.38      0.00
    6    1    1     -2.03      0.00
    6    1    2     -2.79      0.00
    6    1    3     -2.24      0.00
    6    1    4     -1.07      0.00
    6    1    5     -0.31      0.00
    6    1    6      0.07      0.00
    6    1    7      0.95      0.00
    6    1    8      1.46      0.00
    6    1    9      2.11      0.00
    6    1   10      1.75      0.00
    6    1   11      0.62      0.00
    6    1   12     -0.20      0.00
    6    1   13     -0.41      0.00
    6    1   14     -0.49      0.00
    6    1   15     -1.42      0.00
    6    1   16     -1.00      0.00
    6    1   17     -0.64      0.00
    6    1   18     -1.00      0.00
    6    1   19      0.00      0.00
    6    1   20     -0.06      0.00
    6    1   21      0.20      0.00
    6    1   22      0.99      0.00
    6    1   23     -0.21      0.00
    6    1   24     -0.16      0.00
   -6   -2   18     -0.04      0.00
   -6   -2   17     -0.05      0.00
   -6   -2   16     -0.84      0.00
   -6   -2   15      0.24      0.00
   -6   -2   14     -0.56      0.00
   -6   -2   13     -0.60      0.00
   -6   -2   12     -0.20      0.00
   -6   -2   11     -0.20      0.00
   -6   -2   10      0.27      0.00
   -6   -2    9      0.24      0.00
   -6   -2    8      1.41      0.00
   -6   -2    7      2.08      0.00
   -6   -2    6      2.00      0.00
   -6   -2    5      1.11      0.00
   -6   -2    4      0.28      0.00
   -6   -2    3     -1.11      0.00
   -6   -2    2     -2.55      0.00
   -6   -2    1     -2.47      0.00
    6    2    0     -2.76      0.00
    6    2    1     -1.46      0.00
    6    2    2      0.18      0.00
    6    2    3      1.08      0.00
    6    2    4      1.47      0.00
    6    2    5      1.47      0.00
    6    2    6      1.90      0.00
    6    2    7      1.36      0.00
    6    2    8      0.85      0.00
    6    2    9     -0.56      0.00
    6    2   10     -1.68      0.00
    6    2   11     -1.57      0.00
    6    2   12     -1.39      0.00
    6    2   13     -0.93      0.00
    6    2   14     -1.26      0.00
    6    2   15     -0.35      0.00
    6    2   16      0.15      0.00
    6    2   17      0.01      0.00
    6    2   18      1.32      0.00
    6    2   19      0.94      0.00
    6    2   20      1.01      0.00
    6    2   21      1.02      0.00
    6    2   22     -0.73      0.00
    6    2   23     -0.28      0.00
    6    2   24      0.02      0.00
   -6   -3   18     -0.20      0.00
   -6   -3   17     -0.33      0.00
   -6   -3   16      0.84      0.00
   -6   -3   15      0.05      0.00
   -6   -3   14      0.40      0.00
   -6   -3   13      0.58      0.00
   -6   -3   12      0.42      0.00
   -6   -3   11      0.56      0.00
   -6   -3   10      0.19      0.00
   -6   -3    9      0.95      0.00
   -6   -3    8      0.25      0.00
   -6   -3    7     -0.57      0.00
   -6   -3    6     -1.35      0.00
   -6   -3    5     -2.01      0.00
   -6   -3    4     -2.26      0.00
   -6   -3    3     -1.94      0.00
   -6   -3    2     -0.59      0.00
   -6   -3    1      0.01      0.00
    6    3    0      1.78      0.00
    6    3    1      2.41      0.00
    6    3    2      1.99      0.00
    6    3    3      1.69      0.00
    6    3    4      0.87      0.00
    6    3    5      0.50      0.00
    6    3    6     -0.87      0.00
    6    3    7     -1.59      0.00
    6    3    8     -2.31      0.00
    6    3    9     -1.95      0.00
    6    3   10     -0.63      0.00
    6    3   11     -0.13      0.00
    6    3   12      0.76      0.00
    6    3   13      0.59      0.00
    6    3   14      1.43      0.00
    6    3   15      1.55      0.00
    6    3   16      1.02      0.00
    6    3   17      1.80      0.00
    6    3   18      0.44      0.00
    6    3   19     -0.05      0.00
    6    3   20     -0.62      0.00
    6    3   21     -1.92      0.00
    6    3   22     -0.49      0.00
    6    3   23     -0.05      0.00
    6    3   24     -0.11      0.00
   -6   -4   18      0.43      0.00
   -6   -4   17      0.92      0.00
   -6   -4   16     -0.24      0.00
   -6   -4   15      0.05      0.00
   -6   -4   14     -0.17      0.00
   -6   -4   13     -0.34      0.00
   -6   -4   12     -0.28      0.00
   -6   -4   11     -0.63      0.00
   -6   -4   10      0.04      0.00
   -6   -4    9     -0.96      0.00
   -6   -4    8     -0.99      0.00
   -6   -4    7     -0.80      0.00
   -6   -4    6     -0.81      0.00
   -6   -4    5      0.10      0.00
   -6   -4    4      0.92      0.00
   -6   -4    3      1.82      0.00
   -6   -4    2      1.85      0.00
   -6   -4    1      2.50      0.00
    6    4    0      1.49      0.00
    6    4    1      0.27      0.00
    6    4    2     -0.30      0.00
    6    4    3     -1.43      0.00
    6    4    4     -1.64      0.00
    6    4    5     -2.38      0.00
    6    4    6     -1.74      0.00
    6    4    7     -0.84      0.00
    6    4    8      0.52      0.00
    6    4    9      1.76      0.00
    6    4   10      1.60      0.00
    6    4   11      1.95      0.00
    6    4   12      0.97      0.00
    6    4   13      0.99      0.00
    6    4   14      0.29      0.00
    6    4   15     -0.68      0.00
    6    4   16     -0.22      0.00
    6    4   17     -1.78      0.00
    6    4   18     -1.69      0.00
    6    4   19     -1.47      0.00
    6    4   20     -1.37      0.00
    6    4   21      0.81      0.00
    6    4   22      0.87      0.00
    6    4   23      0.61      0.00
   -6   -5   17     -0.93      0.00
   -6   -5   16     -0.23      0.00
   -6   -5   15     -0.31      0.00
   -6   -5   14     -0.11      0.00
   -6   -5   13     -0.02      0.00
   -6   -5   12     -0.24      0.00
   -6   -5   11      0.43      0.00
   -6   -5   10     -0.34      0.00
   -6   -5    9      0.35      0.00
   -6   -5    8      0.59      0.00
   -6   -5    7      0.38      0.00
   -6   -5    6      1.28      0.00
   -6   -5    5      1.23      0.00
   -6   -5    4      1.05      0.00
   -6   -5    3      0.51      0.00
   -6   -5    2      0.25      0.00
   -6   -5    1     -1.22      0.00
    6    5    0     -1.91      0.00
    6    5    1     -1.89      0.00
    6    5    2     -2.20      0.00
    6    5    3     -1.22      0.00
    6    5    4     -0.75      0.00
    6    5    5      0.91      0.00
    6    5    6      1.89      0.00
    6    5    7      2.17      0.00
    6    5    8      1.93      0.00
    6    5    9      0.64      0.00
    6    5   10      0.23      0.00
    6    5   11     -1.23      0.00
    6    5   12     -1.23      0.00
    6    5   13     -1.60      0.00
    6    5   14     -1.69      0.00
    6    5   15     -0.51      0.00
    6    5   16     -1.39      0.00
    6    5   17     -0.24      0.00
    6    5   18      0.58      0.00
    6    5   19      0.99      0.00
    6    5   20      2.29      0.00
    6    5   21      1.05      0.00
    6    5   22      0.21      0.00
    6    5   23     -0.23      0.00
    6    5   24     -0.76      0.00
   -6   -6   17      0.41      0.00
   -6   -6   16      0.13      0.00
   -6   -6   15      0.18      0.00
   -6   -6   14     -0.01      0.00
   -6   -6   13     -0.20      0.00
   -6   -6   12      0.49      0.00
   -6   -6   11     -0.06      0.00
   -6   -6   10      0.55      0.00
   -6   -6    9      0.18      0.00
   -6   -6    8     -0.30      0.00
   -6   -6    7      0.47      0.00
   -6   -6    6     -0.17      0.00
   -6   -6    5     -0.54      0.00
   -6   -6    4     -0.82      0.00
   -6   -6    3     -1.15      0.00
   -6   -6    2     -1.86      0.00
   -6   -6    1     -1.40      0.00
    6    6    0     -0.58      0.00
    6    6    1      0.03      0.00
    6    6    2      1.43      0.00
    6    6    3      1.74      0.00
    6    6    4      2.55      0.00
    6    6    5      1.81      0.00
    6    6    6      0.51      0.00
    6    6    7     -0.41      0.00
    6    6    8     -1.56      0.00
    6    6    9     -1.45      0.00
    6    6   10     -1.99      0.00
    6    6   11     -0.93      0.00
    6    6   12     -0.31      0.00
    6    6   13      0.38      0.00
    6    6   14      1.40      0.00
    6    6   15      0.33      0.00
    6    6   16      1.40      0.00
    6    6   17      1.46      0.00
    6    6   18      0.98      0.00
    6    6   19      0.99      0.00
    6    6   20     -0.82      0.00
    6    6   21     -1.21      0.00
    6    6   22     -1.05      0.00
    6    6   23     -0.65      0.00
   -6   -7   17     -0.13      0.00
   -6   -7   16     -0.13      0.00
   -6   -7   15     -0.16      0.00
   -6   -7   14      0.06      0.00
   -6   -7   13      0.79      0.00
   -6   -7   12      0.17      0.00
   -6   -7   11      0.21      0.00
   -6   -7   10     -0.38      0.00
   -6   -7    9     -0.51      0.00
   -6   -7    8      0.36      0.00
   -6   -7    7     -0.37      0.00
   -6   -7    6     -0.50      0.00
   -6   -7    5     -0.35      0.00
   -6   -7    4     -0.46      0.00
   -6   -7    3     -0.32      0.00
   -6   -7    2      0.69      0.00
   -6   -7    1      1.46      0.00
    6    7    0      1.78      0.00
    6    7    1      2.02      0.00
    6    7    2      1.13      0.00
    6    7    3      0.65      0.00
    6    7    4     -1.03      0.00
    6    7    5     -1.92      0.00
    6    7    6     -1.69      0.00
    6    7    7     -1.63      0.00
    6    7    8     -0.53      0.00
    6    7    9     -0.26      0.00
    6    7   10      1.01      0.00
    6    7   11      1.41      0.00
    6    7   12      1.36      0.00
    6    7   13      1.06      0.00
    6    7   14     -0.36      0.00
    6    7   15      0.54      0.00
    6    7   16     -0.01      0.00
    6    7   17     -0.66      0.00
    6    7   18     -0.69      0.00
    6    7   19     -1.69      0.00
    6    7   20     -0.91      0.00
    6    7   21     -0.14      0.00
    6    7   22      0.50      0.00
   -6   -8   16      0.37      0.00
   -6   -8   15      0.61      0.00
   -6   -8   14      0.76      0.00
   -6   -8   13     -0.33      0.00
   -6   -8   12     -0.65      0.00
   -6   -8   11     -0.67      0.00
   -6   -8   10     -0.29      0.00
   -6   -8    9      0.47      0.00
   -6   -8    8     -0.31      0.00
   -6   -8    7     -0.34      0.00
   -6   -8    6      0.16      0.00
   -6   -8    5      0.16      0.00
   -6   -8    4      0.55      0.00
   -6   -8    3      1.20      0.00
   -6   -8    2      1.07      0.00
   -6   -8    1      0.46      0.00
    6    8    0     -0.33      0.00
    6    8    1     -1.30      0.00
    6    8    2     -1.57      0.00
    6    8    3     -2.27      0.00
    6    8    4     -1.43      0.00
    6    8    5     -0.16      0.00
    6    8    6      0.27      0.00
    6    8    7      1.21      0.00
    6    8    8      0.96      0.00
    6    8    9      1.33      0.00
    6    8   10      0.94      0.00
    6    8   11      0.07      0.00
    6    8   12     -0.60      0.00
    6    8   13     -1.10      0.00
    6    8   14      0.11      0.00
    6    8   15     -0.53      0.00
    6    8   16     -0.71      0.00
    6    8   17     -0.38      0.00
    6    8   18     -0.62      0.00
    6    8   19      0.52      0.00
    6    8   20      0.84      0.00
    6    8   21      0.84      0.00
    6    8   22      0.37      0.00
   -6   -9   16     -0.12      0.00
   -6   -9   15     -0.52      0.00
   -6   -9   14     -1.41      0.00
   -6   -9   13     -1.12      0.00
   -6   -9   12     -0.15      0.00
   -6   -9   11      0.28      0.00
   -6   -9   10      0.57      0.00
   -6   -9    9     -0.25      0.00
   -6   -9    8     -0.15      0.00
   -6   -9    7      0.66      0.00
   -6   -9    6      0.34      0.00
   -6   -9    5      0.38      0.00
   -6   -9    4      0.41      0.00
   -6   -9    3     -0.41      0.00
   -6   -9    2     -1.08      0.00
   -6   -9    1     -1.37      0.00
    6    9    0     -1.19      0.00
    6    9    1     -0.63      0.00
    6    9    2     -0.28      0.00
    6    9    3      1.12      0.00
    6    9    4      1.66      0.00
    6    9    5      1.22      0.00
    6    9    6      1.22      0.00
    6    9    7      0.22      0.00
    6    9    8      0.20      0.00
    6    9    9     -0.13      0.00
    6    9   10     -0.92      0.00
    6    9   11     -0.87      0.00
    6    9   12     -0.35      0.00
    6    9   13      0.39      0.00
    6    9   14     -0.47      0.00
    6    9   15     -0.29      0.00
    6    9   16      0.07      0.00
    6    9   17      0.10      0.00
    6    9   18      0.87      0.00
    6    9   19      0.44      0.00
    6    9   20      0.12      0.00
    6    9   21     -0.34      0.00
   -6  -10   15     -0.48      0.00
   -6  -10   14      0.44      0.00
   -6  -10   13      1.48      0.00
   -6  -10   12      1.01      0.00
   -6  -10   11      0.70      0.00
   -6  -10   10     -0.02      0.00
   -6  -10    9      0.20      0.00
   -6  -10    8      0.94      0.00
   -6  -10    7     -0.12      0.00
   -6  -10    6     -0.29      0.00
   -6  -10    5     -0.26      0.00
   -6  -10    4     -0.91      0.00
   -6  -10    3     -0.69      0.00
   -6  -10    2     -0.07      0.00
   -6  -10    1      0.57      0.00
    6   10    0      0.93      0.00
    6   10    1      1.09      0.00
    6   10    2      1.54      0.00
    6   10    3      0.81      0.00
    6   10    4     -0.12      0.00
    6   10    5     -0.39      0.00
    6   10    6     -1.08      0.00
    6   10    7     -0.47      0.00
    6   10    8     -0.36      0.00
    6   10    9     -0.96      0.00
    6   10   10     -0.34      0.00
    6   10   11      0.22      0.00
    6   10   12      0.05      0.00
    6   10   13     -0.49      0.00
    6   10   14      0.14      0.00
    6   10   15      0.44      0.00
    6   10   16      0.54      0.00
    6   10   17      0.70      0.00
    6   10   18     -0.08      0.00
    6   10   19     -0.15      0.00
    6   10   20     -0.31      0.00
    6   10   21     -0.12      0.00
   -6  -11   13     -0.18      0.00
   -6  -11   12     -0.46      0.00
   -6  -11   11     -0.70      0.00
   -6  -11   10     -0.32      0.00
   -6  -11    9      0.11      0.00
   -6  -11    8     -1.28      0.00
   -6  -11    7     -0.76      0.00
   -6  -11    6     -0.18      0.00
   -6  -11    5     -0.46      0.00
   -6  -11    4      0.38      0.00
   -6  -11    3      0.84      0.00
   -6  -11    2      0.73      0.00
   -6  -11    1      0.40      0.00
    6   11    0      0.16      0.00
    6   11    1     -0.10      0.00
    6   11    2     -0.90      0.00
    6   11    3     -1.21      0.00
    6   11    4     -0.97      0.00
    6   11    5     -0.77      0.00
    6   11    6      0.27      0.00
    6   11    7      0.17      0.00
    6   11    8     -0.56      0.00
    6   11    9      0.31      0.00
    6   11   10      0.50      0.00
    6   11   11     -0.02      0.00
    6   11   12      0.28      0.00
    6   11   13      0.86      0.00
    6   11   14      0.69      0.00
    6   11   15      0.50      0.00
    6   11   16      0.00      0.00
    6   11   17     -0.60      0.00
    6   11   18     -0.25      0.00
    6   11   19     -0.30      0.00
    6   11   20     -0.08      0.00
   -6  -12   14     -1.34      0.00
   -6  -12   13     -0.86      0.00
   -6  -12   12     -0.55      0.00
   -6  -12   11     -0.18      0.00
   -6  -12   10     -0.05      0.00
   -6  -12    9     -1.01      0.00
   -6  -12    8      0.42      0.00
   -6  -12    7      0.88      0.00
   -6  -12    6      0.32      0.00
   -6  -12    5      0.91      0.00
   -6  -12    4      0.49      0.00
   -6  -12    3     -0.19      0.00
   -6  -12    2     -0.42      0.00
   -6  -12    1     -0.48      0.00
    6   12    0     -0.64      0.00
    6   12    1     -0.69      0.00
    6   12    2     -0.41      0.00
    6   12    3      0.11      0.00
    6   12    4      0.66      0.00
    6   12    5      1.10      0.00
    6   12    6      0.31      0.00
    6   12    7     -0.36      0.00
    6   12    8      0.68      0.00
    6   12    9      0.49      0.00
    6   12   10      0.01      0.00
    6   12   11      0.67      0.00
    6   12   12      0.41      0.00
    6   12   13     -0.19      0.00
    6   12   14     -0.46      0.00
    6   12   15     -1.00      0.00
    6   12   16     -0.78      0.00
    6   12   17     -0.11      0.00
    6   12   18     -0.21      0.00
    6   12   19      0.03      0.00
   -6  -13   13      0.56      0.00
   -6  -13   12      0.54      0.00
   -6  -13   11      0.44      0.00
   -6  -13   10      0.09      0.00
   -6  -13    9      1.47      0.00
   -6  -13    8      0.86      0.00
   -6  -13    7     -0.10      0.00
   -6  -13    6      0.22      0.00
   -6  -13    5     -0.48      0.00
   -6  -13    4     -0.73      0.00
   -6  -13    3     -0.36      0.00
   -6  -13    2     -0.18      0.00
   -6  -13    1     -0.11      0.00
    6   13    0      0.29      0.00
    6   13    1      0.42      0.00
    6   13    2      0.74      0.00
    6   13    3      1.01      0.00
    6   13    4      0.45      0.00
    6   13    5     -0.48      0.00
    6   13    6     -0.63      0.00
    6   13    7      0.48      0.00
    6   13    8     -0.02      0.00
    6   13    9     -0.38      0.00
    6   13   10      0.24      0.00
    6   13   11     -0.57      0.00
    6   13   12     -0.77      0.00
    6   13   13     -0.64      0.00
    6   13   14     -0.70      0.00
    6   13   15      0.20      0.00
    6   13   16      0.55      0.00
    6   13   18      0.41      0.00
   -6  -14   11      0.05      0.00
   -6  -14   10      0.60      0.00
   -6  -14    9     -0.68      0.00
   -6  -14    8     -1.08      0.00
   -6  -14    7     -0.47      0.00
   -6  -14    6     -0.73      0.00
   -6  -14    5     -0.35      0.00
   -6  -14    4      0.16      0.00
   -6  -14    3      0.25      0.00
   -6  -14    2      0.29      0.00
   -6  -14    1      0.60      0.00
    6   14    0      0.21      0.00
    6   14    1      0.33      0.00
    6   14    2      0.20      0.00
    6   14    3     -0.85      0.00
    6   14    4     -1.05      0.00
    6   14    5     -0.59      0.00
    6   14    6      0.36      0.00
    6   14    7     -0.23      0.00
    6   14    8     -0.35      0.00
    6   14    9      0.24      0.00
    6   14   10     -0.55      0.00
    6   14   11     -0.17      0.00
    6   14   12      0.04      0.00
    6   14   13      0.14      0.00
    6   14   14      0.95      0.00
    6   14   15      0.56      0.00
    6   14   16      0.16      0.00
   -6  -15   10     -1.00      0.00
   -6  -15    9     -0.41      0.00
   -6  -15    8      0.25      0.00
   -6  -15    7      0.19      0.00
   -6  -15    6      0.46      0.00
   -6  -15    5      0.54      0.00
   -6  -15    4      0.45      0.00
   -6  -15    3      0.25      0.00
   -6  -15    2      0.24      0.00
   -6  -15    1     -0.46      0.00
    6   15    0     -0.24      0.00
    6   15    1     -0.45      0.00
    6   15    2     -1.20      0.00
    6   15    3     -0.37      0.00
    6   15    4      0.23      0.00
    6   15    5      0.82      0.00
    6   15    6      0.24      0.00
    6   15    8      0.57      0.00
    6   15    9     -0.26      0.00
    6   15   10      0.16      0.00
    6   15   11      0.13      0.00
    6   15   12      0.27      0.00
    6   15   13      0.71      0.00
    6   15   14     -0.07      0.00
    6   15   15     -0.20      0.00
   -6  -16    9      0.61      0.00
   -6  -16    7      0.21      0.00
   -6  -16    6      0.12      0.00
   -6  -16    5      0.06      0.00
   -6  -16    4     -0.36      0.00
   -6  -16    3     -0.38      0.00
   -6  -16    2     -0.80      0.00
   -6  -16    1     -0.13      0.00
    6   16    0     -0.12      0.00
    6   16    1     -0.35      0.00
    6   16    2      0.91      0.00
    6   16    3      0.93      0.00
    6   16    4      0.99      0.00
    6   16    5      0.25      0.00
    6   16    6     -0.10      0.00
    6   16    7      0.09      0.00
    6   16    8     -0.71      0.00
    6   16    9     -0.21      0.00
    6   16   10     -0.06      0.00
    6   16   11      0.26      0.00
    6   16   12      0.36      0.00
    6   16   13     -0.40      0.00
   -6  -17    7     -0.18      0.00
   -6  -17    6     -0.18      0.00
   -6  -17    5     -0.62      0.00
   -6  -17    4     -0.19      0.00
   -6  -17    3     -0.14      0.00
   -6  -17    2      0.67      0.00
   -6  -17    1      0.54      0.00
    6   17    0      0.25      0.00
    6   17    1      1.07      0.00
    6   17    2      0.28      0.00
    6   17    3      0.01      0.00
    6   17    4     -0.75      0.00
    6   17    5     -1.01      0.00
    6   17    6     -0.48      0.00
    6   17    7     -0.84      0.00
    6   17    8      0.03      0.00
    6   17    9      0.44      0.00
    6   17   10      0.48      0.00
    6   17   11      0.13      0.00
   -6  -18    5      0.53      0.00
   -6  -18    4      0.44      0.00
   -6  -18    3      0.76      0.00
   -6  -18    2      0.12      0.00
   -6  -18    1     -0.40      0.00
    6   18    0      0.09      0.00
    6   18    1     -0.79      0.00
    6   18    2     -0.72      0.00
    6   18    3     -0.98      0.00
    6   18    4     -0.64      0.00
    6   18    5      0.32      0.00
    6   18    6      0.15      0.00
    6   18    7      0.92      0.00
    6   18    8      0.90      0.00
    6   18    9      0.22      0.00
    6   19    0     -0.47      0.00
    6   19    1     -0.03      0.00
    6   19    2      0.07      0.00
    6   19    3      0.57      0.00
    6   19    4      1.15      0.00
   -7   18    1     -0.34      0.00
   -7   18    0      0.07      0.00
    7  -18    2      0.67      0.00
   -7   17    7     -0.72      0.00
   -7   17    6     -0.81      0.00
   -7   17    5     -0.85      0.00
   -7   17    4     -0.30      0.00
   -7   17    3     -0.31      0.00
   -7   17    2      0.28      0.00
   -7   17    1      0.87      0.00
   -7   17    0      0.82      0.00
    7  -17    7      0.25      0.00
   -7   16    9     -1.01      0.00
   -7   16    7     -0.65      0.00
   -7   16    6     -0.14      0.00
   -7   16    5      0.75      0.00
   -7   16    4      0.77      0.00
   -7   16    3      1.10      0.00
   -7   16    2      1.14      0.00
   -7   16    1      0.23      0.00
   -7   16    0     -0.52      0.00
    7  -16    1     -0.94      0.00
    7  -16    2     -0.78      0.00
    7  -16    3     -0.22      0.00
    7  -16    5      0.52      0.00
    7  -16    7     -0.13      0.00
    7  -16    8     -0.37      0.00
   -7   15   10     -0.81      0.00
   -7   15    9     -0.28      0.00
   -7   15    8      0.68      0.00
   -7   15    7      1.31      0.00
   -7   15    6      1.60      0.00
   -7   15    5      0.91      0.00
   -7   15    4      0.52      0.00
   -7   15    3     -0.05      0.00
   -7   15    2     -1.21      0.00
   -7   15    1     -1.37      0.00
   -7   15    0     -0.99      0.00
    7  -15    1     -0.25      0.00
    7  -15    2      0.57      0.00
    7  -15    3      0.80      0.00
    7  -15    4      0.50      0.00
    7  -15    5     -0.01      0.00
    7  -15    6     -0.34      0.00
    7  -15    8      0.21      0.00
    7  -15    9      0.53      0.00
   -7   14   12      0.04      0.00
   -7   14   11      0.17      0.00
   -7   14   10      0.88      0.00
   -7   14    9      1.61      0.00
   -7   14    8      1.36      0.00
   -7   14    7      0.45      0.00
   -7   14    6     -0.70      0.00
   -7   14    5     -1.14      0.00
   -7   14    4     -1.39      0.00
   -7   14    3     -1.72      0.00
   -7   14    2     -0.82      0.00
   -7   14    1      0.21      0.00
   -7   14    0      0.95      0.00
    7  -14    1      1.31      0.00
    7  -14    2      0.78      0.00
    7  -14    3      0.16      0.00
    7  -14    4     -0.37      0.00
    7  -14    5     -0.38      0.00
    7  -14    6     -0.02      0.00
    7  -14    7      0.05      0.00
   -7   13   12      0.45      0.00
   -7   13   11      0.75      0.00
   -7   13   10      0.77      0.00
   -7   13    9     -0.42      0.00
   -7   13    8     -1.57      0.00
   -7   13    7     -1.79      0.00
   -7   13    6     -1.36      0.00
   -7   13    5     -0.73      0.00
   -7   13    4     -0.24      0.00
   -7   13    3      1.01      0.00
   -7   13    2      1.67      0.00
   -7   13    1      1.53      0.00
   -7   13    0      0.94      0.00
    7  -13    1     -0.19      0.00
    7  -13    2     -0.71      0.00
    7  -13    3     -0.93      0.00
    7  -13    4     -0.58      0.00
    7  -13    5     -0.19      0.00
    7  -13    6     -0.23      0.00
    7  -13    7     -0.01      0.00
    7  -13   12      0.07      0.00
    7  -13   14     -0.04      0.00
    7  -13   15      0.47      0.00
   -7   12   13      0.17      0.00
   -7   12   12      0.02      0.00
   -7   12   11     -0.31      0.00
   -7   12   10     -1.47      0.00
   -7   12    9     -1.54      0.00
   -7   12    8     -0.42      0.00
   -7   12    7      0.36      0.00
   -7   12    6      1.07      0.00
   -7   12    5      1.31      0.00
   -7   12    4      1.78      0.00
   -7   12    3      1.38      0.00
   -7   12    2      0.23      0.00
   -7   12    1     -0.74      0.00
   -7   12    0     -1.53      0.00
    7  -12    1     -1.24      0.00
    7  -12    2     -0.81      0.00
    7  -12    3     -0.05      0.00
    7  -12    4      0.41      0.00
    7  -12    6      0.79      0.00
    7  -12    7      0.42      0.00
    7  -12   12     -0.19      0.00
    7  -12   14      0.24      0.00
    7  -12   16      0.05      0.00
   -7   11   13     -0.24      0.00
   -7   11   12     -0.36      0.00
   -7   11   11     -0.90      0.00
   -7   11   10      0.05      0.00
   -7   11    9      1.30      0.00
   -7   11    8      1.19      0.00
   -7   11    7      1.26      0.00
   -7   11    6      0.77      0.00
   -7   11    5      0.46      0.00
   -7   11    2     -1.70      0.00
   -7   11    1     -1.34      0.00
   -7   11    0     -0.15      0.00
    7  -11    1      0.52      0.00
    7  -11    2      1.12      0.00
    7  -11    3      1.14      0.00
    7  -11    4      0.77      0.00
    7  -11    5      0.55      0.00
    7  -11    6     -0.31      0.00
    7  -11   13      0.33      0.00
    7  -11   14     -0.04      0.00
    7  -11   15      0.27      0.00
    7  -11   16      0.02      0.00
    7  -11   17     -0.38      0.00
   -7   10   14     -0.26      0.00
   -7   10   13     -0.07      0.00
   -7   10   12     -0.25      0.00
   -7   10   11      0.77      0.00
   -7   10   10      1.08      0.00
   -7   10    9      0.07      0.00
   -7   10    8      0.03      0.00
   -7   10    7     -0.62      0.00
   -7   10    6     -0.89      0.00
   -7   10    5     -1.38      0.00
   -7   10    4     -1.60      0.00
   -7   10    2      0.46      0.00
   -7   10    1      1.42      0.00
   -7   10    0      1.29      0.00
    7  -10    1      1.02      0.00
    7  -10    2      0.35      0.00
    7  -10    4     -0.86      0.00
    7  -10   13     -0.17      0.00
    7  -10   14     -0.06      0.00
    7  -10   15     -0.58      0.00
    7  -10   16     -0.62      0.00
    7  -10   17     -0.42      0.00
   -7    9   15     -0.09      0.00
   -7    9   14      0.14      0.00
   -7    9   13     -0.12      0.00
   -7    9   12      0.54      0.00
   -7    9   11      0.20      0.00
   -7    9   10     -0.71      0.00
   -7    9    8     -0.66      0.00
   -7    9    7     -0.56      0.00
   -7    9    6     -0.43      0.00
   -7    9    5      0.01      0.00
   -7    9    4      1.32      0.00
   -7    9    3      1.55      0.00
   -7    9    2      1.32      0.00
   -7    9    1      0.24      0.00
   -7    9    0     -0.38      0.00
    7   -9    1     -0.94      0.00
    7   -9    3     -0.86      0.00
    7   -9   13     -0.57      0.00
    7   -9   14     -0.65      0.00
    7   -9   15      0.05      0.00
    7   -9   16      0.48      0.00
    7   -9   17      1.14      0.00
    7   -9   18      1.09      0.00
    7   -9   19     -0.16      0.00
   -7    8   15      0.07      0.00
   -7    8   14     -0.17      0.00
   -7    8   13      0.40      0.00
   -7    8   12      0.06      0.00
   -7    8   11     -0.35      0.00
   -7    8   10      0.37      0.00
   -7    8    9     -0.22      0.00
   -7    8    8      0.08      0.00
   -7    8    7      0.40      0.00
   -7    8    6      0.73      0.00
   -7    8    5      1.28      0.00
   -7    8    4      0.38      0.00
   -7    8    3     -0.45      0.00
   -7    8    2     -1.28      0.00
   -7    8    1     -1.10      0.00
   -7    8    0     -0.81      0.00
    7   -8    1     -0.42      0.00
    7   -8   13      0.49      0.00
    7   -8   15      0.82      0.00
    7   -8   16      0.74      0.00
    7   -8   17     -0.27      0.00
    7   -8   18     -1.39      0.00
    7   -8   19     -0.88      0.00
    7   -8   20     -0.30      0.00
   -7    7   16      0.08      0.00
   -7    7   15      0.00      0.00
   -7    7   14      0.48      0.00
   -7    7   13      0.07      0.00
   -7    7   12     -0.29      0.00
   -7    7   11      0.14      0.00
   -7    7   10     -0.52      0.00
   -7    7    9     -0.02      0.00
   -7    7    8      0.23      0.00
   -7    7    7      0.12      0.00
   -7    7    6      0.03      0.00
   -7    7    5     -1.03      0.00
   -7    7    4     -1.18      0.00
   -7    7    3     -0.93      0.00
   -7    7    2      0.04      0.00
   -7    7    1      0.53      0.00
   -7    7    0      0.74      0.00
    7   -7    1      1.19      0.00
    7   -7    2      0.63      0.00
    7   -7   13      0.63      0.00
    7   -7   14     -0.25      0.00
    7   -7   15     -0.42      0.00
    7   -7   16     -1.18      0.00
    7   -7   17     -1.04      0.00
    7   -7   18      0.27      0.00
    7   -7   19      0.58      0.00
    7   -7   20      0.58      0.00
    7   -7   21      0.54      0.00
   -7    6   16      0.11      0.00
   -7    6   15      0.19      0.00
   -7    6   14     -0.33      0.00
   -7    6   13     -0.65      0.00
   -7    6   12     -0.14      0.00
   -7    6   11     -0.39      0.00
   -7    6   10      0.24      0.00
   -7    6    9      0.25      0.00
   -7    6    8     -0.17      0.00
   -7    6    7     -0.22      0.00
   -7    6    6     -0.61      0.00
   -7    6    5      0.05      0.00
   -7    6    4      0.69      0.00
   -7    6    3      1.27      0.00
   -7    6    2      0.92      0.00
   -7    6    1      0.43      0.00
   -7    6    0      0.27      0.00
    7   -6    2     -0.96      0.00
    7   -6   13     -0.90      0.00
    7   -6   14     -0.50      0.00
    7   -6   15     -0.68      0.00
    7   -6   16      0.12      0.00
    7   -6   17      0.87      0.00
    7   -6   18      0.29      0.00
    7   -6   19      0.09      0.00
   -7    5   17     -0.26      0.00
   -7    5   16     -0.29      0.00
   -7    5   15     -0.39      0.00
   -7    5   14     -0.30      0.00
   -7    5   13      0.47      0.00
   -7    5   12      0.33      0.00
   -7    5   11      0.46      0.00
   -7    5   10      0.16      0.00
   -7    5    9     -0.19      0.00
   -7    5    8      0.15      0.00
   -7    5    7      0.26      0.00
   -7    5    6      0.80      0.00
   -7    5    5      0.83      0.00
   -7    5    4      0.49      0.00
   -7    5    3     -0.44      0.00
   -7    5    2     -0.87      0.00
   -7    5    1     -0.74      0.00
   -7    5    0     -1.15      0.00
    7   -5    1     -0.51      0.00
    7   -5   13     -0.09      0.00
    7   -5   14     -0.20      0.00
    7   -5   15      0.49      0.00
    7   -5   16      0.44      0.00
    7   -5   17     -0.14      0.00
    7   -5   18      0.23      0.00
    7   -5   19      0.26      0.00
    7   -5   20     -0.08      0.00
    7   -5   21      0.06      0.00
   -7    4   17     -0.04      0.00
   -7    4   16      0.30      0.00
   -7    4   15      0.28      0.00
   -7    4   14      0.69      0.00
   -7    4   13      0.06      0.00
   -7    4   12     -0.31      0.00
   -7    4   11     -0.24      0.00
   -7    4   10     -0.14      0.00
   -7    4    9      0.41      0.00
   -7    4    8      0.33      0.00
   -7    4    7      0.16      0.00
   -7    4    6     -0.32      0.00
   -7    4    5     -0.86      0.00
   -7    4    4     -1.34      0.00
   -7    4    3     -0.91      0.00
   -7    4    2     -0.22      0.00
   -7    4    1     -0.16      0.00
   -7    4    0      0.82      0.00
    7   -4    1      1.13      0.00
    7   -4    2      0.67      0.00
    7   -4   12      0.40      0.00
    7   -4   13      0.31      0.00
    7   -4   14      0.81      0.00
    7   -4   15      0.44      0.00
    7   -4   16      0.32      0.00
    7   -4   17      0.67      0.00
    7   -4   19     -0.59      0.00
    7   -4   20     -0.47      0.00
   -7    3   17      0.46      0.00
   -7    3   16     -0.13      0.00
   -7    3   15     -0.04      0.00
   -7    3   14     -0.62      0.00
   -7    3   13     -0.57      0.00
   -7    3   12      0.37      0.00
   -7    3   11      0.43      0.00
   -7    3   10      0.46      0.00
   -7    3    9     -0.20      0.00
   -7    3    8     -0.75      0.00
   -7    3    7     -0.86      0.00
   -7    3    6     -0.85      0.00
   -7    3    5     -0.51      0.00
   -7    3    4      0.51      0.00
   -7    3    3      1.06      0.00
   -7    3    2      0.87      0.00
   -7    3    1      1.37      0.00
    7   -3    1     -0.30      0.00
    7   -3    2     -0.53      0.00
    7   -3   12      0.69      0.00
    7   -3   13      0.73      0.00
    7   -3   14      0.05      0.00
    7   -3   15     -0.01      0.00
    7   -3   16     -0.30      0.00
    7   -3   17     -1.32      0.00
    7   -3   18     -1.09      0.00
    7   -3   19     -0.32      0.00
    7   -3   20      0.19      0.00
    7   -3   22      0.41      0.00
    7   -3   23      0.15      0.00
   -7    2   17     -0.68      0.00
   -7    2   16     -0.17      0.00
   -7    2   15     -0.21      0.00
   -7    2   14      0.22      0.00
   -7    2   13      1.12      0.00
   -7    2   12      0.09      0.00
   -7    2   11     -0.48      0.00
   -7    2   10     -1.01      0.00
   -7    2    9     -0.95      0.00
   -7    2    8     -0.15      0.00
   -7    2    7      0.30      0.00
   -7    2    6      0.91      0.00
   -7    2    5      1.58      0.00
   -7    2    4      1.25      0.00
   -7    2    3      0.48      0.00
   -7    2    2      0.40      0.00
   -7    2    0     -1.36      0.00
    7   -2    1     -0.81      0.00
    7   -2    2     -0.59      0.00
    7   -2    3     -0.21      0.00
    7   -2   10      0.04      0.00
    7   -2   11     -0.24      0.00
    7   -2   12     -0.57      0.00
    7   -2   13     -1.04      0.00
    7   -2   14     -0.80      0.00
    7   -2   15     -1.05      0.00
    7   -2   16     -1.17      0.00
    7   -2   17      0.26      0.00
    7   -2   18      1.01      0.00
    7   -2   19      1.03      0.00
    7   -2   20      0.78      0.00
    7   -2   21      0.01      0.00
    7   -2   23     -0.04      0.00
   -7    1   17      0.38      0.00
   -7    1   16      0.29      0.00
   -7    1   15      0.33      0.00
   -7    1   14      0.50      0.00
   -7    1   13     -1.15      0.00
   -7    1   12     -0.99      0.00
   -7    1   11     -0.43      0.00
   -7    1   10      0.38      0.00
   -7    1    9      1.32      0.00
   -7    1    8      1.20      0.00
   -7    1    7      1.23      0.00
   -7    1    6      0.90      0.00
   -7    1    5     -0.24      0.00
   -7    1    4     -1.08      0.00
   -7    1    3     -1.13      0.00
   -7    1    2     -1.87      0.00
   -7    1    1     -1.22      0.00
   -7    1    0     -0.03      0.00
    7   -1    1      0.17      0.00
    7   -1    2      0.80      0.00
    7   -1    3      0.83      0.00
    7   -1    4      0.79      0.00
    7   -1    8     -0.92      0.00
    7   -1   11     -0.91      0.00
    7   -1   12     -0.58      0.00
    7   -1   13     -0.03      0.00
    7   -1   15      0.46      0.00
    7   -1   16      1.69      0.00
    7   -1   17      1.12      0.00
    7   -1   18      0.35      0.00
    7   -1   19     -0.15      0.00
    7   -1   20     -0.86      0.00
    7   -1   21     -0.30      0.00
    7   -1   22     -0.14      0.00
    7   -1   23     -0.41      0.00
    7   -1   24      0.08      0.00
   -7    0   17      0.09      0.00
   -7    0   16     -0.10      0.00
   -7    0   15     -0.01      0.00
   -7    0   14     -1.08      0.00
   -7    0   13      0.30      0.00
   -7    0   12      1.10      0.00
   -7    0   11      1.24      0.00
   -7    0   10      1.10      0.00
   -7    0    9      0.03      0.00
   -7    0    8     -0.35      0.00
   -7    0    7     -1.10      0.00
   -7    0    6     -1.87      0.00
   -7    0    5     -1.77      0.00
   -7    0    4     -1.07      0.00
   -7    0    3     -0.78      0.00
   -7    0    2      0.72      0.00
   -7    0    1      1.56      0.00
    7    0    0      1.13      0.00
    7    0    1      1.40      0.00
    7    0    2      0.51      0.00
    7    0    3     -0.09      0.00
    7    0    4     -0.53      0.00
    7    0    5     -0.64      0.00
    7    0    6     -0.58      0.00
    7    0    7     -0.82      0.00
    7    0    8     -0.10      0.00
    7    0    9     -0.08      0.00
    7    0   10      0.24      0.00
    7    0   11      0.85      0.00
    7    0   12      0.91      0.00
    7    0   13      0.71      0.00
    7    0   14      0.91      0.00
    7    0   15      1.17      0.00
    7    0   16     -0.27      0.00
    7    0   17     -0.69      0.00
    7    0   18     -0.60      0.00
    7    0   19     -0.83      0.00
    7    0   20      0.18      0.00
    7    0   21     -0.12      0.00
    7    0   22     -0.36      0.00
    7    0   23      0.45      0.00
   -7   -1   17     -0.08      0.00
   -7   -1   16      0.14      0.00
   -7   -1   15     -0.44      0.00
   -7   -1   14      0.96      0.00
   -7   -1   13      0.62      0.00
   -7   -1   12     -0.23      0.00
   -7   -1   11     -0.79      0.00
   -7   -1   10     -1.46      0.00
   -7   -1    9     -1.13      0.00
   -7   -1    8     -1.28      0.00
   -7   -1    7     -0.85      0.00
   -7   -1    6      0.13      0.00
   -7   -1    5      1.10      0.00
   -7   -1    4      1.59      0.00
   -7   -1    3      2.36      0.00
   -7   -1    2      1.75      0.00
   -7   -1    1      0.48      0.00
    7    1    0      0.30      0.00
    7    1    1     -1.06      0.00
    7    1    2     -1.15      0.00
    7    1    3     -0.85      0.00
    7    1    4     -0.55      0.00
    7    1    5     -0.09      0.00
    7    1    7      0.70      0.00
    7    1    8      0.50      0.00
    7    1    9      0.79      0.00
    7    1   10      0.93      0.00
    7    1   11      0.21      0.00
    7    1   12     -0.01      0.00
    7    1   13     -0.07      0.00
    7    1   14     -0.21      0.00
    7    1   15     -1.35      0.00
    7    1   16     -0.84      0.00
    7    1   17     -0.40      0.00
    7    1   18     -0.63      0.00
    7    1   19      0.37      0.00
    7    1   20     -0.32      0.00
    7    1   21     -0.04      0.00
    7    1   22      0.97      0.00
    7    1   23      0.11      0.00
   -7   -2   17     -0.14      0.00
   -7   -2   16     -0.55      0.00
   -7   -2   15      0.38      0.00
   -7   -2   14     -0.53      0.00
   -7   -2   13     -0.91      0.00
   -7   -2   12     -0.58      0.00
   -7   -2   11     -0.24      0.00
   -7   -2   10      0.51      0.00
   -7   -2    9      0.47      0.00
   -7   -2    8      1.25      0.00
   -7   -2    7      1.65      0.00
   -7   -2    6      1.73      0.00
   -7   -2    5      1.36      0.00
   -7   -2    4      0.63      0.00
   -7   -2    3     -0.79      0.00
   -7   -2    2     -1.73      0.00
   -7   -2    1     -1.46      0.00
    7    2    0     -2.09      0.00
    7    2    1     -0.94      0.00
    7    2    2     -0.12      0.00
    7    2    3      0.15      0.00
    7    2    4      0.60      0.00
    7    2    5      0.38      0.00
    7    2    6      0.98      0.00
    7    2    7      0.37      0.00
    7    2    8      0.34      0.00
    7    2    9     -0.10      0.00
    7    2   10     -0.96      0.00
    7    2   11     -0.67      0.00
    7    2   12     -0.75      0.00
    7    2   13     -0.68      0.00
    7    2   14     -1.12      0.00
    7    2   15     -0.09      0.00
    7    2   16      0.21      0.00
    7    2   17     -0.10      0.00
    7    2   18      0.99      0.00
    7    2   19      0.24      0.00
    7    2   20      0.91      0.00
    7    2   21      1.27      0.00
    7    2   22     -0.41      0.00
    7    2   23     -0.24      0.00
   -7   -3   17     -0.21      0.00
   -7   -3   16      0.53      0.00
   -7   -3   15     -0.13      0.00
   -7   -3   14      0.26      0.00
   -7   -3   13      0.75      0.00
   -7   -3   12      0.82      0.00
   -7   -3   11      0.79      0.00
   -7   -3   10      0.26      0.00
   -7   -3    9      0.70      0.00
   -7   -3    8      0.11      0.00
   -7   -3    7     -0.32      0.00
   -7   -3    6     -0.93      0.00
   -7   -3    5     -1.87      0.00
   -7   -3    4     -2.18      0.00
   -7   -3    3     -1.69      0.00
   -7   -3    2     -0.63      0.00
   -7   -3    1     -0.39      0.00
    7    3    0      1.13      0.00
    7    3    1      1.37      0.00
    7    3    2      1.06      0.00
    7    3    3      1.14      0.00
    7    3    4      0.51      0.00
    7    3    5      0.68      0.00
    7    3    6     -0.36      0.00
    7    3    7     -0.54      0.00
    7    3    8     -0.92      0.00
    7    3    9     -1.12      0.00
    7    3   10     -0.18      0.00
    7    3   11     -0.23      0.00
    7    3   12      0.26      0.00
    7    3   13      0.26      0.00
    7    3   14      1.19      0.00
    7    3   15      1.04      0.00
    7    3   16      0.56      0.00
    7    3   17      1.46      0.00
    7    3   18      0.24      0.00
    7    3   19      0.53      0.00
    7    3   20     -0.10      0.00
    7    3   21     -1.79      0.00
    7    3   23     -0.49      0.00
    7    3   24     -0.09      0.00
   -7   -4   16      0.08      0.00
   -7   -4   15      0.39      0.00
   -7   -4   14      0.15      0.00
   -7   -4   13     -0.26      0.00
   -7   -4   12     -0.56      0.00
   -7   -4   11     -0.78      0.00
   -7   -4   10     -0.20      0.00
   -7   -4    9     -0.92      0.00
   -7   -4    8     -0.75      0.00
   -7   -4    7     -0.81      0.00
   -7   -4    6     -1.06      0.00
   -7   -4    5      0.01      0.00
   -7   -4    4      0.88      0.00
   -7   -4    3      1.54      0.00
   -7   -4    2      1.53      0.00
   -7   -4    1      2.02      0.00
    7    4    0      1.18      0.00
    7    4    1      0.40      0.00
    7    4    2      0.16      0.00
    7    4    3     -0.64      0.00
    7    4    4     -0.60      0.00
    7    4    5     -1.43      0.00
    7    4    6     -0.97      0.00
    7    4    7     -0.62      0.00
    7    4    8     -0.06      0.00
    7    4    9      0.97      0.00
    7    4   10      0.62      0.00
    7    4   11      1.14      0.00
    7    4   12      0.80      0.00
    7    4   13      0.97      0.00
    7    4   14      0.14      0.00
    7    4   15     -0.54      0.00
    7    4   16      0.12      0.00
    7    4   17     -1.38      0.00
    7    4   18     -0.98      0.00
    7    4   19     -1.39      0.00
    7    4   20     -1.76      0.00
    7    4   21      0.43      0.00
    7    4   22      0.58      0.00
    7    4   23      0.86      0.00
    7    4   24      0.84      0.00
   -7   -5   16     -0.22      0.00
   -7   -5   15     -0.60      0.00
   -7   -5   14     -0.53      0.00
   -7   -5   13     -0.33      0.00
   -7   -5   12     -0.05      0.00
   -7   -5   11      0.45      0.00
   -7   -5   10     -0.22      0.00
   -7   -5    9      0.40      0.00
   -7   -5    8      0.39      0.00
   -7   -5    7      0.28      0.00
   -7   -5    6      1.41      0.00
   -7   -5    5      1.25      0.00
   -7   -5    4      0.94      0.00
   -7   -5    3      0.47      0.00
   -7   -5    2      0.07      0.00
   -7   -5    1     -0.88      0.00
    7    5    0     -1.31      0.00
    7    5    1     -1.32      0.00
    7    5    2     -1.53      0.00
    7    5    3     -0.99      0.00
    7    5    4     -0.94      0.00
    7    5    5      0.29      0.00
    7    5    6      0.79      0.00
    7    5    7      1.11      0.00
    7    5    8      1.30      0.00
    7    5    9      0.31      0.00
    7    5   10      0.50      0.00
    7    5   11     -0.43      0.00
    7    5   12     -0.72      0.00
    7    5   13     -1.38      0.00
    7    5   14     -1.37      0.00
    7    5   15     -0.30      0.00
    7    5   16     -1.30      0.00
    7    5   17     -0.15      0.00
    7    5   18      0.06      0.00
    7    5   20      2.21      0.00
    7    5   21      1.11      0.00
    7    5   22      0.64      0.00
   -7   -6   16     -0.33      0.00
   -7   -6   15      0.13      0.00
   -7   -6   14      0.25      0.00
   -7   -6   13      0.28      0.00
   -7   -6   12      0.34      0.00
   -7   -6   11     -0.20      0.00
   -7   -6   10      0.46      0.00
   -7   -6    9      0.13      0.00
   -7   -6    8     -0.11      0.00
   -7   -6    7      0.63      0.00
   -7   -6    6     -0.24      0.00
   -7   -6    5     -0.61      0.00
   -7   -6    4     -0.78      0.00
   -7   -6    3     -1.14      0.00
   -7   -6    2     -1.29      0.00
   -7   -6    1     -1.06      0.00
    7    6    0     -0.60      0.00
    7    6    1     -0.05      0.00
    7    6    2      0.68      0.00
    7    6    3      1.01      0.00
    7    6    4      1.81      0.00
    7    6    5      1.22      0.00
    7    6    6      0.69      0.00
    7    6    7      0.11      0.00
    7    6    8     -0.88      0.00
    7    6    9     -0.48      0.00
    7    6   10     -1.27      0.00
    7    6   11     -0.98      0.00
    7    6   12     -0.66      0.00
    7    6   13      0.18      0.00
    7    6   14      1.19      0.00
    7    6   15      0.18      0.00
    7    6   16      1.30      0.00
    7    6   17      1.07      0.00
    7    6   18      0.92      0.00
    7    6   19      1.33      0.00
    7    6   20     -0.63      0.00
    7    6   21     -0.88      0.00
    7    6   22     -1.06      0.00
   -7   -7   16      0.40      0.00
   -7   -7   15      0.20      0.00
   -7   -7   14      0.11      0.00
   -7   -7   13      0.22      0.00
   -7   -7   12      0.06      0.00
   -7   -7   11      0.45      0.00
   -7   -7   10     -0.11      0.00
   -7   -7    9     -0.30      0.00
   -7   -7    8      0.30      0.00
   -7   -7    7     -0.49      0.00
   -7   -7    6     -0.49      0.00
   -7   -7    5     -0.26      0.00
   -7   -7    4     -0.43      0.00
   -7   -7    3      0.01      0.00
   -7   -7    2      0.42      0.00
   -7   -7    1      0.93      0.00
    7    7    0      1.45      0.00
    7    7    1      1.37      0.00
    7    7    2      1.11      0.00
    7    7    3      0.76      0.00
    7    7    4     -0.60      0.00
    7    7    5     -0.92      0.00
    7    7    6     -1.13      0.00
    7    7    7     -1.20      0.00
    7    7    8     -0.22      0.00
    7    7    9     -0.64      0.00
    7    7   10      0.16      0.00
    7    7   11      0.80      0.00
    7    7   12      1.21      0.00
    7    7   13      1.15      0.00
    7    7   14     -0.22      0.00
    7    7   15      0.59      0.00
    7    7   16     -0.11      0.00
    7    7   17     -0.49      0.00
    7    7   18     -0.41      0.00
    7    7   19     -1.73      0.00
    7    7   20     -0.82      0.00
    7    7   21     -0.33      0.00
    7    7   22      0.16      0.00
   -7   -8   15      0.23      0.00
   -7   -8   14      0.35      0.00
   -7   -8   13      0.09      0.00
   -7   -8   12     -0.14      0.00
   -7   -8   11     -0.62      0.00
   -7   -8   10     -0.53      0.00
   -7   -8    9      0.14      0.00
   -7   -8    8     -0.39      0.00
   -7   -8    7     -0.35      0.00
   -7   -8    6      0.12      0.00
   -7   -8    5      0.01      0.00
   -7   -8    4      0.57      0.00
   -7   -8    3      0.79      0.00
   -7   -8    2      0.82      0.00
   -7   -8    1      0.67      0.00
    7    8    0     -0.26      0.00
    7    8    1     -0.70      0.00
    7    8    2     -1.22      0.00
    7    8    3     -1.81      0.00
    7    8    4     -0.90      0.00
    7    8    5     -0.52      0.00
    7    8    6      0.01      0.00
    7    8    7      0.81      0.00
    7    8    8      0.09      0.00
    7    8    9      0.73      0.00
    7    8   10      0.94      0.00
    7    8   11      0.49      0.00
    7    8   12     -0.12      0.00
    7    8   13     -0.91      0.00
    7    8   14      0.06      0.00
    7    8   15     -0.58      0.00
    7    8   16     -0.62      0.00
    7    8   17     -0.32      0.00
    7    8   18     -0.78      0.00
    7    8   19      0.57      0.00
    7    8   20      0.69      0.00
    7    8   21      0.67      0.00
   -7   -9   14     -0.78      0.00
   -7   -9   13     -1.04      0.00
   -7   -9   12     -0.69      0.00
   -7   -9   11     -0.16      0.00
   -7   -9   10      0.51      0.00
   -7   -9    9     -0.04      0.00
   -7   -9    8     -0.14      0.00
   -7   -9    7      0.63      0.00
   -7   -9    6      0.33      0.00
   -7   -9    5      0.62      0.00
   -7   -9    4      0.44      0.00
   -7   -9    3     -0.19      0.00
   -7   -9    2     -0.61      0.00
   -7   -9    1     -1.32      0.00
    7    9    0     -0.98      0.00
    7    9    1     -0.78      0.00
    7    9    2     -0.29      0.00
    7    9    3      0.97      0.00
    7    9    4      0.85      0.00
    7    9    5      1.02      0.00
    7    9    6      0.94      0.00
    7    9    7     -0.17      0.00
    7    9    8      0.46      0.00
    7    9    9      0.46      0.00
    7    9   10     -0.23      0.00
    7    9   11     -0.46      0.00
    7    9   12     -0.48      0.00
    7    9   13      0.19      0.00
    7    9   14     -0.52      0.00
    7    9   15     -0.34      0.00
    7    9   16      0.02      0.00
    7    9   17     -0.01      0.00
    7    9   18      0.96      0.00
    7    9   19      0.36      0.00
    7    9   20      0.05      0.00
    7    9   21     -0.08      0.00
   -7  -10   14     -0.02      0.00
   -7  -10   13      0.92      0.00
   -7  -10   12      1.11      0.00
   -7  -10   11      1.13      0.00
   -7  -10   10      0.23      0.00
   -7  -10    9      0.07      0.00
   -7  -10    8      0.99      0.00
   -7  -10    7      0.07      0.00
   -7  -10    6      0.01      0.00
   -7  -10    5     -0.31      0.00
   -7  -10    4     -1.03      0.00
   -7  -10    3     -0.68      0.00
   -7  -10    2     -0.51      0.00
   -7  -10    1      0.39      0.00
    7   10    0      0.77      0.00
    7   10    1      1.11      0.00
    7   10    2      1.38      0.00
    7   10    3      0.39      0.00
    7   10    4      0.24      0.00
    7   10    5     -0.29      0.00
    7   10    6     -0.96      0.00
    7   10    7      0.16      0.00
    7   10    8      0.15      0.00
    7   10    9     -0.58      0.00
    7   10   10     -0.48      0.00
    7   10   11     -0.43      0.00
    7   10   12     -0.34      0.00
    7   10   13     -0.66      0.00
    7   10   14     -0.07      0.00
    7   10   15      0.44      0.00
    7   10   16      0.58      0.00
    7   10   17      0.84      0.00
    7   10   18     -0.12      0.00
    7   10   19     -0.19      0.00
    7   10   20     -0.12      0.00
   -7  -11   13      0.34      0.00
   -7  -11   12     -0.17      0.00
   -7  -11   11     -0.88      0.00
   -7  -11   10     -0.61      0.00
   -7  -11    9      0.28      0.00
   -7  -11    8     -1.08      0.00
   -7  -11    7     -0.79      0.00
   -7  -11    6     -0.62      0.00
   -7  -11    5     -0.79      0.00
   -7  -11    4      0.45      0.00
   -7  -11    3      0.65      0.00
   -7  -11    2      0.95      0.00
   -7  -11    1      0.70      0.00
    7   11    0      0.26      0.00
    7   11    1     -0.20      0.00
    7   11    2     -0.98      0.00
    7   11    3     -0.73      0.00
    7   11    4     -0.95      0.00
    7   11    5     -0.69      0.00
    7   11    6      0.61      0.00
    7   11    7      0.16      0.00
    7   11    8     -0.74      0.00
    7   11    9     -0.46      0.00
    7   11   10     -0.37      0.00
    7   11   11     -0.17      0.00
    7   11   12      0.41      0.00
    7   11   13      1.05      0.00
    7   11   14      1.17      0.00
    7   11   15      0.81      0.00
    7   11   16      0.15      0.00
    7   11   17     -0.66      0.00
    7   11   18     -0.32      0.00
    7   11   19     -0.16      0.00
   -7  -12   12     -0.85      0.00
   -7  -12   11     -0.18      0.00
   -7  -12   10      0.36      0.00
   -7  -12    9     -0.95      0.00
   -7  -12    8      0.07      0.00
   -7  -12    7      0.51      0.00
   -7  -12    6      0.43      0.00
   -7  -12    5      1.41      0.00
   -7  -12    4      0.52      0.00
   -7  -12    3      0.05      0.00
   -7  -12    2     -0.34      0.00
   -7  -12    1     -0.81      0.00
    7   12    0     -0.81      0.00
    7   12    1     -0.66      0.00
    7   12    2     -0.12      0.00
    7   12    3     -0.07      0.00
    7   12    4      0.59      0.00
    7   12    5      1.20      0.00
    7   12    6      0.08      0.00
    7   12    7     -0.73      0.00
    7   12    8     -0.01      0.00
    7   12    9      0.35      0.00
    7   12   10      0.80      0.00
    7   12   11      1.42      0.00
    7   12   12      0.97      0.00
    7   12   13      0.27      0.00
    7   12   14     -0.55      0.00
    7   12   15     -1.30      0.00
    7   12   16     -1.11      0.00
    7   12   17     -0.30      0.00
    7   12   18     -0.11      0.00
   -7  -13   11      0.64      0.00
   -7  -13   10     -0.28      0.00
   -7  -13    9      0.97      0.00
   -7  -13    8      0.88      0.00
   -7  -13    7      0.33      0.00
   -7  -13    6      0.53      0.00
   -7  -13    5     -0.84      0.00
   -7  -13    4     -0.83      0.00
   -7  -13    3     -0.49      0.00
   -7  -13    2     -0.46      0.00
   -7  -13    1      0.11      0.00
    7   13    0      0.53      0.00
    7   13    1      0.57      0.00
    7   13    2      0.55      0.00
    7   13    3      0.95      0.00
    7   13    4      0.55      0.00
    7   13    5     -0.66      0.00
    7   13    6     -0.86      0.00
    7   13    7      0.34      0.00
    7   13    8      0.68      0.00
    7   13    9      0.70      0.00
    7   13   10      0.53      0.00
    7   13   11     -0.81      0.00
    7   13   12     -1.26      0.00
    7   13   13     -1.44      0.00
    7   13   14     -1.24      0.00
    7   13   15     -0.01      0.00
    7   13   16      0.60      0.00
    7   13   17      0.48      0.00
   -7  -14   10      0.52      0.00
   -7  -14    9     -0.12      0.00
   -7  -14    8     -0.72      0.00
   -7  -14    7     -0.57      0.00
   -7  -14    6     -1.14      0.00
   -7  -14    5     -0.19      0.00
   -7  -14    4      0.39      0.00
   -7  -14    3      0.31      0.00
   -7  -14    2      0.64      0.00
   -7  -14    1      0.55      0.00
    7   14    0      0.02      0.00
    7   14    1      0.06      0.00
    7   14    2      0.14      0.00
    7   14    3     -0.70      0.00
    7   14    4     -1.18      0.00
    7   14    5     -0.66      0.00
    7   14    6      0.59      0.00
    7   14    7      0.48      0.00
    7   14    8     -0.12      0.00
    7   14    9     -0.56      0.00
    7   14   10     -1.43      0.00
    7   14   11     -0.76      0.00
    7   14   12     -0.22      0.00
    7   14   13      0.41      0.00
    7   14   14      1.41      0.00
    7   14   15      1.01      0.00
    7   14   16      0.50      0.00
   -7  -15    9     -0.55      0.00
   -7  -15    8     -0.08      0.00
   -7  -15    7      0.08      0.00
   -7  -15    6      0.83      0.00
   -7  -15    5      0.69      0.00
   -7  -15    4      0.17      0.00
   -7  -15    3      0.11      0.00
   -7  -15    2     -0.17      0.00
   -7  -15    1     -0.61      0.00
    7   15    0     -0.21      0.00
    7   15    1     -0.25      0.00
    7   15    2     -0.91      0.00
    7   15    3     -0.48      0.00
    7   15    4      0.26      0.00
    7   15    5      1.08      0.00
    7   15    6      0.43      0.00
    7   15    7     -0.36      0.00
    7   15    8     -0.32      0.00
    7   15    9     -0.41      0.00
    7   15   10      0.60      0.00
    7   15   11      0.80      0.00
    7   15   12      0.91      0.00
    7   15   13      1.05      0.00
    7   15   14      0.05      0.00
   -7  -16    7      0.37      0.00
   -7  -16    6     -0.14      0.00
   -7  -16    5     -0.45      0.00
   -7  -16    4     -0.38      0.00
   -7  -16    3     -0.30      0.00
   -7  -16    2     -0.42      0.00
   -7  -16    1      0.19      0.00
    7   16    0      0.07      0.00
    7   16    1     -0.28      0.00
    7   16    2      0.57      0.00
    7   16    3      0.88      0.00
    7   16    4      1.04      0.00
    7   16    5      0.07      0.00
    7   16    6     -0.55      0.00
    7   16    7     -0.03      0.00
    7   16    8     -0.02      0.00
    7   16    9      0.49      0.00
    7   16   10      0.21      0.00
    7   16   12     -0.02      0.00
    7   16   13     -0.71      0.00
   -7  -17    4      0.21      0.00
   -7  -17    3      0.05      0.00
   -7  -17    2      0.54      0.00
   -7  -17    1      0.27      0.00
    7   17    0     -0.01      0.00
    7   17    1      0.70      0.00
    7   17    2      0.37      0.00
    7   17    3      0.12      0.00
    7   17    4     -0.76      0.00
    7   17    5     -0.96      0.00
    7   17    6     -0.15      0.00
    7   17    7     -0.30      0.00
    7   17    8     -0.03      0.00
    7   17    9     -0.10      0.00
    7   17   10     -0.09      0.00
   -7  -18    1     -0.37      0.00
    7   18    0      0.17      0.00
    7   18    1     -0.40      0.00
    7   18    2     -0.53      0.00
    7   18    3     -0.89      0.00
    7   18    4     -0.57      0.00
    7   18    5      0.35      0.00
    7   18    6      0.09      0.00
    7   18    7      0.41      0.00
   -8   17    2     -0.17      0.00
   -8   17    1      0.25      0.00
   -8   17    0      0.67      0.00
   -8   16    5      0.31      0.00
   -8   16    4      0.40      0.00
   -8   16    3      0.46      0.00
   -8   16    1      0.66      0.00
   -8   16    0      0.11      0.00
    8  -16    1     -0.39      0.00
    8  -16    2     -0.65      0.00
   -8   15    7      0.63      0.00
   -8   15    6      1.25      0.00
   -8   15    5      0.93      0.00
   -8   15    4      0.54      0.00
   -8   15    3      0.52      0.00
   -8   15    2     -0.30      0.00
   -8   15    1     -0.79      0.00
   -8   15    0     -0.93      0.00
    8  -15    1     -0.74      0.00
    8  -15    2     -0.07      0.00
    8  -15    3      0.34      0.00
   -8   14   10      0.10      0.00
   -8   14    9      0.94      0.00
   -8   14    8      1.24      0.00
   -8   14    7      0.95      0.00
   -8   14    6     -0.05      0.00
   -8   14    5     -0.74      0.00
   -8   14    4     -0.74      0.00
   -8   14    3     -1.29      0.00
   -8   14    2     -1.08      0.00
   -8   14    1     -0.58      0.00
   -8   14    0      0.03      0.00
    8  -14    1      0.83      0.00
    8  -14    3      0.60      0.00
    8  -14    4      0.11      0.00
   -8   13   10      0.80      0.00
   -8   13    9      0.33      0.00
   -8   13    8     -0.72      0.00
   -8   13    7     -1.48      0.00
   -8   13    6     -1.50      0.00
   -8   13    5     -0.72      0.00
   -8   13    4     -0.62      0.00
   -8   13    3      0.11      0.00
   -8   13    2      0.75      0.00
   -8   13    1      1.15      0.00
   -8   13    0      1.37      0.00
    8  -13    1      0.52      0.00
    8  -13    2      0.02      0.00
    8  -13    4     -0.70      0.00
   -8   12   13     -0.20      0.00
   -8   12   12      0.03      0.00
   -8   12   11      0.64      0.00
   -8   12   10     -0.47      0.00
   -8   12    9     -1.28      0.00
   -8   12    8     -0.90      0.00
   -8   12    7     -0.15      0.00
   -8   12    6      0.92      0.00
   -8   12    5      0.83      0.00
   -8   12    4      1.18      0.00
   -8   12    3      1.29      0.00
   -8   12    2      0.95      0.00
   -8   12    0     -0.83      0.00
    8  -12    1     -0.99      0.00
    8  -12    3     -0.56      0.00
   -8   11   13      0.42      0.00
   -8   11   12      0.60      0.00
   -8   11   11     -0.74      0.00
   -8   11   10     -0.69      0.00
   -8   11    9      0.44      0.00
   -8   11    8      0.91      0.00
   -8   11    7      1.30      0.00
   -8   11    6      0.48      0.00
   -8   11    5      0.38      0.00
   -8   11    4      0.16      0.00
   -8   11    3     -0.56      0.00
   -8   11    2     -1.10      0.00
   -8   11    1     -1.64      0.00
   -8   11    0     -0.80      0.00
    8  -11    1     -0.27      0.00
    8  -11    2      0.52      0.00
    8  -11    3      0.97      0.00
   -8   10   14      0.03      0.00
   -8   10   13     -0.08      0.00
   -8   10   12     -1.16      0.00
   -8   10   11     -0.31      0.00
   -8   10   10      0.66      0.00
   -8   10    9      0.31      0.00
   -8   10    8      0.23      0.00
   -8   10    7     -0.70      0.00
   -8   10    6     -0.51      0.00
   -8   10    5     -0.54      0.00
   -8   10    4     -1.09      0.00
   -8   10    3     -0.93      0.00
   -8   10    2     -0.55      0.00
   -8   10    1      0.73      0.00
   -8   10    0      0.96      0.00
    8  -10    1      1.09      0.00
    8  -10    2      0.79      0.00
   -8    9   14     -0.36      0.00
   -8    9   13     -0.92      0.00
   -8    9   12      0.31      0.00
   -8    9   11      0.73      0.00
   -8    9   10     -0.02      0.00
   -8    9    9      0.12      0.00
   -8    9    8     -0.46      0.00
   -8    9    7      0.06      0.00
   -8    9    6      0.06      0.00
   -8    9    5     -0.34      0.00
   -8    9    4      0.33      0.00
   -8    9    3      0.81      0.00
   -8    9    2      1.40      0.00
   -8    9    1      0.65      0.00
   -8    9    0      0.15      0.00
    8   -9    1     -0.32      0.00
   -8    8   15     -0.06      0.00
   -8    8   14     -0.20      0.00
   -8    8   13      0.99      0.00
   -8    8   12      0.85      0.00
   -8    8   11      0.10      0.00
   -8    8   10      0.42      0.00
   -8    8    9     -0.19      0.00
   -8    8    8      0.23      0.00
   -8    8    7      0.04      0.00
   -8    8    6     -0.27      0.00
   -8    8    5      0.54      0.00
   -8    8    4      0.47      0.00
   -8    8    3      0.26      0.00
   -8    8    2     -0.71      0.00
   -8    8    0     -0.61      0.00
    8   -8    1     -0.61      0.00
   -8    7   15      0.18      0.00
   -8    7   14      0.96      0.00
   -8    7   13      0.31      0.00
   -8    7   12     -0.45      0.00
   -8    7   11     -0.25      0.00
   -8    7   10     -0.90      0.00
   -8    7    9     -0.38      0.00
   -8    7    8     -0.45      0.00
   -8    7    7     -0.50      0.00
   -8    7    6      0.27      0.00
   -8    7    5     -0.21      0.00
   -8    7    4     -0.46      0.00
   -8    7    3     -0.75      0.00
   -8    7    2     -0.13      0.00
   -8    7    1      0.31      0.00
   -8    7    0      0.22      0.00
    8   -7    1      0.68      0.00
   -8    6   15      0.35      0.00
   -8    6   14     -0.53      0.00
   -8    6   13     -1.04      0.00
   -8    6   12     -0.59      0.00
   -8    6   11     -0.70      0.00
   -8    6   10      0.16      0.00
   -8    6    9      0.21      0.00
   -8    6    8      0.18      0.00
   -8    6    7      0.71      0.00
   -8    6    6      0.07      0.00
   -8    6    5      0.14      0.00
   -8    6    4      0.31      0.00
   -8    6    3      0.76      0.00
   -8    6    2      0.59      0.00
   -8    6    1      0.03      0.00
   -8    6    0      0.21      0.00
    8   -6    1     -0.30      0.00
    8   -6   17      0.51      0.00
    8   -6   19      0.19      0.00
   -8    5   15     -0.69      0.00
   -8    5   14     -0.57      0.00
   -8    5   13      0.33      0.00
   -8    5   12      0.54      0.00
   -8    5   11      0.97      0.00
   -8    5   10      0.57      0.00
   -8    5    9      0.27      0.00
   -8    5    8      0.57      0.00
   -8    5    7      0.01      0.00
   -8    5    6      0.21      0.00
   -8    5    5      0.24      0.00
   -8    5    4      0.08      0.00
   -8    5    3     -0.44      0.00
   -8    5    2     -0.76      0.00
   -8    5    1     -0.26      0.00
   -8    5    0     -0.54      0.00
    8   -5    1     -0.27      0.00
    8   -5   17     -0.08      0.00
   -8    4   16      0.04      0.00
   -8    4   15      0.33      0.00
   -8    4   14      0.93      0.00
   -8    4   13      0.56      0.00
   -8    4   12      0.07      0.00
   -8    4   11     -0.36      0.00
   -8    4   10     -0.39      0.00
   -8    4    9      0.10      0.00
   -8    4    8     -0.29      0.00
   -8    4    7     -0.25      0.00
   -8    4    6     -0.41      0.00
   -8    4    5     -0.70      0.00
   -8    4    4     -0.79      0.00
   -8    4    3     -0.41      0.00
   -8    4    2      0.26      0.00
   -8    4    1     -0.01      0.00
   -8    4    0      0.46      0.00
    8   -4    1      0.74      0.00
    8   -4   15      0.31      0.00
    8   -4   16      0.12      0.00
    8   -4   19     -0.37      0.00
   -8    3   16      0.16      0.00
   -8    3   15      0.21      0.00
   -8    3   14     -0.48      0.00
   -8    3   13     -0.87      0.00
   -8    3   12     -0.29      0.00
   -8    3   11      0.13      0.00
   -8    3   10      0.46      0.00
   -8    3    9     -0.20      0.00
   -8    3    8     -0.48      0.00
   -8    3    7     -0.47      0.00
   -8    3    6     -0.42      0.00
   -8    3    5      0.02      0.00
   -8    3    4      0.59      0.00
   -8    3    3      0.75      0.00
   -8    3    1      0.66      0.00
   -8    3    0      0.32      0.00
    8   -3    1     -0.39      0.00
    8   -3    2     -0.52      0.00
    8   -3   14     -0.06      0.00
    8   -3   15      0.05      0.00
    8   -3   16      0.14      0.00
    8   -3   17     -1.13      0.00
    8   -3   18     -1.16      0.00
    8   -3   19     -0.74      0.00
   -8    2   16     -0.27      0.00
   -8    2   15     -0.50      0.00
   -8    2   14     -0.20      0.00
   -8    2   13      0.94      0.00
   -8    2   12      0.58      0.00
   -8    2   11      0.05      0.00
   -8    2   10     -0.81      0.00
   -8    2    9     -0.82      0.00
   -8    2    8     -0.09      0.00
   -8    2    7      0.30      0.00
   -8    2    6      0.80      0.00
   -8    2    5      0.94      0.00
   -8    2    4      0.49      0.00
   -8    2    3      0.09      0.00
   -8    2    2      0.39      0.00
   -8    2    1     -0.37      0.00
   -8    2    0     -0.70      0.00
    8   -2    1     -0.30      0.00
    8   -2    2     -0.21      0.00
    8   -2    3      0.42      0.00
    8   -2   13     -0.48      0.00
    8   -2   14     -0.28      0.00
    8   -2   15     -0.60      0.00
    8   -2   16     -1.34      0.00
    8   -2   17     -0.13      0.00
    8   -2   18      0.70      0.00
    8   -2   19      1.19      0.00
    8   -2   20      1.28      0.00
    8   -2   21      0.26      0.00
    8   -2   22     -0.14      0.00
   -8    1   16      0.16      0.00
   -8    1   15      0.44      0.00
   -8    1   14      0.92      0.00
   -8    1   13     -0.56      0.00
   -8    1   12     -1.01      0.00
   -8    1   11     -0.89      0.00
   -8    1   10      0.00      0.00
   -8    1    9      1.14      0.00
   -8    1    8      1.08      0.00
   -8    1    7      0.98      0.00
   -8    1    6      0.44      0.00
   -8    1    5     -0.27      0.00
   -8    1    4     -0.41      0.00
   -8    1    3     -0.35      0.00
   -8    1    2     -1.17      0.00
   -8    1    1     -0.77      0.00
   -8    1    0     -0.14      0.00
    8   -1    1     -0.11      0.00
    8   -1    2      0.64      0.00
    8   -1    3      0.26      0.00
    8   -1   10     -0.49      0.00
    8   -1   11     -0.21      0.00
    8   -1   12      0.09      0.00
    8   -1   13      0.13      0.00
    8   -1   14     -0.21      0.00
    8   -1   15     -0.10      0.00
    8   -1   16      1.42      0.00
    8   -1   17      1.26      0.00
    8   -1   18      0.79      0.00
    8   -1   19      0.01      0.00
    8   -1   20     -1.18      0.00
    8   -1   21     -0.62      0.00
    8   -1   22     -0.27      0.00
   -8    0   16      0.15      0.00
   -8    0   15      0.10      0.00
   -8    0   14     -1.21      0.00
   -8    0   13     -0.38      0.00
   -8    0   12      0.62      0.00
   -8    0   11      1.31      0.00
   -8    0   10      1.44      0.00
   -8    0    9      0.24      0.00
   -8    0    8     -0.38      0.00
   -8    0    7     -1.02      0.00
   -8    0    6     -1.27      0.00
   -8    0    5     -0.96      0.00
   -8    0    4     -0.90      0.00
   -8    0    3     -1.05      0.00
   -8    0    2      0.15      0.00
   -8    0    1      0.67      0.00
    8    0    0      0.58      0.00
    8    0    1      1.17      0.00
    8    0    2      0.11      0.00
    8    0    3     -0.22      0.00
    8    0    4     -0.21      0.00
    8    0    5     -0.04      0.00
    8    0    6     -0.06      0.00
    8    0    9      0.33      0.00
    8    0   10      0.61      0.00
    8    0   11      0.86      0.00
    8    0   12      0.31      0.00
    8    0   13      0.06      0.00
    8    0   14      0.48      0.00
    8    0   15      1.23      0.00
    8    0   16     -0.04      0.00
    8    0   17     -0.62      0.00
    8    0   18     -0.99      0.00
    8    0   19     -1.23      0.00
    8    0   20      0.31      0.00
    8    0   21      0.20      0.00
    8    0   22     -0.06      0.00
   -8   -1   15     -0.69      0.00
   -8   -1   14      0.71      0.00
   -8   -1   13      0.99      0.00
   -8   -1   12      0.38      0.00
   -8   -1   11     -0.43      0.00
   -8   -1   10     -1.54      0.00
   -8   -1    9     -1.35      0.00
   -8   -1    8     -1.14      0.00
   -8   -1    7     -0.51      0.00
   -8   -1    6      0.09      0.00
   -8   -1    5      0.32      0.00
   -8   -1    4      0.83      0.00
   -8   -1    3      1.84      0.00
   -8   -1    2      1.47      0.00
   -8   -1    1      0.89      0.00
    8    1    0      0.80      0.00
    8    1    1     -0.78      0.00
    8    1    2     -0.62      0.00
    8    1    3     -0.33      0.00
    8    1    4     -0.20      0.00
    8    1    5      0.06      0.00
    8    1    6     -0.18      0.00
    8    1    7      0.84      0.00
    8    1    8      0.45      0.00
    8    1    9      0.44      0.00
    8    1   10      0.29      0.00
    8    1   11     -0.64      0.00
    8    1   12     -0.38      0.00
    8    1   13      0.09      0.00
    8    1   14      0.14      0.00
    8    1   15     -1.15      0.00
    8    1   16     -0.86      0.00
    8    1   17     -0.53      0.00
    8    1   18     -0.28      0.00
    8    1   19      1.03      0.00
    8    1   20     -0.10      0.00
    8    1   21     -0.18      0.00
    8    1   22      0.48      0.00
   -8   -2   16     -0.31      0.00
   -8   -2   15      0.63      0.00
   -8   -2   14     -0.04      0.00
   -8   -2   13     -0.83      0.00
   -8   -2   12     -0.92      0.00
   -8   -2   11     -0.70      0.00
   -8   -2   10      0.31      0.00
   -8   -2    9      0.73      0.00
   -8   -2    8      1.24      0.00
   -8   -2    7      1.19      0.00
   -8   -2    6      1.12      0.00
   -8   -2    5      1.35      0.00
   -8   -2    4      1.06      0.00
   -8   -2    3     -0.19      0.00
   -8   -2    2     -0.93      0.00
   -8   -2    1     -1.18      0.00
    8    2    0     -2.08      0.00
    8    2    1     -0.87      0.00
    8    2    2     -0.23      0.00
    8    2    3     -0.01      0.00
    8    2    4      0.41      0.00
    8    2    5      0.09      0.00
    8    2    6      0.74      0.00
    8    2    7     -0.13      0.00
    8    2    8     -0.27      0.00
    8    2    9     -0.52      0.00
    8    2   11     -0.13      0.00
    8    2   12      0.06      0.00
    8    2   13     -0.24      0.00
    8    2   14     -0.96      0.00
    8    2   15      0.00      0.00
    8    2   16      0.32      0.00
    8    2   17      0.30      0.00
    8    2   18      1.03      0.00
    8    2   19     -0.43      0.00
    8    2   20      0.29      0.00
    8    2   21      0.91      0.00
    8    2   22     -0.10      0.00
   -8   -3   16      0.42      0.00
   -8   -3   15     -0.25      0.00
   -8   -3   14     -0.22      0.00
   -8   -3   13      0.39      0.00
   -8   -3   12      0.81      0.00
   -8   -3   11      1.01      0.00
   -8   -3   10      0.58      0.00
   -8   -3    9      0.44      0.00
   -8   -3    8     -0.20      0.00
   -8   -3    7     -0.25      0.00
   -8   -3    6     -0.35      0.00
   -8   -3    5     -1.29      0.00
   -8   -3    4     -1.88      0.00
   -8   -3    3     -1.68      0.00
   -8   -3    2     -1.15      0.00
   -8   -3    1     -0.74      0.00
    8    3    0      0.92      0.00
    8    3    1      1.16      0.00
    8    3    2      0.96      0.00
    8    3    3      0.92      0.00
    8    3    4      0.22      0.00
    8    3    5      0.42      0.00
    8    3    6     -0.57      0.00
    8    3    7     -0.44      0.00
    8    3    8     -0.45      0.00
    8    3    9     -0.45      0.00
    8    3   10      0.74      0.00
    8    3   11      0.27      0.00
    8    3   12      0.01      0.00
    8    3   13     -0.07      0.00
    8    3   14      0.94      0.00
    8    3   15      0.81      0.00
    8    3   16      0.43      0.00
    8    3   17      0.85      0.00
    8    3   18     -0.47      0.00
    8    3   19      0.60      0.00
    8    3   20      0.39      0.00
    8    3   21     -1.06      0.00
    8    3   22     -0.41      0.00
   -8   -4   15      0.26      0.00
   -8   -4   14      0.40      0.00
   -8   -4   13      0.09      0.00
   -8   -4   12     -0.46      0.00
   -8   -4   11     -0.77      0.00
   -8   -4   10     -0.55      0.00
   -8   -4    9     -0.80      0.00
   -8   -4    8     -0.28      0.00
   -8   -4    7     -0.42      0.00
   -8   -4    6     -1.02      0.00
   -8   -4    5     -0.33      0.00
   -8   -4    4      0.38      0.00
   -8   -4    3      1.07      0.00
   -8   -4    2      1.57      0.00
   -8   -4    1      2.04      0.00
    8    4    0      1.23      0.00
    8    4    1      0.42      0.00
    8    4    2     -0.05      0.00
    8    4    3     -0.65      0.00
    8    4    4     -0.47      0.00
    8    4    5     -0.97      0.00
    8    4    6     -0.29      0.00
    8    4    7     -0.08      0.00
    8    4    8      0.24      0.00
    8    4    9      0.99      0.00
    8    4   10      0.00      0.00
    8    4   11      0.16      0.00
    8    4   12      0.37      0.00
    8    4   13      0.84      0.00
    8    4   14      0.11      0.00
    8    4   15     -0.47      0.00
    8    4   16     -0.09      0.00
    8    4   17     -1.18      0.00
    8    4   18     -0.11      0.00
    8    4   19     -0.80      0.00
    8    4   20     -1.54      0.00
    8    4   21      0.07      0.00
   -8   -5   15     -0.28      0.00
   -8   -5   14     -0.51      0.00
   -8   -5   13     -0.60      0.00
   -8   -5   12     -0.03      0.00
   -8   -5   11      0.45      0.00
   -8   -5   10      0.23      0.00
   -8   -5    9      0.63      0.00
   -8   -5    8      0.14      0.00
   -8   -5    7     -0.13      0.00
   -8   -5    6      0.93      0.00
   -8   -5    5      0.96      0.00
   -8   -5    4      1.01      0.00
   -8   -5    3      0.82      0.00
   -8   -5    2      0.08      0.00
   -8   -5    1     -0.77      0.00
    8    5    0     -1.29      0.00
    8    5    1     -1.33      0.00
    8    5    2     -1.10      0.00
    8    5    3     -0.65      0.00
    8    5    4     -0.45      0.00
    8    5    5      0.45      0.00
    8    5    6      0.38      0.00
    8    5    7      0.60      0.00
    8    5    8      0.62      0.00
    8    5    9     -0.48      0.00
    8    5   10      0.16      0.00
    8    5   11      0.06      0.00
    8    5   12     -0.16      0.00
    8    5   13     -0.98      0.00
    8    5   14     -1.11      0.00
    8    5   15     -0.33      0.00
    8    5   16     -0.94      0.00
    8    5   17      0.28      0.00
    8    5   18     -0.21      0.00
    8    5   19     -0.05      0.00
    8    5   20      1.60      0.00
    8    5   21      0.72      0.00
    8    5   22      0.83      0.00
   -8   -6   15     -0.13      0.00
   -8   -6   14      0.11      0.00
   -8   -6   13      0.64      0.00
   -8   -6   12      0.41      0.00
   -8   -6   11     -0.18      0.00
   -8   -6   10     -0.03      0.00
   -8   -6    9     -0.50      0.00
   -8   -6    8     -0.32      0.00
   -8   -6    7      0.57      0.00
   -8   -6    6      0.01      0.00
   -8   -6    5     -0.13      0.00
   -8   -6    4     -0.41      0.00
   -8   -6    3     -1.15      0.00
   -8   -6    2     -1.03      0.00
   -8   -6    1     -0.97      0.00
    8    6    0     -0.48      0.00
    8    6    1      0.29      0.00
    8    6    2      0.49      0.00
    8    6    3      0.89      0.00
    8    6    4      1.17      0.00
    8    6    5      0.41      0.00
    8    6    6      0.48      0.00
    8    6    7     -0.05      0.00
    8    6    8     -0.72      0.00
    8    6    9      0.22      0.00
    8    6   10     -0.35      0.00
    8    6   11     -0.61      0.00
    8    6   12     -0.75      0.00
    8    6   13     -0.15      0.00
    8    6   14      0.82      0.00
    8    6   15      0.25      0.00
    8    6   16      1.19      0.00
    8    6   17      0.54      0.00
    8    6   18      0.65      0.00
    8    6   19      1.28      0.00
    8    6   21     -0.33      0.00
   -8   -7   14      0.34      0.00
   -8   -7   13     -0.22      0.00
   -8   -7   12     -0.40      0.00
   -8   -7   11      0.05      0.00
   -8   -7   10     -0.02      0.00
   -8   -7    9      0.30      0.00
   -8   -7    8      0.74      0.00
   -8   -7    7      0.01      0.00
   -8   -7    6     -0.09      0.00
   -8   -7    5     -0.22      0.00
   -8   -7    4     -0.66      0.00
   -8   -7    3      0.01      0.00
   -8   -7    2      0.11      0.00
   -8   -7    1      0.64      0.00
    8    7    0      1.22      0.00
    8    7    1      0.75      0.00
    8    7    2      0.96      0.00
    8    7    3      0.35      0.00
    8    7    4     -0.61      0.00
    8    7    5     -0.18      0.00
    8    7    6     -0.77      0.00
    8    7    7     -0.64      0.00
    8    7    8      0.36      0.00
    8    7    9     -0.54      0.00
    8    7   10     -0.30      0.00
    8    7   11      0.13      0.00
    8    7   12      0.70      0.00
    8    7   13      1.05      0.00
    8    7   14      0.09      0.00
    8    7   15      0.57      0.00
    8    7   16     -0.24      0.00
    8    7   17     -0.27      0.00
    8    7   18     -0.18      0.00
    8    7   19     -1.49      0.00
    8    7   20     -0.47      0.00
    8    7   21     -0.34      0.00
   -8   -8   14     -0.14      0.00
   -8   -8   13      0.15      0.00
   -8   -8   12      0.40      0.00
   -8   -8   11      0.17      0.00
   -8   -8   10      0.06      0.00
   -8   -8    9      0.11      0.00
   -8   -8    8     -0.48      0.00
   -8   -8    7     -0.60      0.00
   -8   -8    6     -0.44      0.00
   -8   -8    5     -0.60      0.00
   -8   -8    4      0.27      0.00
   -8   -8    3      0.36      0.00
   -8   -8    2      0.69      0.00
   -8   -8    1      0.83      0.00
    8    8    0     -0.17      0.00
    8    8    1     -0.08      0.00
    8    8    2     -1.02      0.00
    8    8    3     -1.26      0.00
    8    8    4     -0.19      0.00
    8    8    5     -0.72      0.00
    8    8    6      0.04      0.00
    8    8    7      0.60      0.00
    8    8    8     -0.51      0.00
    8    8    9      0.16      0.00
    8    8   10      0.51      0.00
    8    8   11      0.53      0.00
    8    8   12      0.37      0.00
    8    8   13     -0.47      0.00
    8    8   14      0.04      0.00
    8    8   15     -0.55      0.00
    8    8   16     -0.46      0.00
    8    8   17     -0.32      0.00
    8    8   18     -0.76      0.00
    8    8   19      0.64      0.00
    8    8   20      0.43      0.00
    8    8   21      0.29      0.00
   -8   -9   13     -0.39      0.00
   -8   -9   12     -0.59      0.00
   -8   -9   11     -0.63      0.00
   -8   -9   10     -0.27      0.00
   -8   -9    9     -0.44      0.00
   -8   -9    8     -0.50      0.00
   -8   -9    7      0.19      0.00
   -8   -9    6      0.16      0.00
   -8   -9    5      0.94      0.00
   -8   -9    4      0.83      0.00
   -8   -9    3      0.47      0.00
   -8   -9    2      0.14      0.00
   -8   -9    1     -0.96      0.00
    8    9    0     -0.66      0.00
    8    9    1     -1.11      0.00
    8    9    2     -0.36      0.00
    8    9    3      0.79      0.00
    8    9    4      0.02      0.00
    8    9    5      0.89      0.00
    8    9    6      0.65      0.00
    8    9    7     -0.48      0.00
    8    9    8      0.49      0.00
    8    9    9      0.50      0.00
    8    9   10      0.27      0.00
    8    9   11      0.17      0.00
    8    9   12     -0.33      0.00
    8    9   13      0.01      0.00
    8    9   14     -0.53      0.00
    8    9   15     -0.42      0.00
    8    9   16     -0.14      0.00
    8    9   17     -0.04      0.00
    8    9   18      0.93      0.00
    8    9   19      0.11      0.00
    8    9   20     -0.14      0.00
    8    9   21      0.08      0.00
   -8  -10   12      0.36      0.00
   -8  -10   11      0.83      0.00
   -8  -10   10      0.49      0.00
   -8  -10    9      0.24      0.00
   -8  -10    8      1.10      0.00
   -8  -10    7      0.56      0.00
   -8  -10    6      0.85      0.00
   -8  -10    5      0.21      0.00
   -8  -10    4     -0.78      0.00
   -8  -10    3     -0.76      0.00
   -8  -10    2     -1.21      0.00
   -8  -10    1     -0.29      0.00
    8   10    0      0.02      0.00
    8   10    1      0.95      0.00
    8   10    2      1.28      0.00
    8   10    3      0.11      0.00
    8   10    4      0.76      0.00
    8   10    5     -0.13      0.00
    8   10    6     -0.83      0.00
    8   10    7      0.43      0.00
    8   10    8      0.21      0.00
    8   10    9     -0.01      0.00
    8   10   10     -0.11      0.00
    8   10   11     -0.73      0.00
    8   10   12     -0.70      0.00
    8   10   13     -0.87      0.00
    8   10   14     -0.39      0.00
    8   10   15      0.30      0.00
    8   10   16      0.63      0.00
    8   10   17      0.82      0.00
    8   10   18     -0.23      0.00
    8   10   19     -0.16      0.00
    8   10   20      0.17      0.00
   -8  -11   12      0.41      0.00
   -8  -11   11     -0.28      0.00
   -8  -11   10     -0.48      0.00
   -8  -11    9      0.40      0.00
   -8  -11    8     -0.61      0.00
   -8  -11    7     -0.44      0.00
   -8  -11    6     -1.01      0.00
   -8  -11    5     -1.52      0.00
   -8  -11    4     -0.28      0.00
   -8  -11    3     -0.15      0.00
   -8  -11    2      0.81      0.00
   -8  -11    1      1.00      0.00
    8   11    0      0.92      0.00
    8   11    1      0.29      0.00
    8   11    2     -0.77      0.00
    8   11    3     -0.19      0.00
    8   11    4     -1.03      0.00
    8   11    5     -0.84      0.00
    8   11    6      0.56      0.00
    8   11    7      0.11      0.00
    8   11    8     -0.24      0.00
    8   11    9     -0.58      0.00
    8   11   10     -1.13      0.00
    8   11   11     -0.64      0.00
    8   11   12      0.14      0.00
    8   11   13      0.94      0.00
    8   11   14      1.47      0.00
    8   11   15      1.13      0.00
    8   11   16      0.30      0.00
    8   11   17     -0.58      0.00
    8   11   18     -0.18      0.00
   -8  -12   11     -0.50      0.00
   -8  -12   10      0.34      0.00
   -8  -12    9     -0.76      0.00
   -8  -12    8     -0.25      0.00
   -8  -12    7     -0.35      0.00
   -8  -12    6     -0.14      0.00
   -8  -12    5      1.43      0.00
   -8  -12    4      0.78      0.00
   -8  -12    3      0.90      0.00
   -8  -12    2      0.43      0.00
   -8  -12    1     -0.45      0.00
    8   12    0     -0.84      0.00
    8   12    1     -0.99      0.00
    8   12    2     -0.22      0.00
    8   12    3     -0.54      0.00
    8   12    4      0.30      0.00
    8   12    5      1.22      0.00
    8   12    6      0.28      0.00
    8   12    7     -0.35      0.00
    8   12    8     -0.62      0.00
    8   12    9     -0.45      0.00
    8   12   10      0.77      0.00
    8   12   11      1.73      0.00
    8   12   12      1.56      0.00
    8   12   13      0.96      0.00
    8   12   14     -0.30      0.00
    8   12   15     -1.33      0.00
    8   12   16     -1.20      0.00
    8   12   17     -0.38      0.00
   -8  -13   10     -0.28      0.00
   -8  -13    9      0.41      0.00
   -8  -13    8      0.44      0.00
   -8  -13    6      1.26      0.00
   -8  -13    5     -0.35      0.00
   -8  -13    4     -0.38      0.00
   -8  -13    3     -0.60      0.00
   -8  -13    2     -1.00      0.00
   -8  -13    1     -0.33      0.00
    8   13    0      0.11      0.00
    8   13    1      0.56      0.00
    8   13    2      0.42      0.00
    8   13    3      1.01      0.00
    8   13    4      0.93      0.00
    8   13    5     -0.38      0.00
    8   13    6     -0.90      0.00
    8   13    7     -0.49      0.00
    8   13    8      0.44      0.00
    8   13    9      1.44      0.00
    8   13   10      1.27      0.00
    8   13   11     -0.25      0.00
    8   13   12     -1.22      0.00
    8   13   13     -1.96      0.00
    8   13   14     -1.74      0.00
    8   13   15     -0.34      0.00
    8   13   16      0.42      0.00
    8   13   17      0.44      0.00
   -8  -14    8     -0.02      0.00
   -8  -14    7     -0.09      0.00
   -8  -14    6     -1.28      0.00
   -8  -14    5     -0.47      0.00
   -8  -14    4     -0.08      0.00
   -8  -14    3     -0.05      0.00
   -8  -14    2      0.72      0.00
   -8  -14    1      0.58      0.00
    8   14    0      0.31      0.00
    8   14    1      0.13      0.00
    8   14    2      0.22      0.00
    8   14    3     -0.39      0.00
    8   14    4     -1.26      0.00
    8   14    5     -1.05      0.00
    8   14    6      0.12      0.00
    8   14    7      0.99      0.00
    8   14    8      0.83      0.00
    8   14    9     -0.35      0.00
    8   14   10     -1.78      0.00
    8   14   11     -1.54      0.00
    8   14   12     -0.90      0.00
    8   14   13      0.25      0.00
    8   14   14      1.51      0.00
    8   14   15      1.21      0.00
   -8  -15    7     -0.46      0.00
   -8  -15    6      0.58      0.00
   -8  -15    5      0.66      0.00
   -8  -15    4      0.27      0.00
   -8  -15    3      0.36      0.00
   -8  -15    2     -0.23      0.00
   -8  -15    1     -0.50      0.00
    8   15    0     -0.28      0.00
    8   15    1     -0.25      0.00
    8   15    2     -0.65      0.00
    8   15    3     -0.69      0.00
    8   15    4      0.04      0.00
    8   15    5      1.18      0.00
    8   15    6      1.11      0.00
    8   15    7     -0.05      0.00
    8   15    8     -0.98      0.00
    8   15    9     -1.16      0.00
    8   15   10      0.17      0.00
    8   15   11      1.00      0.00
    8   15   12      1.46      0.00
    8   15   13      1.44      0.00
    8   15   14      0.27      0.00
   -8  -16    5     -0.44      0.00
   -8  -16    3     -0.45      0.00
   -8  -16    2     -0.25      0.00
   -8  -16    1      0.25      0.00
    8   16    0      0.19      0.00
    8   16    1     -0.08      0.00
    8   16    2      0.24      0.00
    8   16    3      0.76      0.00
    8   16    4      1.17      0.00
    8   16    5      0.24      0.00
    8   16    6     -0.88      0.00
    8   16    7     -0.76      0.00
    8   16    8     -0.13      0.00
    8   16    9      0.94      0.00
    8   16   10      0.88      0.00
    8   16   11      0.36      0.00
   -8  -17    2      0.54      0.00
   -8  -17    1      0.18      0.00
    8   17    0     -0.14      0.00
    8   17    1      0.23      0.00
    8   17    2      0.33      0.00
    8   17    3      0.22      0.00
    8   17    4     -0.72      0.00
    8   17    5     -1.10      0.00
    8   17    6     -0.22      0.00
    8   17    7      0.24      0.00
    8   17    8      0.52      0.00
   -9   15    1     -0.02      0.00
   -9   14    4     -0.22      0.00
   -9   14    3     -0.66      0.00
   -9   14    2     -0.59      0.00
   -9   13    8      0.01      0.00
   -9   13    7     -0.79      0.00
   -9   13    6     -1.29      0.00
   -9   13    5     -0.58      0.00
   -9   13    4     -0.52      0.00
   -9   13    3     -0.11      0.00
   -9   13    2      0.00      0.00
   -9   13    0      0.86      0.00
    9  -13    2      0.73      0.00
   -9   12   11      0.69      0.00
   -9   12   10      0.31      0.00
   -9   12    8     -0.73      0.00
   -9   12    7     -0.51      0.00
   -9   12    6      0.72      0.00
   -9   12    5      0.71      0.00
   -9   12    4      0.73      0.00
   -9   12    3      0.56      0.00
   -9   12    2      0.64      0.00
   -9   12    1      0.87      0.00
   -9   12    0      0.08      0.00
    9  -12    1     -0.07      0.00
   -9   11   12      1.20      0.00
   -9   11   11      0.08      0.00
   -9   11   10     -0.51      0.00
   -9   11    9     -0.25      0.00
   -9   11    7      1.18      0.00
   -9   11    6      0.35      0.00
   -9   11    5     -0.09      0.00
   -9   11    4     -0.20      0.00
   -9   11    3     -0.10      0.00
   -9   11    2     -0.13      0.00
   -9   11    1     -0.96      0.00
   -9   11    0     -0.73      0.00
    9  -11    1     -0.91      0.00
   -9   10   11     -1.03      0.00
   -9   10   10     -0.28      0.00
   -9   10    9      0.05      0.00
   -9   10    8      0.41      0.00
   -9   10    7     -0.79      0.00
   -9   10    6     -0.79      0.00
   -9   10    5     -0.26      0.00
   -9   10    4     -0.11      0.00
   -9   10    3     -0.21      0.00
   -9   10    2     -0.70      0.00
   -9   10    1      0.02      0.00
    9  -10    1      0.74      0.00
   -9    9   12     -0.37      0.00
   -9    9   11      0.45      0.00
   -9    9    9      0.56      0.00
   -9    9    8     -0.42      0.00
   -9    9    7      0.25      0.00
   -9    9    6      0.85      0.00
   -9    9    5      0.44      0.00
   -9    9    4      0.19      0.00
   -9    9    3     -0.07      0.00
   -9    9    2      0.65      0.00
   -9    9    1      0.46      0.00
   -9    9    0      0.53      0.00
    9   -9    1      0.25      0.00
   -9    8   13      0.84      0.00
   -9    8   12      1.15      0.00
   -9    8   11      0.75      0.00
   -9    8   10      0.68      0.00
   -9    8    9     -0.20      0.00
   -9    8    8      0.54      0.00
   -9    8    7      0.50      0.00
   -9    8    6     -0.47      0.00
   -9    8    5     -0.45      0.00
   -9    8    4     -0.43      0.00
   -9    8    3      0.15      0.00
   -9    8    2     -0.24      0.00
   -9    8    1     -0.25      0.00
   -9    8    0     -0.33      0.00
    9   -8    1     -0.67      0.00
   -9    7   14      1.03      0.00
   -9    7   13      0.61      0.00
   -9    7   11     -0.34      0.00
   -9    7   10     -1.08      0.00
   -9    7    9     -0.33      0.00
   -9    7    8     -0.68      0.00
   -9    7    7     -1.30      0.00
   -9    7    6     -0.50      0.00
   -9    7    5     -0.27      0.00
   -9    7    4      0.20      0.00
   -9    7    3     -0.09      0.00
   -9    7    2      0.05      0.00
   -9    7    1      0.18      0.00
   -9    7    0     -0.08      0.00
    9   -7    1      0.40      0.00
   -9    6   13     -0.85      0.00
   -9    6   11     -0.98      0.00
   -9    6   10      0.06      0.00
   -9    6    9     -0.16      0.00
   -9    6    8     -0.20      0.00
   -9    6    7      0.88      0.00
   -9    6    6      0.75      0.00
   -9    6    5      0.89      0.00
   -9    6    4      0.55      0.00
   -9    6    3      0.47      0.00
   -9    6    2      0.35      0.00
   -9    6    1     -0.13      0.00
   -9    6    0      0.20      0.00
    9   -6    1     -0.10      0.00
   -9    5   14     -0.60      0.00
   -9    5   13     -0.16      0.00
   -9    5   12      0.34      0.00
   -9    5   11      1.08      0.00
   -9    5   10      0.57      0.00
   -9    5    9      0.49      0.00
   -9    5    8      1.10      0.00
   -9    5    7      0.43      0.00
   -9    5    6      0.34      0.00
   -9    5    5     -0.10      0.00
   -9    5    4     -0.44      0.00
   -9    5    3     -0.56      0.00
   -9    5    2     -0.75      0.00
   -9    5    1     -0.15      0.00
   -9    5    0     -0.31      0.00
    9   -5    1     -0.16      0.00
   -9    4   14      0.54      0.00
   -9    4   13      0.76      0.00
   -9    4   12      0.48      0.00
   -9    4   11     -0.28      0.00
   -9    4   10     -0.27      0.00
   -9    4    9      0.14      0.00
   -9    4    8     -0.48      0.00
   -9    4    7     -0.50      0.00
   -9    4    6     -0.82      0.00
   -9    4    5     -0.99      0.00
   -9    4    4     -0.59      0.00
   -9    4    3     -0.24      0.00
   -9    4    2      0.36      0.00
   -9    4    1      0.08      0.00
   -9    4    0      0.24      0.00
   -9    3   15      0.20      0.00
   -9    3   14     -0.02      0.00
   -9    3   13     -0.68      0.00
   -9    3   12     -0.62      0.00
   -9    3   11     -0.08      0.00
   -9    3   10      0.31      0.00
   -9    3    9     -0.24      0.00
   -9    3    8     -0.40      0.00
   -9    3    7     -0.54      0.00
   -9    3    6     -0.34      0.00
   -9    3    5      0.45      0.00
   -9    3    4      0.74      0.00
   -9    3    3      0.70      0.00
   -9    3    2      0.17      0.00
   -9    3    1      0.33      0.00
   -9    3    0      0.16      0.00
    9   -3    1     -0.04      0.00
    9   -3    2      0.12      0.00
   -9    2   15     -0.26      0.00
   -9    2   14     -0.44      0.00
   -9    2   13      0.49      0.00
   -9    2   12      0.70      0.00
   -9    2   11      0.38      0.00
   -9    2   10     -0.44      0.00
   -9    2    9     -0.69      0.00
   -9    2    8     -0.26      0.00
   -9    2    7      0.33      0.00
   -9    2    6      1.03      0.00
   -9    2    5      0.75      0.00
   -9    2    4      0.14      0.00
   -9    2    3     -0.11      0.00
   -9    2    2      0.20      0.00
   -9    2    1     -0.11      0.00
   -9    2    0     -0.08      0.00
    9   -2    1     -0.04      0.00
    9   -2    2     -0.56      0.00
    9   -2    3     -0.06      0.00
    9   -2   15     -0.10      0.00
    9   -2   16     -1.11      0.00
    9   -2   17     -0.31      0.00
    9   -2   18      0.14      0.00
   -9    1   13      0.02      0.00
   -9    1   12     -0.69      0.00
   -9    1   11     -0.98      0.00
   -9    1   10     -0.48      0.00
   -9    1    9      0.70      0.00
   -9    1    8      1.12      0.00
   -9    1    7      1.06      0.00
   -9    1    6      0.11      0.00
   -9    1    5     -0.52      0.00
   -9    1    4     -0.23      0.00
   -9    1    3     -0.09      0.00
   -9    1    2     -0.61      0.00
   -9    1    1     -0.39      0.00
   -9    1    0     -0.55      0.00
    9   -1    1     -0.75      0.00
    9   -1    2      0.33      0.00
    9   -1    4      0.06      0.00
    9   -1   13      0.44      0.00
    9   -1   14     -0.02      0.00
    9   -1   15     -0.42      0.00
    9   -1   16      0.87      0.00
    9   -1   17      0.96      0.00
    9   -1   18      1.11      0.00
    9   -1   19      0.45      0.00
    9   -1   20     -1.05      0.00
    9   -1   21     -0.84      0.00
   -9    0   15      0.23      0.00
   -9    0   14     -0.94      0.00
   -9    0   13     -0.76      0.00
   -9    0   12      0.00      0.00
   -9    0   11      0.84      0.00
   -9    0   10      1.56      0.00
   -9    0    9      0.73      0.00
   -9    0    8     -0.23      0.00
   -9    0    7     -1.19      0.00
   -9    0    6     -1.15      0.00
   -9    0    5     -0.41      0.00
   -9    0    4     -0.57      0.00
   -9    0    3     -0.83      0.00
   -9    0    2     -0.17      0.00
   -9    0    1     -0.21      0.00
    9    0    0      0.24      0.00
    9    0    1      1.38      0.00
    9    0    2      0.54      0.00
    9    0    3      0.19      0.00
    9    0    4     -0.10      0.00
    9    0    5     -0.06      0.00
    9    0   10      0.72      0.00
    9    0   11      1.17      0.00
    9    0   12      0.43      0.00
    9    0   13     -0.16      0.00
    9    0   14     -0.02      0.00
    9    0   15      0.96      0.00
    9    0   16      0.23      0.00
    9    0   17     -0.13      0.00
    9    0   18     -1.02      0.00
   -9   -1   15     -0.77      0.00
   -9   -1   14      0.21      0.00
   -9   -1   13      0.86      0.00
   -9   -1   12      0.74      0.00
   -9   -1   11      0.27      0.00
   -9   -1   10     -1.15      0.00
   -9   -1    9     -1.58      0.00
   -9   -1    8     -1.31      0.00
   -9   -1    7     -0.28      0.00
   -9   -1    6      0.46      0.00
   -9   -1    5      0.13      0.00
   -9   -1    4      0.40      0.00
   -9   -1    3      1.13      0.00
   -9   -1    2      0.93      0.00
   -9   -1    1      1.33      0.00
    9    1    0      1.40      0.00
    9    1    1     -0.36      0.00
    9    1    2     -0.53      0.00
    9    1    3     -0.70      0.00
    9    1    4     -0.56      0.00
    9    1    5     -0.12      0.00
    9    1    6     -0.27      0.00
    9    1    7      0.78      0.00
    9    1    8      0.56      0.00
    9    1    9      0.81      0.00
    9    1   10      0.54      0.00
    9    1   12     -0.83      0.00
    9    1   13     -0.18      0.00
    9    1   14      0.29      0.00
    9    1   15     -0.69      0.00
    9    1   16     -0.71      0.00
    9    1   17     -0.94      0.00
    9    1   18     -0.43      0.00
    9    1   19      1.32      0.00
   -9   -2   15      0.61      0.00
   -9   -2   14      0.43      0.00
   -9   -2   13     -0.33      0.00
   -9   -2   12     -0.71      0.00
   -9   -2   11     -1.06      0.00
   -9   -2   10     -0.22      0.00
   -9   -2    9      0.78      0.00
   -9   -2    8      1.48      0.00
   -9   -2    7      1.20      0.00
   -9   -2    6      0.56      0.00
   -9   -2    5      0.86      0.00
   -9   -2    4      0.83      0.00
   -9   -2    3      0.14      0.00
   -9   -2    2      0.00      0.00
   -9   -2    1     -0.83      0.00
    9    2    0     -2.15      0.00
    9    2    1     -1.26      0.00
    9    2    2     -0.78      0.00
    9    2    3     -0.10      0.00
    9    2    4      0.65      0.00
    9    2    5      0.40      0.00
    9    2    6      0.96      0.00
    9    2    7      0.07      0.00
    9    2    8     -0.16      0.00
    9    2    9     -0.73      0.00
    9    2   10     -1.64      0.00
    9    2   11     -0.42      0.00
    9    2   12      0.30      0.00
    9    2   13      0.20      0.00
    9    2   14     -0.59      0.00
    9    2   15     -0.15      0.00
    9    2   16      0.02      0.00
    9    2   17      0.65      0.00
    9    2   18      1.41      0.00
    9    2   19     -0.42      0.00
    9    2   20     -0.17      0.00
    9    2   21      0.12      0.00
   -9   -3   14     -0.39      0.00
   -9   -3   13     -0.03      0.00
   -9   -3   12      0.35      0.00
   -9   -3   11      0.94      0.00
   -9   -3   10      1.02      0.00
   -9   -3    9      0.45      0.00
   -9   -3    8     -0.54      0.00
   -9   -3    7     -0.75      0.00
   -9   -3    6     -0.37      0.00
   -9   -3    5     -0.81      0.00
   -9   -3    4     -1.16      0.00
   -9   -3    3     -1.14      0.00
   -9   -3    2     -1.48      0.00
   -9   -3    1     -1.16      0.00
    9    3    0      0.52      0.00
    9    3    1      1.07      0.00
    9    3    2      1.41      0.00
    9    3    3      1.31      0.00
    9    3    4      0.36      0.00
    9    3    6     -0.82      0.00
    9    3    7     -0.69      0.00
    9    3    8     -0.76      0.00
    9    3    9     -0.63      0.00
    9    3   10      1.05      0.00
    9    3   11      0.89      0.00
    9    3   12      0.25      0.00
    9    3   13     -0.15      0.00
    9    3   14      0.48      0.00
    9    3   15      0.60      0.00
    9    3   16      0.77      0.00
    9    3   17      0.67      0.00
    9    3   18     -1.01      0.00
    9    3   19      0.13      0.00
    9    3   20      0.26      0.00
    9    3   21     -0.35      0.00
   -9   -4   14      0.20      0.00
   -9   -4   13      0.19      0.00
   -9   -4   12     -0.18      0.00
   -9   -4   11     -0.54      0.00
   -9   -4   10     -1.00      0.00
   -9   -4    9     -1.07      0.00
   -9   -4    8     -0.20      0.00
   -9   -4    7      0.15      0.00
   -9   -4    6     -0.28      0.00
   -9   -4    5     -0.01      0.00
   -9   -4    4      0.13      0.00
   -9   -4    3      0.36      0.00
   -9   -4    2      1.26      0.00
   -9   -4    1      1.91      0.00
    9    4    0      1.47      0.00
    9    4    1      0.74      0.00
    9    4    2     -0.19      0.00
    9    4    3     -0.98      0.00
    9    4    4     -0.97      0.00
    9    4    5     -1.04      0.00
    9    4    6     -0.13      0.00
    9    4    7      0.08      0.00
    9    4    8      0.58      0.00
    9    4    9      1.45      0.00
    9    4   10      0.18      0.00
    9    4   11     -0.27      0.00
    9    4   12     -0.12      0.00
    9    4   13      0.43      0.00
    9    4   14      0.24      0.00
    9    4   15     -0.08      0.00
    9    4   16     -0.41      0.00
    9    4   17     -1.33      0.00
    9    4   18      0.19      0.00
    9    4   19     -0.24      0.00
    9    4   20     -0.78      0.00
   -9   -5   14     -0.20      0.00
   -9   -5   13     -0.53      0.00
   -9   -5   12     -0.11      0.00
   -9   -5   11      0.17      0.00
   -9   -5   10      0.66      0.00
   -9   -5    9      1.23      0.00
   -9   -5    8      0.60      0.00
   -9   -5    7      0.00      0.00
   -9   -5    6      0.34      0.00
   -9   -5    5      0.15      0.00
   -9   -5    4      0.43      0.00
   -9   -5    3      0.82      0.00
   -9   -5    2      0.17      0.00
   -9   -5    1     -0.47      0.00
    9    5    0     -1.23      0.00
    9    5    1     -1.55      0.00
    9    5    2     -1.09      0.00
    9    5    3     -0.60      0.00
    9    5    4      0.18      0.00
    9    5    5      0.88      0.00
    9    5    6      0.44      0.00
    9    5    7      0.69      0.00
    9    5    8      0.45      0.00
    9    5    9     -0.89      0.00
    9    5   10     -0.41      0.00
    9    5   11     -0.05      0.00
    9    5   12      0.10      0.00
    9    5   13     -0.37      0.00
    9    5   14     -0.77      0.00
    9    5   15     -0.66      0.00
    9    5   16     -0.77      0.00
    9    5   17      0.64      0.00
    9    5   18     -0.09      0.00
    9    5   20      0.91      0.00
   -9   -6   13      0.69      0.00
   -9   -6   12      0.55      0.00
   -9   -6   11      0.34      0.00
   -9   -6   10     -0.06      0.00
   -9   -6    9     -1.02      0.00
   -9   -6    8     -0.99      0.00
   -9   -6    7     -0.32      0.00
   -9   -6    6     -0.38      0.00
   -9   -6    5      0.11      0.00
   -9   -6    4      0.16      0.00
   -9   -6    3     -0.68      0.00
   -9   -6    2     -0.52      0.00
   -9   -6    1     -0.81      0.00
    9    6    0     -0.37      0.00
    9    6    1      0.56      0.00
    9    6    2      0.52      0.00
    9    6    3      1.21      0.00
    9    6    4      0.82      0.00
    9    6    5     -0.21      0.00
    9    6    6      0.23      0.00
    9    6    7     -0.44      0.00
    9    6    8     -0.87      0.00
    9    6    9      0.30      0.00
    9    6   10      0.11      0.00
    9    6   11     -0.08      0.00
    9    6   12     -0.43      0.00
    9    6   13     -0.43      0.00
    9    6   14      0.23      0.00
    9    6   15      0.36      0.00
    9    6   16      1.15      0.00
    9    6   17      0.25      0.00
    9    6   18      0.41      0.00
    9    6   20     -0.44      0.00
    9    6   21      0.07      0.00
   -9   -7   12     -0.62      0.00
   -9   -7   11     -0.75      0.00
   -9   -7   10     -0.68      0.00
   -9   -7    9      0.22      0.00
   -9   -7    8      0.86      0.00
   -9   -7    7      0.75      0.00
   -9   -7    6      0.87      0.00
   -9   -7    5      0.47      0.00
   -9   -7    4     -0.35      0.00
   -9   -7    3      0.11      0.00
   -9   -7    2     -0.27      0.00
   -9   -7    1      0.22      0.00
    9    7    0      0.79      0.00
    9    7    1      0.12      0.00
    9    7    2      0.79      0.00
    9    7    3     -0.28      0.00
    9    7    4     -0.85      0.00
    9    7    5      0.25      0.00
    9    7    6     -0.61      0.00
    9    7    7     -0.16      0.00
    9    7    8      0.71      0.00
    9    7    9     -0.29      0.00
    9    7   10     -0.21      0.00
    9    7   11     -0.19      0.00
    9    7   12      0.08      0.00
    9    7   13      0.74      0.00
    9    7   14      0.43      0.00
    9    7   15      0.55      0.00
    9    7   16     -0.27      0.00
    9    7   17     -0.12      0.00
    9    7   18     -0.16      0.00
    9    7   19     -1.14      0.00
   -9   -8   12      0.25      0.00
   -9   -8   11      0.69      0.00
   -9   -8   10      1.02      0.00
   -9   -8    9      0.76      0.00
   -9   -8    8      0.18      0.00
   -9   -8    7     -0.32      0.00
   -9   -8    6     -0.76      0.00
   -9   -8    5     -1.25      0.00
   -9   -8    4     -0.53      0.00
   -9   -8    3     -0.60      0.00
   -9   -8    2      0.10      0.00
   -9   -8    1      0.60      0.00
    9    8    0     -0.08      0.00
    9    8    1      0.63      0.00
    9    8    2     -0.72      0.00
    9    8    3     -0.56      0.00
    9    8    4      0.59      0.00
    9    8    5     -0.72      0.00
    9    8    6      0.21      0.00
    9    8    7      0.36      0.00
    9    8    8     -0.78      0.00
    9    8    9      0.05      0.00
    9    8   10      0.09      0.00
    9    8   11      0.25      0.00
    9    8   12      0.60      0.00
    9    8   13     -0.06      0.00
    9    8   14     -0.01      0.00
    9    8   15     -0.41      0.00
    9    8   16     -0.30      0.00
    9    8   17     -0.39      0.00
    9    8   18     -0.62      0.00
    9    8   19      0.68      0.00
    9    8   20      0.30      0.00
   -9   -9   11     -0.28      0.00
   -9   -9   10     -0.68      0.00
   -9   -9    9     -0.91      0.00
   -9   -9    8     -1.16      0.00
   -9   -9    7     -0.72      0.00
   -9   -9    6     -0.59      0.00
   -9   -9    5      0.54      0.00
   -9   -9    4      0.81      0.00
   -9   -9    3      1.13      0.00
   -9   -9    2      1.17      0.00
   -9   -9    1      0.10      0.00
    9    9    0      0.25      0.00
    9    9    1     -1.14      0.00
    9    9    2     -0.38      0.00
    9    9    3      0.45      0.00
    9    9    4     -0.90      0.00
    9    9    5      0.57      0.00
    9    9    6      0.21      0.00
    9    9    7     -0.50      0.00
    9    9    8      0.72      0.00
    9    9    9      0.21      0.00
    9    9   10      0.28      0.00
    9    9   11      0.50      0.00
    9    9   12     -0.17      0.00
    9    9   13     -0.03      0.00
    9    9   14     -0.33      0.00
    9    9   15     -0.44      0.00
    9    9   16     -0.33      0.00
    9    9   17      0.02      0.00
    9    9   18      0.87      0.00
    9    9   19     -0.04      0.00
    9    9   20     -0.34      0.00
   -9  -10   11     -0.11      0.00
   -9  -10   10      0.13      0.00
   -9  -10    9      0.08      0.00
   -9  -10    8      0.93      0.00
   -9  -10    7      0.83      0.00
   -9  -10    6      1.56      0.00
   -9  -10    5      1.17      0.00
   -9  -10    4      0.32      0.00
   -9  -10    3     -0.07      0.00
   -9  -10    2     -1.30      0.00
   -9  -10    1     -1.02      0.00
    9   10    0     -1.32      0.00
    9   10    1      0.11      0.00
    9   10    2      0.69      0.00
    9   10    3     -0.30      0.00
    9   10    4      1.23      0.00
    9   10    5      0.20      0.00
    9   10    6     -0.25      0.00
    9   10    7      0.66      0.00
    9   10    8     -0.30      0.00
    9   10    9      0.10      0.00
    9   10   10      0.26      0.00
    9   10   11     -0.53      0.00
    9   10   12     -0.51      0.00
    9   10   13     -0.78      0.00
    9   10   14     -0.70      0.00
    9   10   15      0.04      0.00
    9   10   16      0.64      0.00
    9   10   17      0.72      0.00
    9   10   18     -0.33      0.00
    9   10   19     -0.27      0.00
   -9  -11   10      0.03      0.00
   -9  -11    9      0.68      0.00
   -9  -11    8      0.00      0.00
   -9  -11    7      0.25      0.00
   -9  -11    6     -0.65      0.00
   -9  -11    5     -1.65      0.00
   -9  -11    4     -1.10      0.00
   -9  -11    3     -1.50      0.00
   -9  -11    2     -0.31      0.00
   -9  -11    1      0.39      0.00
    9   11    0      1.33      0.00
    9   11    1      1.09      0.00
    9   11    2      0.01      0.00
    9   11    3      0.79      0.00
    9   11    4     -0.73      0.00
    9   11    5     -0.79      0.00
    9   11    6      0.03      0.00
    9   11    7     -0.59      0.00
    9   11    8      0.26      0.00
    9   11    9     -0.01      0.00
    9   11   10     -0.98      0.00
    9   11   11     -0.72      0.00
    9   11   12     -0.39      0.00
    9   11   13      0.32      0.00
    9   11   14      1.33      0.00
    9   11   15      1.28      0.00
    9   11   16      0.35      0.00
    9   11   17     -0.50      0.00
    9   11   18     -0.11      0.00
    9   11   19      0.32      0.00
   -9  -12    9     -0.59      0.00
   -9  -12    8     -0.30      0.00
   -9  -12    7     -0.93      0.00
   -9  -12    6     -1.01      0.00
   -9  -12    5      0.52      0.00
   -9  -12    4      0.29      0.00
   -9  -12    3      1.34      0.00
   -9  -12    2      1.43      0.00
   -9  -12    1      0.82      0.00
    9   12    0      0.01      0.00
    9   12    1     -0.89      0.00
    9   12    2     -0.37      0.00
    9   12    3     -1.24      0.00
    9   12    4     -0.44      0.00
    9   12    5      0.57      0.00
    9   12    6      0.29      0.00
    9   12    7      0.74      0.00
    9   12    8     -0.28      0.00
    9   12    9     -0.92      0.00
    9   12   10      0.07      0.00
    9   12   11      0.97      0.00
    9   12   12      1.48      0.00
    9   12   13      1.51      0.00
    9   12   14      0.20      0.00
    9   12   15     -1.10      0.00
    9   12   16     -1.06      0.00
    9   12   17     -0.31      0.00
   -9  -13    8     -0.13      0.00
   -9  -13    6      1.45      0.00
   -9  -13    5      0.40      0.00
   -9  -13    4      0.72      0.00
   -9  -13    3      0.11      0.00
   -9  -13    2     -0.88      0.00
   -9  -13    1     -0.82      0.00
    9   13    0     -0.89      0.00
    9   13    1     -0.09      0.00
    9   13    2     -0.13      0.00
    9   13    3      0.80      0.00
    9   13    4      1.25      0.00
    9   13    5      0.46      0.00
    9   13    6     -0.04      0.00
    9   13    7     -1.06      0.00
    9   13    8     -0.59      0.00
    9   13    9      0.92      0.00
    9   13   10      1.37      0.00
    9   13   11      0.68      0.00
    9   13   12     -0.38      0.00
    9   13   13     -1.76      0.00
    9   13   14     -1.88      0.00
    9   13   15     -0.54      0.00
    9   13   16      0.24      0.00
   -9  -14    6     -0.69      0.00
   -9  -14    5     -0.30      0.00
   -9  -14    4     -0.57      0.00
   -9  -14    3     -0.80      0.00
   -9  -14    2      0.05      0.00
   -9  -14    1      0.07      0.00
    9   14    0      0.52      0.00
    9   14    1      0.44      0.00
    9   14    2      0.62      0.00
    9   14    3      0.31      0.00
    9   14    4     -0.78      0.00
    9   14    5     -1.24      0.00
    9   14    6     -1.02      0.00
    9   14    7      0.41      0.00
    9   14    8      1.35      0.00
    9   14    9      0.60      0.00
    9   14   10     -0.88      0.00
    9   14   11     -1.57      0.00
    9   14   12     -1.52      0.00
    9   14   13     -0.25      0.00
   -9  -15    4      0.03      0.00
   -9  -15    3      0.49      0.00
   -9  -15    2      0.01      0.00
   -9  -15    1      0.09      0.00
    9   15    0     -0.02      0.00
    9   15    1     -0.13      0.00
    9   15    2     -0.38      0.00
    9   15    3     -0.95      0.00
    9   15    4     -0.58      0.00
    9   15    5      0.57      0.00
    9   15    6      1.51      0.00
    9   15    7      0.99      0.00
    9   15    8     -0.46      0.00
    9   15    9     -1.38      0.00
    9   15   10     -0.75      0.00
    9   15   11      0.35      0.00
    9   15   12      1.39      0.00
   -9  -16    1      0.11      0.00
    9   16    0      0.07      0.00
    9   16    1     -0.03      0.00
    9   16    2     -0.19      0.00
    9   16    3      0.45      0.00
    9   16    5      0.85      0.00
    9   16    6     -0.43      0.00
    9   16    7     -1.22      0.00
    9   16    8     -0.91      0.00
  -10   12    7     -0.49      0.00
  -10   12    6      0.45      0.00
  -10   12    3      0.25      0.00
  -10   11    7      0.83      0.00
  -10   11    6      0.46      0.00
  -10   11    5     -0.17      0.00
  -10   11    4     -0.73      0.00
  -10   11    3     -0.55      0.00
  -10   11    1     -0.23      0.00
  -10   10   10     -0.79      0.00
  -10   10    9     -0.44      0.00
  -10   10    8      0.36      0.00
  -10   10    7     -0.59      0.00
  -10   10    6     -1.08      0.00
  -10   10    5     -0.74      0.00
  -10   10    4      0.01      0.00
  -10   10    3      0.54      0.00
  -10   10    1      0.19      0.00
  -10    9   12     -0.60      0.00
  -10    9   11     -0.14      0.00
  -10    9   10      0.33      0.00
  -10    9    9      0.80      0.00
  -10    9    8     -0.31      0.00
  -10    9    7     -0.07      0.00
  -10    9    6      0.87      0.00
  -10    9    5      1.21      0.00
  -10    9    4      1.02      0.00
  -10    9    3      0.13      0.00
  -10    9    2      0.03      0.00
  -10    9    1     -0.27      0.00
  -10    8   10      0.89      0.00
  -10    8    9     -0.23      0.00
  -10    8    8      0.47      0.00
  -10    8    7      0.98      0.00
  -10    8    6      0.27      0.00
  -10    8    5     -0.35      0.00
  -10    8    4     -1.13      0.00
  -10    8    3     -0.79      0.00
  -10    8    2     -0.56      0.00
  -10    8    1     -0.01      0.00
  -10    8    0     -0.05      0.00
  -10    7   13      0.43      0.00
  -10    7   12      0.31      0.00
  -10    7   11     -0.16      0.00
  -10    7    9     -0.12      0.00
  -10    7    8     -0.25      0.00
  -10    7    7     -1.21      0.00
  -10    7    6     -1.16      0.00
  -10    7    5     -1.20      0.00
  -10    7    4     -0.20      0.00
  -10    7    3      0.30      0.00
  -10    7    2      0.51      0.00
  -10    7    1      0.35      0.00
  -10    7    0     -0.05      0.00
  -10    6   12     -0.72      0.00
  -10    6   11     -0.92      0.00
  -10    6   10      0.16      0.00
  -10    6    9     -0.24      0.00
  -10    6    8     -0.63      0.00
  -10    6    7      0.17      0.00
  -10    6    6      0.38      0.00
  -10    6    5      1.31      0.00
  -10    6    4      1.30      0.00
  -10    6    3      0.76      0.00
  -10    6    2      0.38      0.00
  -10    6    1     -0.08      0.00
  -10    6    0      0.21      0.00
  -10    5   12      0.07      0.00
  -10    5   11      0.86      0.00
  -10    5   10      0.24      0.00
  -10    5    9      0.22      0.00
  -10    5    8      0.92      0.00
  -10    5    7      0.70      0.00
  -10    5    6      1.08      0.00
  -10    5    5      0.38      0.00
  -10    5    3     -0.68      0.00
  -10    5    2     -0.80      0.00
  -10    5    1     -0.30      0.00
  -10    5    0     -0.39      0.00
   10   -5    1     -0.14      0.00
  -10    4   13      0.49      0.00
  -10    4   12      0.45      0.00
  -10    4   11     -0.29      0.00
  -10    4   10     -0.12      0.00
  -10    4    9      0.24      0.00
  -10    4    8     -0.13      0.00
  -10    4    7     -0.01      0.00
  -10    4    6     -0.88      0.00
  -10    4    5     -1.44      0.00
  -10    4    4     -0.80      0.00
  -10    4    3     -0.44      0.00
  -10    4    2      0.11      0.00
  -10    4    1      0.01      0.00
  -10    4    0      0.14      0.00
   10   -4    1      0.01      0.00
  -10    3   13     -0.36      0.00
  -10    3   12     -0.52      0.00
  -10    3   11     -0.02      0.00
  -10    3   10      0.22      0.00
  -10    3    9     -0.02      0.00
  -10    3    8     -0.16      0.00
  -10    3    7     -0.88      0.00
  -10    3    6     -0.76      0.00
  -10    3    5      0.41      0.00
  -10    3    4      0.70      0.00
  -10    3    3      0.73      0.00
  -10    3    2      0.43      0.00
  -10    3    1      0.38      0.00
  -10    3    0      0.17      0.00
   10   -3    1      0.27      0.00
  -10    2   12      0.58      0.00
  -10    2   11      0.39      0.00
  -10    2   10     -0.04      0.00
  -10    2    9     -0.55      0.00
  -10    2    8     -0.72      0.00
  -10    2    7      0.07      0.00
  -10    2    6      1.20      0.00
  -10    2    5      0.89      0.00
  -10    2    4      0.31      0.00
  -10    2    3      0.09      0.00
  -10    2    2      0.05      0.00
  -10    2    1     -0.11      0.00
  -10    2    0      0.23      0.00
   10   -2    1      0.13      0.00
   10   -2    2     -0.72      0.00
  -10    1   12     -0.36      0.00
  -10    1   11     -0.65      0.00
  -10    1   10     -0.81      0.00
  -10    1    9      0.05      0.00
  -10    1    8      1.05      0.00
  -10    1    7      1.38      0.00
  -10    1    6      0.26      0.00
  -10    1    5     -0.53      0.00
  -10    1    4     -0.33      0.00
  -10    1    3     -0.39      0.00
  -10    1    2     -0.47      0.00
  -10    1    1     -0.11      0.00
  -10    1    0     -0.74      0.00
   10   -1    1     -1.13      0.00
   10   -1    3      0.11      0.00
  -10    0   14     -0.60      0.00
  -10    0   13     -0.64      0.00
  -10    0   12     -0.25      0.00
  -10    0   11      0.14      0.00
  -10    0   10      1.23      0.00
  -10    0    9      1.19      0.00
  -10    0    8      0.24      0.00
  -10    0    7     -1.16      0.00
  -10    0    6     -1.35      0.00
  -10    0    5     -0.51      0.00
  -10    0    4     -0.56      0.00
  -10    0    3     -0.37      0.00
  -10    0    2      0.01      0.00
  -10    0    1     -0.60      0.00
   10    0    0      0.02      0.00
   10    0    1      1.26      0.00
   10    0    2      0.86      0.00
   10    0    4      0.37      0.00
   10    0    5     -0.03      0.00
   10    0   15      0.54      0.00
   10    0   16      0.23      0.00
   10    0   17      0.39      0.00
  -10   -1   12      0.49      0.00
  -10   -1   11      0.72      0.00
  -10   -1   10     -0.44      0.00
  -10   -1    9     -1.48      0.00
  -10   -1    8     -1.65      0.00
  -10   -1    7     -0.57      0.00
  -10   -1    6      0.62      0.00
  -10   -1    5      0.41      0.00
  -10   -1    4      0.71      0.00
  -10   -1    3      0.83      0.00
  -10   -1    2      0.32      0.00
  -10   -1    1      1.30      0.00
   10    1    0      1.50      0.00
   10    1    1      0.08      0.00
   10    1    2     -0.13      0.00
   10    1    3     -0.93      0.00
   10    1    4     -1.12      0.00
   10    1    5     -0.57      0.00
   10    1    6     -0.52      0.00
   10    1   12     -0.60      0.00
   10    1   14      0.12      0.00
   10    1   15     -0.25      0.00
   10    1   17     -1.02      0.00
  -10   -2   13      0.00      0.00
  -10   -2   12     -0.16      0.00
  -10   -2   11     -0.94      0.00
  -10   -2   10     -0.72      0.00
  -10   -2    9      0.44      0.00
  -10   -2    8      1.56      0.00
  -10   -2    7      1.68      0.00
  -10   -2    6      0.73      0.00
  -10   -2    5      0.62      0.00
  -10   -2    4      0.17      0.00
  -10   -2    3     -0.24      0.00
  -10   -2    2      0.38      0.00
  -10   -2    1     -0.53      0.00
   10    2    0     -1.76      0.00
   10    2    1     -1.28      0.00
   10    2    2     -1.36      0.00
   10    2    3     -0.48      0.00
   10    2    4      0.66      0.00
   10    2    5      0.71      0.00
   10    2    6      1.19      0.00
   10    2    7      0.39      0.00
   10    2    8      0.29      0.00
   10    2    9     -0.25      0.00
   10    2   10     -1.48      0.00
   10    2   11     -0.75      0.00
   10    2   12     -0.07      0.00
   10    2   14     -0.14      0.00
   10    2   15     -0.19      0.00
   10    2   16     -0.49      0.00
   10    2   17      0.40      0.00
   10    2   18      1.41      0.00
  -10   -3   12     -0.02      0.00
  -10   -3   11      0.59      0.00
  -10   -3   10      1.27      0.00
  -10   -3    9      0.82      0.00
  -10   -3    8     -0.29      0.00
  -10   -3    7     -1.19      0.00
  -10   -3    6     -1.04      0.00
  -10   -3    5     -1.18      0.00
  -10   -3    4     -0.85      0.00
  -10   -3    3     -0.38      0.00
  -10   -3    2     -1.19      0.00
  -10   -3    1     -1.01      0.00
   10    3    0      0.20      0.00
   10    3    1      0.65      0.00
   10    3    2      1.55      0.00
   10    3    3      1.73      0.00
   10    3    4      0.78      0.00
   10    3    5      0.22      0.00
   10    3    6     -0.84      0.00
   10    3    8     -0.92      0.00
   10    3    9     -1.02      0.00
   10    3   10      0.56      0.00
   10    3   11      0.83      0.00
   10    3   12      0.51      0.00
   10    3   13      0.11      0.00
   10    3   14      0.04      0.00
   10    3   15      0.15      0.00
   10    3   16      0.95      0.00
   10    3   17      0.87      0.00
   10    3   18     -0.77      0.00
   10    3   19     -0.17      0.00
  -10   -4   13     -0.04      0.00
  -10   -4   12     -0.07      0.00
  -10   -4   11     -0.19      0.00
  -10   -4   10     -1.15      0.00
  -10   -4    9     -1.48      0.00
  -10   -4    8     -0.89      0.00
  -10   -4    7     -0.06      0.00
  -10   -4    6      0.30      0.00
  -10   -4    5      0.86      0.00
  -10   -4    4      0.73      0.00
  -10   -4    3      0.21      0.00
  -10   -4    2      0.96      0.00
  -10   -4    1      1.39      0.00
   10    4    0      1.24      0.00
   10    4    1      0.97      0.00
   10    4    2     -0.06      0.00
   10    4    3     -1.07      0.00
   10    4    4     -1.45      0.00
   10    4    5     -1.27      0.00
   10    4    6     -0.24      0.00
   10    4    7      0.00      0.00
   10    4    8      0.52      0.00
   10    4    9      1.46      0.00
   10    4   10      0.56      0.00
   10    4   11     -0.03      0.00
   10    4   12     -0.22      0.00
   10    4   13     -0.10      0.00
   10    4   14      0.25      0.00
   10    4   15      0.48      0.00
   10    4   16     -0.27      0.00
   10    4   17     -1.25      0.00
   10    4   18     -0.06      0.00
  -10   -5   12     -0.12      0.00
  -10   -5   10      0.53      0.00
  -10   -5    9      1.39      0.00
  -10   -5    8      1.36      0.00
  -10   -5    7      1.02      0.00
  -10   -5    6      0.69      0.00
  -10   -5    5     -0.20      0.00
  -10   -5    4     -0.40      0.00
  -10   -5    3      0.19      0.00
  -10   -5    2     -0.27      0.00
  -10   -5    1     -0.43      0.00
   10    5    0     -1.00      0.00
   10    5    1     -1.48      0.00
   10    5    2     -1.10      0.00
   10    5    3     -0.73      0.00
   10    5    4      0.57      0.00
   10    5    5      1.26      0.00
   10    5    6      0.66      0.00
   10    5    7      0.84      0.00
   10    5    8      0.46      0.00
   10    5    9     -0.73      0.00
   10    5   10     -0.56      0.00
   10    5   11     -0.35      0.00
   10    5   12     -0.08      0.00
   10    5   13      0.15      0.00
   10    5   14     -0.22      0.00
   10    5   15     -0.84      0.00
   10    5   16     -0.83      0.00
   10    5   17      0.42      0.00
   10    5   18      0.00      0.00
   10    5   19      0.20      0.00
  -10   -6   11      0.91      0.00
  -10   -6   10      0.48      0.00
  -10   -6    9     -0.60      0.00
  -10   -6    8     -1.03      0.00
  -10   -6    7     -1.28      0.00
  -10   -6    6     -1.43      0.00
  -10   -6    5     -0.61      0.00
  -10   -6    4      0.06      0.00
  -10   -6    3     -0.34      0.00
  -10   -6    2      0.16      0.00
  -10   -6    1     -0.23      0.00
   10    6    0      0.04      0.00
   10    6    1      0.82      0.00
   10    6    2      0.57      0.00
   10    6    3      1.56      0.00
   10    6    4      0.69      0.00
   10    6    5     -0.57      0.00
   10    6    6     -0.09      0.00
   10    6    7     -0.83      0.00
   10    6    8     -0.87      0.00
   10    6    9      0.14      0.00
   10    6   10      0.04      0.00
   10    6   11      0.17      0.00
   10    6   12      0.06      0.00
   10    6   13     -0.46      0.00
   10    6   14     -0.35      0.00
   10    6   15      0.21      0.00
   10    6   16      0.90      0.00
   10    6   17      0.28      0.00
   10    6   18      0.47      0.00
   10    6   20     -0.48      0.00
  -10   -7   11     -1.05      0.00
  -10   -7   10     -1.31      0.00
  -10   -7    9     -0.57      0.00
  -10   -7    8     -0.03      0.00
  -10   -7    7      0.64      0.00
  -10   -7    6      1.43      0.00
  -10   -7    5      1.37      0.00
  -10   -7    4      0.61      0.00
  -10   -7    3      0.83      0.00
  -10   -7    2     -0.06      0.00
  -10   -7    1      0.07      0.00
   10    7    0      0.24      0.00
   10    7    1     -0.61      0.00
   10    7    2      0.41      0.00
   10    7    3     -0.98      0.00
   10    7    4     -1.24      0.00
   10    7    5      0.26      0.00
   10    7    6     -0.52      0.00
   10    7    7      0.39      0.00
   10    7    8      0.85      0.00
   10    7    9     -0.18      0.00
   10    7   10      0.07      0.00
   10    7   11     -0.13      0.00
   10    7   12     -0.31      0.00
   10    7   13      0.35      0.00
   10    7   14      0.58      0.00
   10    7   15      0.53      0.00
   10    7   16     -0.03      0.00
   10    7   17      0.06      0.00
   10    7   18     -0.28      0.00
   10    7   19     -0.84      0.00
  -10   -8   11      0.40      0.00
  -10   -8   10      1.20      0.00
  -10   -8    9      1.19      0.00
  -10   -8    8      1.18      0.00
  -10   -8    7      0.67      0.00
  -10   -8    6     -0.19      0.00
  -10   -8    5     -1.12      0.00
  -10   -8    4     -0.98      0.00
  -10   -8    3     -1.52      0.00
  -10   -8    2     -0.91      0.00
  -10   -8    1     -0.38      0.00
   10    8    0     -0.54      0.00
   10    8    1      0.96      0.00
   10    8    2     -0.42      0.00
   10    8    3      0.20      0.00
   10    8    4      1.40      0.00
   10    8    5     -0.27      0.00
   10    8    6      0.69      0.00
   10    8    7      0.03      0.00
   10    8    8     -1.02      0.00
   10    8    9      0.15      0.00
   10    8   10     -0.09      0.00
   10    8   11      0.03      0.00
   10    8   12      0.61      0.00
   10    8   13      0.16      0.00
   10    8   14     -0.07      0.00
   10    8   15     -0.21      0.00
   10    8   16     -0.23      0.00
   10    8   17     -0.53      0.00
   10    8   18     -0.47      0.00
   10    8   19      0.56      0.00
  -10   -9    9     -0.61      0.00
  -10   -9    8     -1.32      0.00
  -10   -9    7     -1.39      0.00
  -10   -9    6     -1.42      0.00
  -10   -9    5     -0.46      0.00
  -10   -9    4     -0.01      0.00
  -10   -9    3      0.90      0.00
  -10   -9    2      1.54      0.00
  -10   -9    1      1.21      0.00
   10    9    0      1.68      0.00
   10    9    1     -0.38      0.00
   10    9    2      0.12      0.00
   10    9    3      0.34      0.00
   10    9    4     -1.52      0.00
   10    9    5      0.05      0.00
   10    9    6     -0.72      0.00
   10    9    7     -0.64      0.00
   10    9    8      1.07      0.00
   10    9    9      0.10      0.00
   10    9   10      0.19      0.00
   10    9   11      0.40      0.00
   10    9   12     -0.31      0.00
   10    9   13     -0.11      0.00
   10    9   14     -0.06      0.00
   10    9   15     -0.39      0.00
   10    9   16     -0.43      0.00
   10    9   17      0.09      0.00
   10    9   18      0.73      0.00
   10    9   19      0.06      0.00
  -10  -10    9     -0.49      0.00
  -10  -10    8      0.33      0.00
  -10  -10    7      0.55      0.00
  -10  -10    6      1.51      0.00
  -10  -10    5      1.63      0.00
  -10  -10    4      1.38      0.00
  -10  -10    3      1.16      0.00
  -10  -10    2     -0.23      0.00
  -10  -10    1     -0.73      0.00
   10   10    0     -2.20      0.00
   10   10    1     -1.01      0.00
   10   10    2     -0.49      0.00
   10   10    3     -1.15      0.00
   10   10    4      1.06      0.00
   10   10    5      0.19      0.00
   10   10    6      0.63      0.00
   10   10    7      1.34      0.00
   10   10    8     -0.63      0.00
   10   10    9     -0.16      0.00
   10   10   10      0.03      0.00
   10   10   11     -0.45      0.00
   10   10   12      0.03      0.00
   10   10   13     -0.23      0.00
   10   10   14     -0.68      0.00
   10   10   15     -0.13      0.00
   10   10   16      0.58      0.00
   10   10   17      0.59      0.00
   10   10   18     -0.23      0.00
  -10  -11    8      0.47      0.00
  -10  -11    7      0.80      0.00
  -10  -11    6      0.11      0.00
  -10  -11    5     -0.90      0.00
  -10  -11    4     -0.99      0.00
  -10  -11    3     -2.12      0.00
  -10  -11    2     -1.63      0.00
  -10  -11    1     -1.17      0.00
   10   11    0      0.61      0.00
   10   11    1      1.23      0.00
   10   11    2      0.74      0.00
   10   11    3      1.87      0.00
   10   11    4      0.11      0.00
   10   11    5      0.05      0.00
   10   11    6     -0.18      0.00
   10   11    7     -1.63      0.00
   10   11    8      0.00      0.00
   10   11    9      0.22      0.00
   10   11   10     -0.21      0.00
   10   11   11      0.06      0.00
   10   11   12     -0.45      0.00
   10   11   13     -0.36      0.00
   10   11   14      0.76      0.00
   10   11   15      1.04      0.00
   10   11   16      0.29      0.00
   10   11   17     -0.40      0.00
  -10  -12    7     -0.88      0.00
  -10  -12    6     -1.32      0.00
  -10  -12    5     -0.42      0.00
  -10  -12    4     -0.77      0.00
  -10  -12    3      0.61      0.00
  -10  -12    2      1.44      0.00
  -10  -12    1      1.90      0.00
   10   12    0      1.44      0.00
   10   12    1      0.10      0.00
   10   12    2      0.09      0.00
   10   12    3     -1.45      0.00
   10   12    4     -1.03      0.00
   10   12    5     -0.66      0.00
   10   12    6     -0.57      0.00
   10   12    7      1.34      0.00
   10   12    8      0.62      0.00
   10   12    9     -0.22      0.00
   10   12   10     -0.13      0.00
   10   12   11     -0.26      0.00
   10   12   12      0.51      0.00
   10   12   13      1.31      0.00
   10   12   14      0.51      0.00
   10   12   15     -0.68      0.00
   10   12   16     -0.77      0.00
   10   12   17     -0.28      0.00
  -10  -13    6      0.91      0.00
  -10  -13    5      0.44      0.00
  -10  -13    4      1.36      0.00
  -10  -13    3      1.14      0.00
  -10  -13    2      0.23      0.00
  -10  -13    1     -0.41      0.00
   10   13    0     -1.46      0.00
   10   13    1     -0.97      0.00
   10   13    2     -1.08      0.00
   10   13    3      0.00      0.00
   10   13    4      0.80      0.00
   10   13    5      1.00      0.00
   10   13    6      1.37      0.00
   10   13    7     -0.45      0.00
   10   13    8     -1.01      0.00
   10   13    9     -0.32      0.00
   10   13   10      0.21      0.00
   10   13   11      0.86      0.00
   10   13   12      0.54      0.00
   10   13   13     -0.89      0.00
   10   13   14     -1.43      0.00
   10   13   15     -0.52      0.00
  -10  -14    2     -0.75      0.00
  -10  -14    1     -0.98      0.00
   10   14    0      0.05      0.00
   10   14    1      0.38      0.00
   10   14    2      0.87      0.00
   10   14    3      1.04      0.00
   10   14    4      0.27      0.00
   10   14    5     -0.50      0.00
   10   14    6     -1.66      0.00
   10   14    7     -0.84      0.00
   10   14    8      0.49      0.00
   10   14    9      0.87      0.00
   10   14   10      0.53      0.00
   10   14   11     -0.55      0.00
   10   14   12     -1.32      0.00
  -10  -15    1      0.63      0.00
   10   15    0      0.52      0.00
   10   15    1      0.32      0.00
   10   15    2      0.16      0.00
   10   15    3     -0.78      0.00
   10   15    4     -1.03      0.00
   10   15    5     -0.59      0.00
   10   15    6      0.83      0.00
   10   15    7      1.45      0.00
   10   15    8      0.73      0.00
   10   15    9     -0.37      0.00
   10   15   11     -0.49      0.00
   10   16    5      1.18      0.00
   10   16    6      0.56      0.00
  -11   10    3      0.30      0.00
  -11    9    8     -0.03      0.00
  -11    9    7     -0.26      0.00
  -11    9    6      0.30      0.00
  -11    9    4      1.41      0.00
  -11    8    8      0.06      0.00
  -11    8    7      0.69      0.00
  -11    8    5      0.49      0.00
  -11    8    4     -0.64      0.00
  -11    8    3     -1.20      0.00
  -11    8    2     -1.10      0.00
  -11    8    1     -0.34      0.00
  -11    7    9     -0.11      0.00
  -11    7    8      0.11      0.00
  -11    7    7     -0.40      0.00
  -11    7    6     -0.64      0.00
  -11    7    4     -1.09      0.00
  -11    7    3     -0.11      0.00
  -11    7    2      0.50      0.00
  -11    7    1      0.51      0.00
  -11    6   11     -0.53      0.00
  -11    6   10      0.36      0.00
  -11    6    9      0.08      0.00
  -11    6    8     -0.34      0.00
  -11    6    7     -0.23      0.00
  -11    6    6     -0.61      0.00
  -11    6    5      0.61      0.00
  -11    6    4      1.42      0.00
  -11    6    1      0.20      0.00
  -11    5   11      0.62      0.00
  -11    5   10      0.01      0.00
  -11    5    9     -0.05      0.00
  -11    5    8      0.16      0.00
  -11    5    7      0.04      0.00
  -11    5    6      1.26      0.00
  -11    5    5      1.11      0.00
  -11    5    4     -0.02      0.00
  -11    5    3     -0.35      0.00
  -11    5    1     -0.45      0.00
  -11    5    0     -0.45      0.00
  -11    4   10     -0.17      0.00
  -11    4    9     -0.08      0.00
  -11    4    8      0.01      0.00
  -11    4    7      0.81      0.00
  -11    4    6     -0.17      0.00
  -11    4    5     -1.26      0.00
  -11    4    4     -0.91      0.00
  -11    4    3     -0.80      0.00
  -11    4    2     -0.31      0.00
  -11    4    1     -0.17      0.00
  -11    3   12     -0.31      0.00
  -11    3   11      0.13      0.00
  -11    3   10      0.10      0.00
  -11    3    9      0.37      0.00
  -11    3    8      0.50      0.00
  -11    3    7     -0.77      0.00
  -11    3    6     -1.15      0.00
  -11    3    5     -0.11      0.00
  -11    3    4      0.20      0.00
  -11    3    3      0.54      0.00
  -11    3    2      0.58      0.00
  -11    3    1      0.46      0.00
  -11    3    0      0.31      0.00
   11   -3    1      0.56      0.00
  -11    2   10      0.36      0.00
  -11    2    9     -0.22      0.00
  -11    2    8     -1.09      0.00
  -11    2    7     -0.52      0.00
  -11    2    6      0.78      0.00
  -11    2    5      0.81      0.00
  -11    2    4      0.67      0.00
  -11    2    3      0.52      0.00
  -11    2    2      0.14      0.00
  -11    2    1      0.01      0.00
  -11    2    0      0.35      0.00
   11   -2    1      0.07      0.00
   11   -2    2     -0.74      0.00
  -11    1   12     -0.25      0.00
  -11    1   11     -0.17      0.00
  -11    1   10     -0.81      0.00
  -11    1    9     -0.58      0.00
  -11    1    8      0.60      0.00
  -11    1    7      1.40      0.00
  -11    1    6      0.70      0.00
  -11    1    5      0.00      0.00
  -11    1    4     -0.18      0.00
  -11    1    3     -0.67      0.00
  -11    1    2     -0.54      0.00
  -11    1    1     -0.17      0.00
  -11    1    0     -0.89      0.00
   11   -1    1     -1.09      0.00
   11   -1    2     -0.28      0.00
   11   -1    3     -0.17      0.00
  -11    0   10      0.63      0.00
  -11    0    9      1.23      0.00
  -11    0    8      0.78      0.00
  -11    0    7     -0.58      0.00
  -11    0    6     -1.22      0.00
  -11    0    5     -0.88      0.00
  -11    0    4     -0.97      0.00
  -11    0    3     -0.28      0.00
  -11    0    2      0.13      0.00
  -11    0    1     -0.58      0.00
   11    0    0      0.18      0.00
   11    0    1      1.09      0.00
   11    0    2      0.72      0.00
   11    0    4      0.66      0.00
  -11   -1   11      0.59      0.00
  -11   -1   10      0.08      0.00
  -11   -1    9     -0.96      0.00
  -11   -1    8     -1.63      0.00
  -11   -1    7     -1.13      0.00
  -11   -1    6      0.07      0.00
  -11   -1    5      0.36      0.00
  -11   -1    4      1.15      0.00
  -11   -1    3      0.98      0.00
  -11   -1    2      0.22      0.00
  -11   -1    1      1.22      0.00
   11    1    0      1.11      0.00
   11    1    1      0.05      0.00
   11    1    2      0.16      0.00
   11    1    3     -0.78      0.00
   11    1    4     -1.15      0.00
   11    1    6     -0.67      0.00
  -11   -2   12      0.13      0.00
  -11   -2   11     -0.52      0.00
  -11   -2   10     -0.77      0.00
  -11   -2    8      1.03      0.00
  -11   -2    7      1.84      0.00
  -11   -2    6      1.35      0.00
  -11   -2    5      1.12      0.00
  -11   -2    4      0.01      0.00
  -11   -2    3     -0.62      0.00
  -11   -2    2      0.20      0.00
  -11   -2    1     -0.73      0.00
   11    2    0     -1.40      0.00
   11    2    1     -0.89      0.00
   11    2    2     -1.34      0.00
   11    2    3     -0.64      0.00
   11    2    4      0.44      0.00
   11    2    5      0.65      0.00
   11    2    6      1.17      0.00
   11    2    7      0.47      0.00
   11    2    9      0.16      0.00
   11    2   10     -0.77      0.00
   11    2   12     -0.28      0.00
  -11   -3   11      0.34      0.00
  -11   -3   10      1.11      0.00
  -11   -3    9      1.07      0.00
  -11   -3    8      0.49      0.00
  -11   -3    7     -0.74      0.00
  -11   -3    6     -1.32      0.00
  -11   -3    5     -1.90      0.00
  -11   -3    4     -1.30      0.00
  -11   -3    3     -0.29      0.00
  -11   -3    2     -0.96      0.00
  -11   -3    1     -0.46      0.00
   11    3    0      0.35      0.00
   11    3    1      0.38      0.00
   11    3    2      1.32      0.00
   11    3    3      1.61      0.00
   11    3    4      0.95      0.00
   11    3    5      0.36      0.00
   11    3    6     -0.73      0.00
   11    3    7     -0.73      0.00
   11    3    8     -0.72      0.00
   11    3    9     -0.90      0.00
   11    3   10      0.13      0.00
   11    3   12      0.34      0.00
   11    3   16      0.63      0.00
   11    3   17      0.79      0.00
  -11   -4   11     -0.01      0.00
  -11   -4   10     -0.90      0.00
  -11   -4    9     -1.36      0.00
  -11   -4    8     -1.56      0.00
  -11   -4    7     -1.04      0.00
  -11   -4    6     -0.20      0.00
  -11   -4    5      1.09      0.00
  -11   -4    4      1.42      0.00
  -11   -4    3      0.70      0.00
  -11   -4    2      1.25      0.00
  -11   -4    1      1.11      0.00
   11    4    0      0.81      0.00
   11    4    1      0.79      0.00
   11    4    2     -0.07      0.00
   11    4    3     -0.91      0.00
   11    4    4     -1.54      0.00
   11    4    5     -1.43      0.00
   11    4    6     -0.41      0.00
   11    4    7      0.05      0.00
   11    4    8      0.47      0.00
   11    4    9      1.08      0.00
   11    4   10      0.51      0.00
   11    4   11      0.24      0.00
   11    4   12      0.05      0.00
   11    4   13     -0.40      0.00
   11    4   14      0.04      0.00
   11    4   15      0.67      0.00
   11    4   16      0.10      0.00
  -11   -5   11     -0.61      0.00
  -11   -5   10      0.09      0.00
  -11   -5    9      0.73      0.00
  -11   -5    8      1.30      0.00
  -11   -5    7      1.84      0.00
  -11   -5    6      1.72      0.00
  -11   -5    5      0.53      0.00
  -11   -5    4     -0.40      0.00
  -11   -5    3     -0.23      0.00
  -11   -5    2     -0.91      0.00
  -11   -5    1     -0.83      0.00
   11    5    0     -1.04      0.00
   11    5    1     -1.37      0.00
   11    5    2     -0.93      0.00
   11    5    3     -0.80      0.00
   11    5    4      0.65      0.00
   11    5    5      1.44      0.00
   11    5    6      1.03      0.00
   11    5    7      0.98      0.00
   11    5    8      0.31      0.00
   11    5    9     -0.51      0.00
   11    5   10     -0.38      0.00
   11    5   12     -0.40      0.00
   11    5   13      0.29      0.00
   11    5   15     -0.56      0.00
   11    5   16     -0.65      0.00
   11    5   17     -0.11      0.00
  -11   -6   10      0.83      0.00
  -11   -6    9      0.30      0.00
  -11   -6    8     -0.05      0.00
  -11   -6    7     -1.10      0.00
  -11   -6    6     -1.94      0.00
  -11   -6    5     -1.60      0.00
  -11   -6    4     -0.80      0.00
  -11   -6    3     -0.75      0.00
  -11   -6    2      0.23      0.00
  -11   -6    1      0.16      0.00
   11    6    0      0.54      0.00
   11    6    1      1.23      0.00
   11    6    2      0.72      0.00
   11    6    3      1.82      0.00
   11    6    4      0.81      0.00
   11    6    5     -0.52      0.00
   11    6    6     -0.42      0.00
   11    6    7     -1.34      0.00
   11    6    8     -0.88      0.00
   11    6    9      0.00      0.00
   11    6   10     -0.16      0.00
   11    6   11      0.12      0.00
   11    6   12      0.39      0.00
   11    6   13     -0.21      0.00
   11    6   15     -0.05      0.00
   11    6   16      0.30      0.00
  -11   -7   10     -1.12      0.00
  -11   -7    8     -1.12      0.00
  -11   -7    7     -0.37      0.00
  -11   -7    6      0.81      0.00
  -11   -7    5      1.43      0.00
  -11   -7    4      1.28      0.00
  -11   -7    3      1.62      0.00
  -11   -7    2      0.67      0.00
  -11   -7    1      0.57      0.00
   11    7    0      0.26      0.00
   11    7    1     -0.99      0.00
   11    7    2      0.02      0.00
   11    7    3     -1.54      0.00
   11    7    4     -1.68      0.00
   11    7    5     -0.27      0.00
   11    7    6     -0.78      0.00
   11    7    7      0.82      0.00
   11    7    8      1.02      0.00
   11    7    9     -0.04      0.00
   11    7   10      0.33      0.00
   11    7   11      0.08      0.00
   11    7   12     -0.36      0.00
   11    7   13      0.07      0.00
   11    7   14      0.45      0.00
   11    7   15      0.34      0.00
   11    7   16      0.32      0.00
   11    7   17      0.35      0.00
  -11   -8    9      0.66      0.00
  -11   -8    8      1.40      0.00
  -11   -8    7      1.40      0.00
  -11   -8    6      0.78      0.00
  -11   -8    5     -0.17      0.00
  -11   -8    4     -0.56      0.00
  -11   -8    3     -1.55      0.00
  -11   -8    2     -1.37      0.00
  -11   -8    1     -1.34      0.00
   11    8    0     -1.47      0.00
   11    8    1      0.49      0.00
   11    8    2     -0.55      0.00
   11    8    3      0.53      0.00
   11    8    4      1.79      0.00
   11    8    5      0.39      0.00
   11    8    6      1.60      0.00
   11    8    7      0.14      0.00
   11    8    8     -1.06      0.00
   11    8    9      0.14      0.00
   11    8   10     -0.22      0.00
   11    8   11     -0.06      0.00
   11    8   13      0.16      0.00
   11    8   14     -0.13      0.00
   11    8   15      0.05      0.00
   11    8   16     -0.18      0.00
  -11   -9    8     -0.70      0.00
  -11   -9    7     -1.19      0.00
  -11   -9    6     -1.57      0.00
  -11   -9    5     -1.18      0.00
  -11   -9    4     -0.89      0.00
  -11   -9    3      0.02      0.00
  -11   -9    2      0.79      0.00
  -11   -9    1      1.25      0.00
   11    9    0      2.49      0.00
   11    9    1      0.66      0.00
   11    9    2      1.07      0.00
   11    9    3      0.75      0.00
   11    9    4     -1.30      0.00
   11    9    5     -0.05      0.00
   11    9    6     -1.64      0.00
   11    9    7     -1.19      0.00
   11    9    8      0.91      0.00
   11    9    9      0.01      0.00
   11    9   10      0.31      0.00
   11    9   12     -0.57      0.00
   11    9   13     -0.29      0.00
   11    9   14      0.08      0.00
   11    9   15     -0.35      0.00
   11    9   16     -0.43      0.00
   11    9   17      0.11      0.00
  -11  -10    7      0.00      0.00
  -11  -10    6      0.83      0.00
  -11  -10    5      1.28      0.00
  -11  -10    4      1.48      0.00
  -11  -10    3      1.68      0.00
  -11  -10    2      0.99      0.00
  -11  -10    1      0.50      0.00
   11   10    0     -1.71      0.00
   11   10    1     -1.35      0.00
   11   10    2     -1.43      0.00
   11   10    3     -2.00      0.00
   11   10    4      0.25      0.00
   11   10    5     -0.59      0.00
   11   10    6      0.88      0.00
   11   10    7      1.94      0.00
   11   10    8     -0.30      0.00
   11   10    9     -0.04      0.00
   11   10   10     -0.43      0.00
   11   10   12      0.34      0.00
   11   10   13      0.35      0.00
   11   10   14     -0.31      0.00
   11   10   15     -0.04      0.00
   11   10   16      0.49      0.00
   11   10   17      0.43      0.00
  -11  -11    6      0.56      0.00
  -11  -11    4     -0.26      0.00
  -11  -11    3     -1.43      0.00
  -11  -11    2     -1.78      0.00
  -11  -11    1     -2.28      0.00
   11   11    0     -0.74      0.00
   11   11    1      0.33      0.00
   11   11    2      0.66      0.00
   11   11    3      2.21      0.00
   11   11    4      0.76      0.00
   11   11    5      1.28      0.00
   11   11    6      0.48      0.00
   11   11    7     -1.84      0.00
   11   11    8     -0.51      0.00
   11   11    9     -0.38      0.00
   11   11   11      1.01      0.00
   11   11   12      0.09      0.00
   11   11   14      0.22      0.00
   11   11   15      0.52      0.00
   11   11   16      0.10      0.00
  -11  -12    5     -0.55      0.00
  -11  -12    3     -0.43      0.00
  -11  -12    2      0.35      0.00
  -11  -12    1      1.64      0.00
   11   12    0      2.13      0.00
   11   12    1      1.24      0.00
   11   12    2      1.00      0.00
   11   12    3     -0.84      0.00
   11   12    4     -0.75      0.00
   11   12    5     -1.38      0.00
   11   12    6     -1.74      0.00
   11   12    7      0.73      0.00
   11   12    8      0.75      0.00
   11   12    9      0.86      0.00
   11   12   14      0.28      0.00
  -11  -13    3      1.29      0.00
  -11  -13    2      1.19      0.00
  -11  -13    1      0.68      0.00
   11   13    0     -0.95      0.00
   11   13    1     -1.18      0.00
   11   13    2     -1.67      0.00
   11   13    3     -0.84      0.00
   11   13    4     -0.27      0.00
   11   13    5      0.50      0.00
   11   13    6      1.99      0.00
   11   13    7      0.66      0.00
   11   13    8     -0.09      0.00
   11   13    9     -0.76      0.00
  -11  -14    1     -1.61      0.00
   11   14    0     -0.74      0.00
   11   14    1     -0.19      0.00
   11   14    2      0.56      0.00
   11   14    3      1.11      0.00
   11   14    5      0.73      0.00
   11   14    7     -1.24      0.00
   11   14    8     -0.87      0.00
   11   14    9     -0.08      0.00
   11   15    4     -0.71      0.00
   11   15    5     -1.21      0.00
  -12    6    7      0.25      0.00
  -12    6    6     -0.84      0.00
  -12    6    5     -0.26      0.00
  -12    5    8     -0.21      0.00
  -12    5    7     -0.83      0.00
  -12    5    6      0.47      0.00
  -12    5    5      0.96      0.00
  -12    5    3      0.28      0.00
  -12    5    2     -0.32      0.00
  -12    5    1     -0.40      0.00
  -12    4    6      0.52      0.00
  -12    4    5     -0.39      0.00
  -12    4    4     -0.40      0.00
  -12    4    3     -0.85      0.00
  -12    4    2     -0.53      0.00
  -12    4    1     -0.22      0.00
  -12    3   11      0.17      0.00
  -12    3   10     -0.18      0.00
  -12    3    9      0.43      0.00
  -12    3    8      1.07      0.00
  -12    3    7     -0.10      0.00
  -12    3    6     -0.78      0.00
  -12    3    5     -0.40      0.00
  -12    3    3      0.14      0.00
  -12    3    2      0.44      0.00
  -12    3    1      0.25      0.00
  -12    3    0      0.23      0.00
  -12    2   10      0.58      0.00
  -12    2    9      0.25      0.00
  -12    2    8     -0.90      0.00
  -12    2    7     -0.82      0.00
  -12    2    6     -0.02      0.00
  -12    2    5      0.20      0.00
  -12    2    4      0.68      0.00
  -12    2    3      0.69      0.00
  -12    2    2      0.21      0.00
  -12    2    1      0.24      0.00
  -12    2    0      0.55      0.00
  -12    1    8     -0.01      0.00
  -12    1    7      0.79      0.00
  -12    1    4      0.23      0.00
  -12    1    3     -0.49      0.00
  -12    1    2     -0.33      0.00
  -12    1    1     -0.17      0.00
  -12    1    0     -0.98      0.00
   12   -1    1     -1.04      0.00
   12   -1    2     -0.26      0.00
  -12    0    5     -0.83      0.00
  -12    0    4     -1.19      0.00
  -12    0    3     -0.41      0.00
  -12    0    2     -0.12      0.00
  -12    0    1     -0.68      0.00
   12    0    0      0.26      0.00
   12    0    3      0.90      0.00
  -12   -1    9     -0.41      0.00
  -12   -1    6     -0.69      0.00
  -12   -1    5     -0.23      0.00
  -12   -1    4      0.95      0.00
  -12   -1    3      0.88      0.00
  -12   -1    2      0.32      0.00
  -12   -1    1      1.31      0.00
   12    1    0      0.92      0.00
   12    1    1     -0.05      0.00
   12    1    2      0.07      0.00
   12    1    3     -0.72      0.00
   12    1    4     -0.87      0.00
   12    1    5     -0.45      0.00
  -12   -2   10     -0.47      0.00
  -12   -2    8      0.24      0.00
  -12   -2    6      1.45      0.00
  -12   -2    5      1.66      0.00
  -12   -2    4      0.46      0.00
  -12   -2    3     -0.30      0.00
  -12   -2    2      0.26      0.00
  -12   -2    1     -0.88      0.00
   12    2    0     -1.28      0.00
   12    2    1     -0.71      0.00
   12    2    2     -1.05      0.00
   12    2    3     -0.36      0.00
   12    2    4      0.39      0.00
   12    2    5      0.43      0.00
  -12   -3   10      0.85      0.00
  -12   -3    9      0.84      0.00
  -12   -3    8      0.96      0.00
  -12   -3    7      0.21      0.00
  -12   -3    6     -0.63      0.00
  -12   -3    5     -1.83      0.00
  -12   -3    4     -1.61      0.00
  -12   -3    3     -0.70      0.00
  -12   -3    2     -1.22      0.00
  -12   -3    1     -0.35      0.00
   12    3    0      0.42      0.00
   12    3    1      0.40      0.00
   12    3    2      1.17      0.00
   12    3    3      1.21      0.00
   12    3    4      0.74      0.00
   12    3    5      0.41      0.00
   12    3    6     -0.56      0.00
   12    3    8     -0.61      0.00
  -12   -4    9     -0.77      0.00
  -12   -4    8     -1.37      0.00
  -12   -4    7     -1.60      0.00
  -12   -4    6     -1.18      0.00
  -12   -4    5      0.28      0.00
  -12   -4    4      1.16      0.00
  -12   -4    3      0.84      0.00
  -12   -4    2      1.58      0.00
  -12   -4    1      1.21      0.00
   12    4    0      0.78      0.00
   12    4    1      0.68      0.00
   12    4    2     -0.20      0.00
   12    4    3     -0.71      0.00
   12    4    4     -1.26      0.00
   12    4    5     -1.37      0.00
   12    4    6     -0.65      0.00
   12    4    7      0.04      0.00
   12    4    8      0.56      0.00
   12    4    9      0.89      0.00
   12    4   10      0.33      0.00
   12    4   11      0.21      0.00
  -12   -5    9     -0.03      0.00
  -12   -5    5      1.43      0.00
  -12   -5    4      0.39      0.00
  -12   -5    3      0.18      0.00
  -12   -5    2     -0.88      0.00
  -12   -5    1     -0.93      0.00
   12    5    0     -1.15      0.00
   12    5    1     -1.43      0.00
   12    5    2     -0.82      0.00
   12    5    3     -0.81      0.00
   12    5    4      0.38      0.00
   12    5    5      1.20      0.00
   12    5    6      1.27      0.00
   12    5    7      1.27      0.00
   12    5    8      0.34      0.00
   12    5    9     -0.39      0.00
   12    5   10     -0.27      0.00
   12    5   11     -0.32      0.00
   12    5   13      0.13      0.00
   12    5   14      0.27      0.00
  -12   -6    8      0.86      0.00
  -12   -6    7     -0.04      0.00
  -12   -6    6     -1.17      0.00
  -12   -6    5     -1.65      0.00
  -12   -6    4     -1.37      0.00
  -12   -6    3     -1.35      0.00
  -12   -6    2     -0.26      0.00
  -12   -6    1     -0.13      0.00
   12    6    0      0.43      0.00
   12    6    1      1.31      0.00
   12    6    3      1.83      0.00
   12    6    4      1.06      0.00
   12    6    5      0.04      0.00
   12    6    6     -0.27      0.00
   12    6    7     -1.59      0.00
   12    6    9     -0.29      0.00
   12    6   10     -0.34      0.00
   12    6   11     -0.07      0.00
   12    6   12      0.41      0.00
   12    6   13      0.03      0.00
  -12   -7    7     -1.05      0.00
  -12   -7    6     -0.32      0.00
  -12   -7    5      0.54      0.00
  -12   -7    4      0.99      0.00
  -12   -7    3      1.63      0.00
  -12   -7    2      0.98      0.00
  -12   -7    1      1.08      0.00
   12    7    0      0.79      0.00
   12    7    1     -0.63      0.00
   12    7    2      0.09      0.00
   12    7    3     -1.46      0.00
   12    7    4     -1.71      0.00
   12    7    5     -0.89      0.00
   12    7    6     -1.44      0.00
   12    7    7      0.57      0.00
   12    7    9      0.22      0.00
   12    7   10      0.58      0.00
   12    7   11      0.33      0.00
   12    7   12     -0.11      0.00
   12    7   13      0.06      0.00
  -12   -8    7      1.06      0.00
  -12   -8    6      1.11      0.00
  -12   -8    5      0.67      0.00
  -12   -8    4      0.15      0.00
  -12   -8    2     -0.86      0.00
  -12   -8    1     -1.27      0.00
   12    8    0     -1.83      0.00
   12    8    1     -0.21      0.00
   12    8    2     -1.03      0.00
   12    8    3      0.17      0.00
   12    8    4      1.31      0.00
   12    8    5      0.50      0.00
   12    8    6      2.23      0.00
   12    8    7      0.73      0.00
   12    8    9      0.28      0.00
   12    8   10     -0.31      0.00
   12    8   11     -0.09      0.00
   12    8   12      0.32      0.00
   12    8   13     -0.01      0.00
  -12   -9    6     -0.92      0.00
  -12   -9    5     -1.14      0.00
  -12   -9    3     -0.43      0.00
  -12   -9    2     -0.09      0.00
  -12   -9    1      0.37      0.00
   12    9    0      1.94      0.00
   12    9    1      0.88      0.00
   12    9    2      1.57      0.00
   12    9    3      1.21      0.00
   12    9    4     -0.47      0.00
   12    9    5      0.58      0.00
   12    9    6     -1.63      0.00
   12    9    7     -1.48      0.00
   12    9    8      0.24      0.00
   12    9    9     -0.43      0.00
   12    9   10      0.30      0.00
   12    9   11      0.12      0.00
   12    9   12     -0.69      0.00
  -12  -10    5      0.72      0.00
  -12  -10    4      0.93      0.00
  -12  -10    3      1.14      0.00
  -12  -10    2      1.09      0.00
   12   10    0     -0.57      0.00
   12   10    1     -0.64      0.00
   12   10    2     -1.33      0.00
   12   10    3     -2.02      0.00
   12   10    4     -0.31      0.00
   12   10    5     -1.51      0.00
   12   10    6      0.24      0.00
   12   10    7      1.60      0.00
   12   10    8      0.04      0.00
   12   10    9      0.52      0.00
   12   10   10     -0.46      0.00
   12   10   11     -0.85      0.00
   12   10   12      0.32      0.00
   12   10   13      0.53      0.00
  -12  -11    2     -0.86      0.00
  -12  -11    1     -1.88      0.00
   12   11    0     -1.28      0.00
   12   11    1     -0.63      0.00
   12   11    3      1.59      0.00
   12   11    4      0.56      0.00
   12   11    5      1.77      0.00
   12   11    7     -0.98      0.00
   12   11    8     -0.28      0.00
   12   11    9     -0.98      0.00
   12   11   10     -0.13      0.00
   12   11   11      1.23      0.00
   12   11   12      0.53      0.00
   12   12    0      1.53      0.00
   12   12    1      1.46      0.00
   12   12    2      1.45      0.00
   12   12    3     -0.08      0.00
   12   12    4      0.09      0.00
   12   12    5     -1.02      0.00
   12   12    7     -0.19      0.00
   12   12    9      1.07      0.00
   12   12   10      1.24      0.00
   12   12   12     -0.65      0.00
   12   13    0     -0.04      0.00
   12   13    1     -0.63      0.00
   12   13    2     -1.40      0.00
   12   13    3     -0.99      0.00
   12   13    4     -0.97      0.00
   12   13    5     -0.40      0.00
   12   13    6      1.29      0.00
   12   13    7      0.89      0.00
   12   13    8      1.07      0.00
   12   13   10     -1.43      0.00
   12   14    5      1.24      0.00
   12   14    6      0.11      0.00
   12   14    7     -0.38      0.00
  -13    3    3     -0.08      0.00
  -13    3    2      0.23      0.00
  -13    3    1     -0.01      0.00
  -13    2    5     -0.43      0.00
  -13    2    4      0.36      0.00
  -13    1    2      0.05      0.00
  -13    1    1      0.14      0.00
  -13    0    4     -0.79      0.00
  -13    0    3     -0.27      0.00
  -13    0    2     -0.23      0.00
  -13   -1    5     -0.63      0.00
  -13   -1    4      0.33      0.00
  -13   -1    3      0.31      0.00
  -13   -1    2      0.04      0.00
  -13   -1    1      0.98      0.00
   13    1    0      0.85      0.00
  -13   -2    5      1.39      0.00
  -13   -2    3      0.21      0.00
  -13   -2    2      0.63      0.00
   13    2    3     -0.13      0.00
   13    2    4      0.47      0.00
  -13   -3    6      0.23      0.00
  -13   -3    5     -0.92      0.00
  -13   -3    4     -1.08      0.00
  -13   -3    3     -0.66      0.00
  -13   -3    2     -1.27      0.00
  -13   -3    1     -0.59      0.00
   13    3    2      0.95      0.00
   13    3    3      0.82      0.00
   13    3    4      0.38      0.00
  -13   -4    7     -1.16      0.00
  -13   -4    6     -1.38      0.00
  -13   -4    5     -0.53      0.00
  -13   -4    4      0.26      0.00
  -13   -4    3      0.26      0.00
  -13   -4    2      1.14      0.00
  -13   -4    1      0.96      0.00
   13    4    0      0.86      0.00
   13    4    1      0.82      0.00
   13    4    2     -0.09      0.00
   13    4    3     -0.41      0.00
   13    4    4     -0.72      0.00
   13    4    5     -0.96      0.00
  -13   -5    7      0.46      0.00
  -13   -5    6      1.25      0.00
  -13   -5    5      1.37      0.00
  -13   -5    4      0.87      0.00
  -13   -5    2     -0.26      0.00
  -13   -5    1     -0.34      0.00
   13    5    0     -0.73      0.00
   13    5    1     -1.23      0.00
   13    5    2     -0.67      0.00
   13    5    3     -0.76      0.00
   13    5    4     -0.04      0.00
   13    5    5      0.52      0.00
   13    5    6      0.92      0.00
   13    5    7      1.28      0.00
   13    5    8      0.64      0.00
   13    5    9     -0.08      0.00
  -13   -6    6     -0.05      0.00
  -13   -6    4     -1.01      0.00
  -13   -6    3     -1.27      0.00
  -13   -6    2     -0.48      0.00
  -13   -6    1     -0.54      0.00
   13    6    0     -0.16      0.00
   13    6    1      0.77      0.00
   13    6    2      0.40      0.00
   13    6    3      1.32      0.00
   13    6    4      0.98      0.00
   13    6    5      0.57      0.00
   13    6    6      0.37      0.00
   13    6    7     -1.06      0.00
  -13   -7    4      0.27      0.00
  -13   -7    3      0.96      0.00
  -13   -7    2      0.54      0.00
  -13   -7    1      0.82      0.00
   13    7    0      0.93      0.00
   13    7    3     -0.72      0.00
   13    7    5     -0.80      0.00
   13    7    6     -1.76      0.00
   13    7    7     -0.19      0.00
   13    7    8      0.29      0.00
   13    7   10      0.64      0.00
  -13   -8    3     -0.34      0.00
  -13   -8    2     -0.22      0.00
   13    8    0     -1.18      0.00
   13    8    1     -0.18      0.00
   13    8    3     -0.28      0.00
   13    8    6      1.79      0.00
   13    8   10     -0.07      0.00
  -13   -9    3     -0.21      0.00
  -13   -9    1     -0.13      0.00
   13    9    1      0.24      0.00
   13    9    2      1.06      0.00
   13    9    3      0.97      0.00
   13    9    4      0.00      0.00
   13    9    5      1.21      0.00
   13    9    6     -0.75      0.00
   13    9    7     -0.92      0.00
   13   10    0     -0.14      0.00
   13   10    1      0.01      0.00
   13   10    2     -0.60      0.00
   13   10    3     -1.20      0.00
   13   10    4     -0.07      0.00
   13   10    5     -1.56      0.00
   13   10    7      0.59      0.00
   13   10    8     -0.24      0.00
   13   10    9      0.72      0.00
   13   11    1     -0.61      0.00
   13   11    2     -0.29      0.00
   13   11    3      0.80      0.00
   13   11    8      0.45      0.00
   13   11    9     -0.82      0.00
   13   12    7     -0.34      0.00
    1    0    0     22.89      0.00
    0    1    0    -11.17      0.00
   -7    3    0      0.69      0.00
  -12    4    0     -0.22      0.00
  -11    4    0     -0.05      0.00
  -12    5    0     -0.29      0.00
  -11    6    0      0.22      0.00
  -11    7    0      0.24      0.00
  -11    8    0     -0.14      0.00
  -10    9    0      0.30      0.00
  -10   10    0     -0.37      0.00
   -9   10    0      0.13      0.00
  -10   11    0      0.01      0.00
    9  -13    1      0.62      0.00
   10  -11    1     -0.73      0.00
   10  -10    1      0.18      0.00
   10   -9    1      0.37      0.00
   11   -9    1     -0.04      0.00
    5   -8    1     -0.25      0.00
   10   -8    1     -0.47      0.00
   11   -8    1     -0.20      0.00
   10   -7    1      0.32      0.00
   11   -7    1      0.35      0.00
   -2   -6    1     -1.83      0.00
    6   -6    1     -1.04      0.00
    7   -6    1     -0.68      0.00
   10   -6    1     -0.08      0.00
   11   -6    1     -0.06      0.00
   11   -5    1     -0.17      0.00
   12   -5    1     -0.03      0.00
    6   -4    1      1.76      0.00
    9   -4    1      0.30      0.00
   11   -4    1     -0.22      0.00
   12   -4    1     -0.45      0.00
   12   -3    1      0.64      0.00
   12   -2    1      0.11      0.00
    1   -1    1      3.17      0.00
    0    0    1     15.66      0.00
   12    0    1      1.00      0.00
   -7    2    1     -0.81      0.00
    1    4    1     -1.95      0.00
   -4    7    1      2.15      0.00
   -8    8    1     -0.79      0.00
   -8   12    1      0.39      0.00
    8  -14    2      0.79      0.00
   -4  -12    2     -0.43      0.00
    8  -12    2     -1.09      0.00
    9  -12    2     -0.78      0.00
    6  -11    2      1.44      0.00
    9  -11    2     -0.27      0.00
   10  -11    2     -0.57      0.00
    9  -10    2      0.96      0.00
   10  -10    2      0.60      0.00
    6   -9    2     -1.64      0.00
    7   -9    2     -1.29      0.00
    8   -9    2     -0.92      0.00
    9   -9    2     -0.50      0.00
   10   -9    2     -0.17      0.00
   11   -9    2     -0.15      0.00
    7   -8    2      0.55      0.00
    8   -8    2      0.09      0.00
    9   -8    2     -0.14      0.00
   10   -8    2     -0.08      0.00
   11   -8    2      0.13      0.00
    4   -7    2      2.79      0.00
    8   -7    2      0.49      0.00
    9   -7    2      0.25      0.00
   10   -7    2      0.01      0.00
   11   -7    2     -0.15      0.00
    8   -6    2     -0.60      0.00
    9   -6    2     -0.16      0.00
   10   -6    2      0.14      0.00
   11   -6    2      0.34      0.00
    5   -5    2     -1.53      0.00
    7   -5    2      0.25      0.00
    8   -5    2      0.31      0.00
    9   -5    2      0.07      0.00
   10   -5    2     -0.15      0.00
   11   -5    2     -0.33      0.00
   12   -5    2     -0.32      0.00
    5   -4    2      4.30      0.00
    8   -4    2      0.33      0.00
    9   -4    2      0.07      0.00
   10   -4    2     -0.19      0.00
   11   -4    2     -0.30      0.00
   12   -4    2     -0.42      0.00
    4   -3    2     -2.55      0.00
    5   -3    2     -1.22      0.00
   10   -3    2      0.73      0.00
   11   -3    2      0.99      0.00
   12   -3    2      1.04      0.00
   -1   -2    2     -9.50      0.00
    2   -2    2     -9.98      0.00
    3   -2    2     -6.04      0.00
   12   -2    2     -0.68      0.00
    2   -1    2      5.25      0.00
   10   -1    2     -0.15      0.00
   12    0    2      0.62      0.00
    0    2    2      3.60      0.00
   -8    3    2      0.26      0.00
  -11    5    2     -0.70      0.00
  -11    6    2      0.71      0.00
   12    6    2      0.80      0.00
    2    8    2     -3.22      0.00
  -10   10    2      0.13      0.00
    8  -13    3     -0.60      0.00
    9  -13    3      0.18      0.00
    9  -12    3     -0.83      0.00
    9  -11    3      0.47      0.00
   10  -11    3     -0.08      0.00
    7  -10    3     -0.48      0.00
    8  -10    3     -0.01      0.00
    9  -10    3      0.35      0.00
   10  -10    3      0.32      0.00
    8   -9    3     -0.75      0.00
    9   -9    3     -0.42      0.00
   10   -9    3      0.03      0.00
   11   -9    3      0.33      0.00
    7   -8    3      0.94      0.00
    8   -8    3      0.45      0.00
    9   -8    3     -0.11      0.00
   10   -8    3     -0.46      0.00
   11   -8    3     -0.55      0.00
    7   -7    3      0.09      0.00
    8   -7    3      0.21      0.00
    9   -7    3      0.35      0.00
   10   -7    3      0.37      0.00
   11   -7    3      0.35      0.00
    6   -6    3     -1.47      0.00
    7   -6    3     -0.85      0.00
    8   -6    3     -0.61      0.00
    9   -6    3     -0.23      0.00
   10   -6    3      0.14      0.00
   11   -6    3      0.33      0.00
   12   -6    3      0.41      0.00
    6   -5    3      0.09      0.00
    7   -5    3      0.62      0.00
    8   -5    3      0.65      0.00
    9   -5    3      0.03      0.00
   10   -5    3     -0.55      0.00
   11   -5    3     -0.81      0.00
   12   -5    3     -0.78      0.00
    5   -4    3      4.16      0.00
    6   -4    3      1.99      0.00
    7   -4    3      0.21      0.00
    8   -4    3     -0.12      0.00
    9   -4    3      0.23      0.00
   10   -4    3      0.42      0.00
   11   -4    3      0.42      0.00
   12   -4    3      0.26      0.00
    4   -3    3     -4.91      0.00
    5   -3    3     -3.60      0.00
    6   -3    3     -1.47      0.00
    7   -3    3     -0.53      0.00
    8   -3    3     -0.56      0.00
    9   -3    3     -0.33      0.00
   10   -3    3      0.19      0.00
   11   -3    3      0.47      0.00
   12   -3    3      0.57      0.00
    3   -2    3     -4.63      0.00
    4   -2    3     -2.38      0.00
    5   -2    3     -2.05      0.00
    6   -2    3     -1.52      0.00
   10   -2    3     -0.60      0.00
   11   -2    3     -0.69      0.00
   12   -2    3     -0.65      0.00
    3   -1    3      7.51      0.00
    4   -1    3      6.03      0.00
    9   -1    3      0.35      0.00
   12   -1    3     -0.14      0.00
   10    0    3      0.89      0.00
   11    0    3      1.08      0.00
    0    2    3     12.00      0.00
   -4    5    3      0.04      0.00
  -11    6    3      1.11      0.00
   -7   10    3     -0.52      0.00
   -7   11    3     -1.59      0.00
    9  -13    4     -0.30      0.00
    8  -12    4      0.11      0.00
    9  -12    4     -0.33      0.00
    8  -11    4      0.72      0.00
    9  -11    4      0.44      0.00
   10  -11    4     -0.08      0.00
    8  -10    4     -0.34      0.00
    9  -10    4      0.27      0.00
   10  -10    4      0.69      0.00
    7   -9    4     -0.45      0.00
    8   -9    4     -0.69      0.00
    9   -9    4     -0.80      0.00
   10   -9    4     -0.71      0.00
   11   -9    4     -0.54      0.00
    5   -8    4      1.95      0.00
    7   -8    4      1.28      0.00
    8   -8    4      0.98      0.00
    9   -8    4      0.49      0.00
   10   -8    4      0.08      0.00
   11   -8    4     -0.10      0.00
    6   -7    4     -0.26      0.00
    7   -7    4     -0.66      0.00
    8   -7    4     -0.45      0.00
    9   -7    4      0.11      0.00
   10   -7    4      0.48      0.00
   11   -7    4      0.57      0.00
    6   -6    4     -1.55      0.00
    7   -6    4     -0.33      0.00
    8   -6    4     -0.21      0.00
    9   -6    4     -0.40      0.00
   10   -6    4     -0.40      0.00
   11   -6    4     -0.29      0.00
   12   -6    4     -0.06      0.00
    3   -5    4      5.19      0.00
    5   -5    4      2.86      0.00
    6   -5    4      1.03      0.00
    7   -5    4      0.50      0.00
    8   -5    4      0.60      0.00
    9   -5    4      0.35      0.00
   10   -5    4     -0.12      0.00
   11   -5    4     -0.39      0.00
   12   -5    4     -0.49      0.00
   -2   -4    4      1.74      0.00
    4   -4    4      1.75      0.00
    5   -4    4      2.17      0.00
    6   -4    4      1.54      0.00
    7   -4    4      0.13      0.00
    8   -4    4     -0.45      0.00
    9   -4    4      0.00      0.00
   10   -4    4      0.45      0.00
   11   -4    4      0.50      0.00
   12   -4    4      0.38      0.00
    4   -3    4     -5.96      0.00
    5   -3    4     -4.96      0.00
    6   -3    4     -2.53      0.00
    7   -3    4     -0.56      0.00
    8   -3    4     -0.23      0.00
    9   -3    4     -0.46      0.00
   10   -3    4     -0.25      0.00
   11   -3    4      0.12      0.00
   12   -3    4      0.30      0.00
    4   -2    4      1.51      0.00
    5   -2    4      1.26      0.00
    6   -2    4      0.13      0.00
    7   -2    4      0.04      0.00
    8   -2    4      0.59      0.00
    9   -2    4      0.45      0.00
   10   -2    4     -0.24      0.00
   11   -2    4     -0.63      0.00
   12   -2    4     -0.67      0.00
    5   -1    4      3.82      0.00
    8   -1    4     -0.14      0.00
   10   -1    4      0.34      0.00
   11   -1    4      0.28      0.00
   12   -1    4      0.31      0.00
   -1    0    4     -9.60      0.00
   12    0    4      0.45      0.00
  -10    5    4     -0.56      0.00
    1    6    4      4.86      0.00
   -7   11    4     -0.45      0.00
    8  -14    5     -0.30      0.00
    8  -13    5     -0.32      0.00
    9  -13    5     -0.25      0.00
    7  -12    5      0.47      0.00
    8  -12    5      0.25      0.00
    9  -12    5     -0.21      0.00
    8  -11    5      0.67      0.00
    9  -11    5      0.78      0.00
   10  -11    5      0.71      0.00
    7  -10    5     -1.40      0.00
    8  -10    5     -1.02      0.00
    9  -10    5     -0.56      0.00
   10  -10    5     -0.18      0.00
    6   -9    5      0.66      0.00
    7   -9    5      0.61      0.00
    8   -9    5      0.18      0.00
    9   -9    5     -0.26      0.00
   10   -9    5     -0.45      0.00
   11   -9    5     -0.42      0.00
    7   -8    5      0.70      0.00
    8   -8    5      0.71      0.00
    9   -8    5      0.66      0.00
   10   -8    5      0.49      0.00
   11   -8    5      0.33      0.00
    6   -7    5     -0.87      0.00
    7   -7    5     -0.74      0.00
    8   -7    5     -0.67      0.00
    9   -7    5     -0.32      0.00
   10   -7    5      0.00      0.00
   11   -7    5      0.13      0.00
    4   -6    5     -1.83      0.00
    5   -6    5     -2.07      0.00
    6   -6    5     -1.26      0.00
    7   -6    5     -0.22      0.00
    8   -6    5      0.03      0.00
    9   -6    5     -0.26      0.00
   10   -6    5     -0.37      0.00
   11   -6    5     -0.23      0.00
   12   -6    5     -0.05      0.00
    5   -5    5      4.12      0.00
    6   -5    5      1.94      0.00
    7   -5    5      0.61      0.00
    8   -5    5      0.55      0.00
    9   -5    5      0.65      0.00
   10   -5    5      0.30      0.00
   11   -5    5     -0.13      0.00
   12   -5    5     -0.38      0.00
    4   -4    5     -2.01      0.00
    5   -4    5     -0.75      0.00
    6   -4    5      0.38      0.00
    7   -4    5      0.08      0.00
    8   -4    5     -0.68      0.00
    9   -4    5     -0.65      0.00
   10   -4    5     -0.08      0.00
   11   -4    5      0.28      0.00
   12   -4    5      0.39      0.00
    4   -3    5     -3.91      0.00
    5   -3    5     -3.91      0.00
    6   -3    5     -2.77      0.00
    7   -3    5     -0.84      0.00
    8   -3    5      0.21      0.00
    9   -3    5      0.13      0.00
   10   -3    5     -0.01      0.00
   11   -3    5      0.12      0.00
   12   -3    5      0.12      0.00
    2   -2    5      4.04      0.00
    5   -2    5      3.39      0.00
    6   -2    5      1.87      0.00
    7   -2    5      0.59      0.00
    8   -2    5      0.42      0.00
    9   -2    5      0.41      0.00
   10   -2    5     -0.10      0.00
   11   -2    5     -0.54      0.00
   12   -2    5     -0.50      0.00
    6   -1    5      1.07      0.00
    7   -1    5      0.35      0.00
    8   -1    5     -0.41      0.00
    9   -1    5     -0.31      0.00
   10   -1    5      0.25      0.00
   11   -1    5      0.45      0.00
   12   -1    5      0.41      0.00
   -1    0    5     -8.95      0.00
   11    0    5      0.13      0.00
   12    0    5      0.00      0.00
   11    1    5     -0.73      0.00
    9    3    5      0.19      0.00
    8  -14    6     -0.22      0.00
    8  -13    6     -0.17      0.00
    9  -13    6     -0.33      0.00
    8  -12    6      0.57      0.00
    9  -12    6      0.34      0.00
    8  -11    6     -0.05      0.00
    9  -11    6      0.17      0.00
   10  -11    6      0.28      0.00
    7  -10    6     -0.84      0.00
    8  -10    6     -0.73      0.00
    9  -10    6     -0.52      0.00
   10  -10    6     -0.32      0.00
    4   -9    6      1.38      0.00
    7   -9    6      0.81      0.00
    8   -9    6      0.46      0.00
    9   -9    6      0.09      0.00
   10   -9    6     -0.06      0.00
   11   -9    6     -0.07      0.00
    6   -8    6      0.82      0.00
    7   -8    6      0.51      0.00
    8   -8    6      0.59      0.00
    9   -8    6      0.61      0.00
   10   -8    6      0.38      0.00
   11   -8    6      0.15      0.00
    5   -7    6     -2.69      0.00
    6   -7    6     -1.52      0.00
    7   -7    6     -1.06      0.00
    8   -7    6     -1.03      0.00
    9   -7    6     -0.74      0.00
   10   -7    6     -0.23      0.00
   11   -7    6      0.11      0.00
    6   -6    6     -0.50      0.00
    7   -6    6      0.02      0.00
    8   -6    6      0.48      0.00
    9   -6    6      0.30      0.00
   10   -6    6     -0.05      0.00
   11   -6    6     -0.20      0.00
   12   -6    6     -0.25      0.00
    5   -5    6      3.74      0.00
    6   -5    6      2.56      0.00
    7   -5    6      0.99      0.00
    8   -5    6      0.28      0.00
    9   -5    6      0.24      0.00
   10   -5    6      0.10      0.00
   11   -5    6     -0.16      0.00
   12   -5    6     -0.19      0.00
    5   -4    6     -2.86      0.00
    6   -4    6     -1.41      0.00
    7   -4    6     -0.57      0.00
    8   -4    6     -0.65      0.00
    9   -4    6     -0.61      0.00
   10   -4    6     -0.06      0.00
   11   -4    6      0.36      0.00
   12   -4    6      0.36      0.00
   -2   -3    6     -2.77      0.00
    5   -3    6     -1.74      0.00
    6   -3    6     -1.63      0.00
    7   -3    6     -0.55      0.00
    8   -3    6      0.51      0.00
    9   -3    6      0.58      0.00
   10   -3    6      0.16      0.00
   11   -3    6      0.02      0.00
   12   -3    6      0.02      0.00
    5   -2    6      3.50      0.00
    6   -2    6      2.39      0.00
    7   -2    6      0.78      0.00
    8   -2    6     -0.11      0.00
    9   -2    6     -0.22      0.00
   10   -2    6     -0.33      0.00
   11   -2    6     -0.52      0.00
   12   -2    6     -0.37      0.00
    5   -1    6     -0.11      0.00
    6   -1    6     -0.09      0.00
    7   -1    6      0.05      0.00
    8   -1    6     -0.06      0.00
    9   -1    6      0.02      0.00
   10   -1    6      0.41      0.00
   11   -1    6      0.55      0.00
   12   -1    6      0.32      0.00
    1    0    6     -9.16      0.00
    9    0    6     -0.09      0.00
   10    0    6     -0.20      0.00
   11    0    6     -0.07      0.00
   12    0    6      0.00      0.00
    7    1    6     -0.14      0.00
   12    1    6     -0.51      0.00
   12    2    6      0.95      0.00
    7  -15    7     -0.14      0.00
    8  -14    7     -0.05      0.00
    2  -13    7      0.22      0.00
    8  -13    7      0.10      0.00
    8  -12    7      0.18      0.00
    9  -12    7      0.05      0.00
    7  -11    7     -0.32      0.00
    8  -11    7      0.00      0.00
    9  -11    7      0.15      0.00
   10  -11    7      0.15      0.00
    7  -10    7     -0.82      0.00
    8  -10    7     -0.85      0.00
    9  -10    7     -0.57      0.00
   10  -10    7     -0.22      0.00
    7   -9    7      1.40      0.00
    8   -9    7      1.08      0.00
    9   -9    7      0.45      0.00
   10   -9    7     -0.03      0.00
    6   -8    7      0.11      0.00
    7   -8    7     -0.15      0.00
    8   -8    7      0.00      0.00
    9   -8    7      0.33      0.00
   10   -8    7      0.42      0.00
   11   -8    7      0.36      0.00
    6   -7    7     -2.03      0.00
    7   -7    7     -1.35      0.00
    8   -7    7     -1.11      0.00
    9   -7    7     -0.87      0.00
   10   -7    7     -0.41      0.00
   11   -7    7     -0.11      0.00
    5   -6    7      1.89      0.00
    6   -6    7      1.13      0.00
    7   -6    7      0.94      0.00
    8   -6    7      0.99      0.00
    9   -6    7      0.63      0.00
   10   -6    7      0.05      0.00
   11   -6    7     -0.16      0.00
    5   -5    7      2.24      0.00
    6   -5    7      1.77      0.00
    7   -5    7      0.63      0.00
    8   -5    7     -0.14      0.00
    9   -5    7     -0.10      0.00
   10   -5    7      0.07      0.00
   11   -5    7     -0.06      0.00
   12   -5    7     -0.16      0.00
    6   -4    7     -2.52      0.00
    7   -4    7     -0.98      0.00
    8   -4    7     -0.28      0.00
    9   -4    7     -0.14      0.00
   10   -4    7      0.14      0.00
   11   -4    7      0.43      0.00
   12   -4    7      0.33      0.00
    6   -3    7      0.05      0.00
    7   -3    7     -0.17      0.00
    8   -3    7      0.05      0.00
    9   -3    7      0.04      0.00
   10   -3    7     -0.26      0.00
   11   -3    7     -0.31      0.00
   12   -3    7     -0.06      0.00
    6   -2    7      1.92      0.00
    7   -2    7      0.96      0.00
    8   -2    7      0.28      0.00
    9   -2    7      0.16      0.00
   10   -2    7      0.11      0.00
   11   -2    7     -0.15      0.00
   12   -2    7     -0.25      0.00
    5   -1    7     -1.07      0.00
    6   -1    7     -0.66      0.00
    7   -1    7     -0.27      0.00
    8   -1    7     -0.11      0.00
    9   -1    7      0.01      0.00
   10   -1    7      0.29      0.00
   11   -1    7      0.46      0.00
   12   -1    7      0.29      0.00
    8    0    7     -0.58      0.00
    9    0    7     -0.64      0.00
   10    0    7     -0.67      0.00
   11    0    7     -0.48      0.00
   12    0    7     -0.28      0.00
   -1    1    7      6.38      0.00
   10    1    7      0.44      0.00
   11    1    7      0.16      0.00
   12    1    7      0.15      0.00
   -2    2    7      0.86      0.00
   12    2    7      0.41      0.00
   10    3    7     -0.75      0.00
   12    3    7     -0.78      0.00
    2   11    7      0.98      0.00
    6   15    7      0.16      0.00
    7  -14    8      0.12      0.00
    8  -14    8      0.23      0.00
    7  -13    8     -0.33      0.00
    8  -13    8     -0.29      0.00
    7  -12    8      0.76      0.00
    8  -12    8      0.52      0.00
    9  -12    8      0.15      0.00
    7  -11    8     -0.97      0.00
    8  -11    8     -0.48      0.00
    9  -11    8      0.04      0.00
    6  -10    8      0.00      0.00
    7  -10    8     -0.12      0.00
    8  -10    8     -0.50      0.00
    9  -10    8     -0.64      0.00
   10  -10    8     -0.48      0.00
    7   -9    8      1.68      0.00
    8   -9    8      1.54      0.00
    9   -9    8      0.98      0.00
   10   -9    8      0.38      0.00
    6   -8    8     -1.35      0.00
    7   -8    8     -1.44      0.00
    8   -8    8     -1.07      0.00
    9   -8    8     -0.32      0.00
   10   -8    8      0.16      0.00
   11   -8    8      0.13      0.00
    5   -7    8     -1.69      0.00
    6   -7    8     -1.03      0.00
    7   -7    8     -0.48      0.00
    8   -7    8     -0.48      0.00
    9   -7    8     -0.69      0.00
   10   -7    8     -0.54      0.00
   11   -7    8     -0.15      0.00
    6   -6    8      2.04      0.00
    7   -6    8      1.31      0.00
    8   -6    8      1.09      0.00
    9   -6    8      0.81      0.00
   10   -6    8      0.26      0.00
   11   -6    8     -0.09      0.00
   -3   -5    8      0.10      0.00
    6   -5    8      0.04      0.00
    7   -5    8     -0.03      0.00
    8   -5    8     -0.23      0.00
    9   -5    8     -0.04      0.00
   10   -5    8      0.24      0.00
   11   -5    8      0.09      0.00
   12   -5    8     -0.22      0.00
    6   -4    8     -2.01      0.00
    7   -4    8     -1.14      0.00
    8   -4    8     -0.67      0.00
    9   -4    8     -0.61      0.00
   10   -4    8     -0.37      0.00
   11   -4    8      0.12      0.00
   12   -4    8      0.31      0.00
    6   -3    8      0.83      0.00
    7   -3    8      0.46      0.00
    8   -3    8      0.49      0.00
    9   -3    8      0.48      0.00
   10   -3    8      0.17      0.00
   11   -3    8     -0.07      0.00
   12   -3    8      0.04      0.00
    7   -2    8      0.86      0.00
    8   -2    8      0.39      0.00
    9   -2    8      0.21      0.00
   10   -2    8      0.09      0.00
   11   -2    8     -0.18      0.00
   12   -2    8     -0.36      0.00
    6   -1    8     -1.16      0.00
    8   -1    8     -0.87      0.00
    9   -1    8     -0.63      0.00
   10   -1    8     -0.14      0.00
   11   -1    8      0.24      0.00
   12   -1    8      0.19      0.00
    8    0    8      0.34      0.00
    9    0    8      0.12      0.00
   10    0    8     -0.17      0.00
   11    0    8     -0.13      0.00
   12    0    8      0.04      0.00
   10    1    8      0.30      0.00
   11    1    8      0.00      0.00
   12    1    8      0.03      0.00
   11    2    8      0.36      0.00
   12    2    8      0.12      0.00
   12    6    8     -1.08      0.00
    7  -14    9     -0.42      0.00
    7  -13    9      0.08      0.00
    8  -13    9     -0.16      0.00
    7  -12    9      0.57      0.00
    8  -12    9      0.61      0.00
    9  -12    9      0.38      0.00
   -5  -11    9     -0.34      0.00
    6  -11    9     -1.35      0.00
    7  -11    9     -1.46      0.00
    8  -11    9     -1.10      0.00
    9  -11    9     -0.43      0.00
    7  -10    9      1.32      0.00
    8  -10    9      0.63      0.00
    9  -10    9     -0.10      0.00
   10  -10    9     -0.31      0.00
    7   -9    9      0.39      0.00
    8   -9    9      0.88      0.00
    9   -9    9      0.98      0.00
   10   -9    9      0.54      0.00
    5   -8    9     -1.60      0.00
    7   -8    9     -1.56      0.00
    8   -8    9     -1.54      0.00
    9   -8    9     -0.96      0.00
   10   -8    9     -0.23      0.00
   11   -8    9      0.04      0.00
    6   -7    9      0.21      0.00
    7   -7    9      0.45      0.00
    8   -7    9      0.27      0.00
    9   -7    9     -0.24      0.00
   10   -7    9     -0.44      0.00
   11   -7    9     -0.10      0.00
    6   -6    9      1.55      0.00
    7   -6    9      1.17      0.00
    8   -6    9      1.22      0.00
    9   -6    9      1.23      0.00
   10   -6    9      0.71      0.00
   11   -6    9      0.01      0.00
    6   -5    9     -0.77      0.00
    7   -5    9     -0.81      0.00
    8   -5    9     -1.08      0.00
    9   -5    9     -0.95      0.00
   10   -5    9     -0.41      0.00
   11   -5    9     -0.09      0.00
    6   -4    9     -1.36      0.00
    7   -4    9     -0.66      0.00
    8   -4    9     -0.13      0.00
    9   -4    9     -0.03      0.00
   10   -4    9      0.04      0.00
   11   -4    9      0.38      0.00
   12   -4    9      0.59      0.00
    7   -3    9      0.82      0.00
    8   -3    9      0.74      0.00
    9   -3    9      0.57      0.00
   10   -3    9      0.09      0.00
   11   -3    9     -0.33      0.00
   12   -3    9     -0.27      0.00
    7   -2    9      0.31      0.00
    8   -2    9     -0.25      0.00
    9   -2    9     -0.24      0.00
   10   -2    9     -0.07      0.00
   11   -2    9     -0.15      0.00
   12   -2    9     -0.37      0.00
   -2   -1    9     -3.56      0.00
    4   -1    9     -3.89      0.00
    7   -1    9     -0.76      0.00
    8   -1    9     -0.44      0.00
    9   -1    9     -0.30      0.00
   10   -1    9      0.11      0.00
   11   -1    9      0.53      0.00
   12   -1    9      0.52      0.00
    9    0    9      0.05      0.00
   10    0    9     -0.50      0.00
   11    0    9     -0.58      0.00
   12    0    9     -0.23      0.00
   10    1    9      0.85      0.00
   11    1    9      0.39      0.00
   12    1    9      0.10      0.00
   12    2    9      0.04      0.00
    1    3    9     -2.02      0.00
   12    3    9     -0.56      0.00
   -7    9    9     -0.20      0.00
    7  -14   10     -0.74      0.00
    7  -13   10      0.81      0.00
    8  -13   10      0.35      0.00
   -5  -12   10     -0.59      0.00
    7  -12   10     -0.60      0.00
    8  -12   10     -0.08      0.00
    7  -11   10     -0.31      0.00
    8  -11   10     -0.67      0.00
    9  -11   10     -0.50      0.00
    5  -10   10      0.41      0.00
    7  -10   10      1.20      0.00
    8  -10   10      1.07      0.00
    9  -10   10      0.41      0.00
   10  -10   10     -0.11      0.00
    5   -9   10      0.11      0.00
    7   -9   10     -0.49      0.00
    8   -9   10      0.02      0.00
    9   -9   10      0.54      0.00
   10   -9   10      0.50      0.00
    7   -8   10     -1.17      0.00
    8   -8   10     -1.56      0.00
    9   -8   10     -1.39      0.00
   10   -8   10     -0.60      0.00
    6   -7   10      0.82      0.00
    7   -7   10      1.27      0.00
    8   -7   10      1.44      0.00
    9   -7   10      0.91      0.00
   10   -7   10      0.14      0.00
   11   -7   10     -0.11      0.00
    7   -6   10      0.22      0.00
    8   -6   10      0.08      0.00
    9   -6   10      0.32      0.00
   10   -6   10      0.30      0.00
   11   -6   10     -0.12      0.00
    6   -5   10     -0.93      0.00
    7   -5   10     -0.74      0.00
    8   -5   10     -0.86      0.00
    9   -5   10     -0.77      0.00
   10   -5   10     -0.24      0.00
   11   -5   10      0.23      0.00
    7   -4   10     -0.36      0.00
    8   -4   10      0.22      0.00
    9   -4   10      0.22      0.00
   10   -4   10     -0.01      0.00
   11   -4   10      0.08      0.00
    7   -3   10      0.92      0.00
    8   -3   10      0.47      0.00
    9   -3   10      0.33      0.00
   10   -3   10      0.01      0.00
   11   -3   10     -0.43      0.00
   12   -3   10     -0.52      0.00
    8   -2   10     -0.24      0.00
    9   -2   10     -0.08      0.00
   10   -2   10      0.32      0.00
   11   -2   10      0.38      0.00
   12   -2   10      0.06      0.00
    7   -1   10     -0.86      0.00
    9   -1   10     -0.69      0.00
   10   -1   10     -0.59      0.00
   11   -1   10     -0.07      0.00
   12   -1   10      0.24      0.00
   10    0   10      0.16      0.00
   11    0   10     -0.31      0.00
   12    0   10     -0.15      0.00
   10    1   10      0.97      0.00
   11    1   10      0.72      0.00
   12    1   10      0.20      0.00
    8    2   10     -1.11      0.00
   12    2   10     -0.42      0.00
   -1    3   10     -0.30      0.00
   12    3   10      0.19      0.00
    1   10   10      0.62      0.00
    6  -14   11      0.15      0.00
    7  -13   11      0.14      0.00
    7  -12   11     -0.38      0.00
    8  -12   11     -0.22      0.00
    7  -11   11      0.15      0.00
    8  -11   11     -0.26      0.00
    9  -11   11     -0.42      0.00
    5  -10   11      0.25      0.00
    7  -10   11      0.84      0.00
    8  -10   11      1.17      0.00
    9  -10   11      0.81      0.00
    6   -9   11     -0.59      0.00
    7   -9   11     -1.15      0.00
    8   -9   11     -1.10      0.00
    9   -9   11     -0.41      0.00
   10   -9   11      0.18      0.00
    7   -8   11     -0.05      0.00
    8   -8   11     -0.28      0.00
    9   -8   11     -0.61      0.00
   10   -8   11     -0.44      0.00
    7   -7   11      0.89      0.00
    8   -7   11      1.08      0.00
    9   -7   11      0.84      0.00
   10   -7   11      0.15      0.00
    7   -6   11     -0.01      0.00
    8   -6   11     -0.24      0.00
    9   -6   11      0.07      0.00
   10   -6   11      0.43      0.00
   11   -6   11      0.26      0.00
    7   -5   11     -0.86      0.00
    8   -5   11     -0.70      0.00
    9   -5   11     -0.78      0.00
   10   -5   11     -0.55      0.00
   11   -5   11     -0.03      0.00
    7   -4   11      0.10      0.00
    8   -4   11      0.39      0.00
    9   -4   11      0.40      0.00
   10   -4   11      0.10      0.00
   11   -4   11     -0.02      0.00
   -3   -3   11      1.74      0.00
    2   -3   11      1.95      0.00
    7   -3   11      0.84      0.00
    8   -3   11      0.42      0.00
    9   -3   11      0.45      0.00
   10   -3   11      0.35      0.00
   11   -3   11     -0.08      0.00
    8   -2   11     -0.50      0.00
    9   -2   11     -0.64      0.00
   10   -2   11     -0.27      0.00
   11   -2   11      0.09      0.00
   12   -2   11     -0.02      0.00
    9   -1   11     -0.21      0.00
   10   -1   11     -0.39      0.00
   11   -1   11     -0.08      0.00
   12   -1   11      0.35      0.00
   -2    0   11      2.25      0.00
   10    0   11      0.86      0.00
   11    0   11      0.11      0.00
   12    0   11     -0.14      0.00
   -1    1   11      0.37      0.00
    9    1   11     -0.86      0.00
   10    1   11     -0.28      0.00
   11    1   11      0.10      0.00
   12    1   11     -0.15      0.00
   11    2   11     -0.44      0.00
   12    2   11      0.04      0.00
   11    3   11      0.30      0.00
   12    3   11      0.06      0.00
   11    5   11     -0.42      0.00
    6  -14   12     -0.23      0.00
    4  -13   12      0.79      0.00
    8  -12   12     -0.40      0.00
    7  -11   12      0.41      0.00
    8  -11   12      0.40      0.00
    7  -10   12      0.11      0.00
    8  -10   12      0.32      0.00
    9  -10   12      0.38      0.00
    7   -9   12     -0.81      0.00
    8   -9   12     -0.86      0.00
    9   -9   12     -0.44      0.00
    7   -8   12      0.24      0.00
    8   -8   12      0.08      0.00
    9   -8   12     -0.41      0.00
   10   -8   12     -0.65      0.00
    7   -7   12      0.82      0.00
    8   -7   12      0.97      0.00
    9   -7   12      1.10      0.00
   10   -7   12      0.75      0.00
    7   -6   12     -0.45      0.00
    8   -6   12     -0.66      0.00
    9   -6   12     -0.59      0.00
   10   -6   12     -0.21      0.00
   11   -6   12     -0.02      0.00
    7   -5   12     -0.65      0.00
    8   -5   12     -0.40      0.00
    9   -5   12     -0.44      0.00
   10   -5   12     -0.38      0.00
   11   -5   12     -0.01      0.00
    8   -4   12      0.60      0.00
    9   -4   12      0.74      0.00
   10   -4   12      0.48      0.00
   11   -4   12      0.15      0.00
    3   -3   12      0.85      0.00
    8   -3   12      0.01      0.00
    9   -3   12     -0.20      0.00
   10   -3   12     -0.17      0.00
   11   -3   12     -0.37      0.00
    8   -2   12     -0.34      0.00
    9   -2   12     -0.40      0.00
   10   -2   12     -0.12      0.00
   11   -2   12      0.36      0.00
    9   -1   12      0.32      0.00
   10   -1   12     -0.03      0.00
   11   -1   12     -0.18      0.00
   10    0   12      0.55      0.00
   11    0   12      0.09      0.00
   -2    1   12     -1.46      0.00
   11    1   12      0.02      0.00
    2    3   12      1.91      0.00
    7  -12   13     -0.06      0.00
    6  -11   13      0.11      0.00
    8  -11   13      0.31      0.00
    8  -10   13      0.04      0.00
    9  -10   13      0.33      0.00
    6   -9   13     -0.45      0.00
    8   -9   13     -0.75      0.00
    9   -9   13     -0.74      0.00
    8   -8   13      0.51      0.00
    9   -8   13      0.33      0.00
    8   -7   13      0.59      0.00
    9   -7   13      0.58      0.00
   10   -7   13      0.41      0.00
    8   -6   13     -0.90      0.00
    9   -6   13     -0.81      0.00
   10   -6   13     -0.44      0.00
   -4   -5   13     -0.15      0.00
    8   -5   13      0.22      0.00
    9   -5   13      0.32      0.00
   10   -5   13      0.23      0.00
    8   -4   13      0.06      0.00
    9   -4   13     -0.01      0.00
   10   -4   13     -0.18      0.00
   11   -4   13     -0.40      0.00
    8   -3   13      0.35      0.00
    9   -3   13      0.17      0.00
   10   -3   13      0.28      0.00
   11   -3   13      0.23      0.00
    9   -2   13     -0.41      0.00
   10   -2   13     -0.37      0.00
   11   -2   13      0.03      0.00
   10   -1   13      0.28      0.00
   11   -1   13     -0.12      0.00
   10    0   13      0.08      0.00
   11    0   13      0.13      0.00
   10    1   13     -0.38      0.00
   11    1   13     -0.09      0.00
   10    2   13      0.19      0.00
   11    2   13     -0.11      0.00
   11    3   13      0.37      0.00
    4  -14   14      0.98      0.00
    6  -13   14      0.17      0.00
    8  -10   14     -0.05      0.00
    8   -9   14     -0.60      0.00
    9   -9   14     -0.44      0.00
    7   -8   14      1.10      0.00
    8   -8   14      0.84      0.00
    9   -8   14      0.53      0.00
    8   -7   14     -0.13      0.00
    9   -7   14     -0.08      0.00
    8   -6   14     -0.27      0.00
    9   -6   14     -0.02      0.00
   10   -6   14      0.18      0.00
    8   -5   14     -0.34      0.00
    9   -5   14     -0.45      0.00
   10   -5   14     -0.52      0.00
    8   -4   14      0.67      0.00
    9   -4   14      0.63      0.00
   10   -4   14      0.53      0.00
    9   -3   14     -0.26      0.00
   10   -3   14     -0.21      0.00
   11   -3   14     -0.06      0.00
    9   -2   14     -0.02      0.00
   10   -2   14     -0.04      0.00
   11   -2   14      0.07      0.00
    7   -1   14     -0.02      0.00
   10   -1   14      0.13      0.00
   11   -1   14     -0.08      0.00
   10    0   14     -0.13      0.00
   11    0   14      0.01      0.00
   11    1   14      0.01      0.00
   11    2   14      0.05      0.00
   11    3   14     -0.10      0.00
    6  -12   15     -0.20      0.00
    8   -9   15     -0.11      0.00
    8   -8   15      0.45      0.00
    9   -8   15      0.01      0.00
    8   -7   15      0.25      0.00
    9   -7   15      0.61      0.00
    8   -6   15     -1.00      0.00
    9   -6   15     -0.96      0.00
   -4   -5   15      0.90      0.00
    8   -5   15      0.48      0.00
    9   -5   15      0.38      0.00
   10   -5   15      0.25      0.00
    9   -4   15      0.21      0.00
   10   -4   15      0.13      0.00
    9   -3   15     -0.05      0.00
   10   -3   15     -0.10      0.00
    5   -2   15     -1.16      0.00
   10   -2   15      0.10      0.00
    6   -1   15      0.91      0.00
   10   -1   15     -0.38      0.00
   -5    0   15      0.31      0.00
    0    5   15     -0.81      0.00
    1    7   15     -0.37      0.00
    8   -8   16      1.08      0.00
    8   -7   16     -0.81      0.00
    2   -6   16     -0.86      0.00
    8   -6   16     -0.34      0.00
    9   -6   16     -0.44      0.00
    8   -5   16      0.57      0.00
    9   -5   16      0.44      0.00
    9   -4   16     -0.02      0.00
   -4   -3   16      0.30      0.00
    9   -3   16      0.37      0.00
   10   -3   16      0.34      0.00
   10   -2   16     -0.71      0.00
   10   -1   16      0.41      0.00
   -3    0   16     -0.74      0.00
   10    1   16     -0.25      0.00
    1    3   16      0.73      0.00
   -1    7   16     -0.62      0.00
   -2    9   16      0.39      0.00
    8   -7   17     -1.09      0.00
    9   -5   17     -0.08      0.00
    8   -4   17      0.81      0.00
    9   -4   17      0.76      0.00
    9   -3   17     -0.78      0.00
    1    4   17     -0.28      0.00
   -2    5   17     -0.19      0.00
    0   -6   18      0.78      0.00
    8   -5   18      0.46      0.00
    7   -4   18     -0.02      0.00
    8   -4   18      0.12      0.00
   -1   -6   19      0.90      0.00
    4    0   19     -0.52      0.00
    3    5   19      0.98      0.00
    7    5   19      0.46      0.00
    1    8   19     -0.14      0.00
    2    4   21     -0.26      0.00
    0    0    0      0.00      0.00
# SQUEEZE RESULTS (Version = 100419)
# Note: Data are Listed for all Voids in the P1 Unit Cell
# i.e. Centre of Gravity, Solvent Accessible Volume,
# Recovered number of Electrons in the Void and
# Details about the Squeezed Material
loop_
  _platon_squeeze_void_nr
  _platon_squeeze_void_average_x
  _platon_squeeze_void_average_y
  _platon_squeeze_void_average_z
  _platon_squeeze_void_volume
  _platon_squeeze_void_count_electrons
  _platon_squeeze_void_content
   1 -0.081  0.328  0.128        32        10 ' '
   2  0.013  0.426  0.364        14         0 ' '
   3 -0.013  0.574  0.636        14         0 ' '
   4  0.081  0.672  0.872        33        10 ' '
# Missing Reflections Below sin(th)/lambda = 0.25
loop_
  _platon_missing_refln_index_h
  _platon_missing_refln_index_k
  _platon_missing_refln_index_l
  _platon_missing_refln_theta
    1    0    0     2.084
    0    1    0     1.350
   -2   -6    1     9.193
    1   -1    1     2.616
    0    0    1     1.234
    1    4    1     5.777
    4   -3    2     9.320
   -1   -2    2     4.389
    2   -2    2     5.237
    3   -2    2     6.903
    2   -1    2     4.644
    0    2    2     3.677
    4   -3    3     9.503
    3   -2    3     7.222
    4   -2    3     8.959
    3   -1    3     6.788
    4   -1    3     8.599
    0    2    3     4.606
    3   -5    4    10.010
   -2   -4    4     8.804
    4   -3    4     9.842
    4   -2    4     9.318
   -1    0    4     5.738
    1    6    4     9.511
    2   -2    5     7.294
   -1    0    5     6.912
   -2   -3    6    10.004
    1    0    6     7.295
   -1    1    7     9.444
_platon_squeeze_void_probe_radius                  1.20
_platon_squeeze_details
)
TITL cp_CH2 in P-1
CELL    9.8290   14.8670   16.5950     90.11     78.43     87.89
SPGR P-1
# Solvent Accessible Volume =        92
# Electrons Found in S.A.V. =        20
# Note: Atoms in Void are Labelled as Cxxx and Qxxx for all Others
C101 0.997 0.303 0.075 !       6.93 eA-3
Q102 0.965 0.377 0.060 !       1.49 eA-3
Q103 0.607 0.516 0.017 !       1.16 eA-3
Q104 0.051 0.054 0.002 !       1.16 eA-3
Q105 0.460 0.435 0.001 !       1.14 eA-3
Q106 0.080 0.313 0.050 !       1.08 eA-3
Q107 0.398 1.000 0.485 !       1.00 eA-3
Q108 0.819 0.310 0.066 !       0.99 eA-3
Q109 0.865 0.388 0.093 !       0.95 eA-3
Q110 0.966 0.342 0.170 !       0.95 eA-3
Q111 0.099 1.000 0.017 !       0.95 eA-3
Q112 0.376 0.405 0.159 !       0.91 eA-3
Q113 0.164 0.060 0.032 !       0.91 eA-3
Q114 0.754 0.720 0.361 !       0.90 eA-3
Q115 0.938 0.402 0.435 !       0.89 eA-3
Q116 0.022 0.220 0.117 !       0.87 eA-3
Q117 0.747 0.313 0.120 !       0.86 eA-3
Q118 0.878 0.309 0.204 !       0.86 eA-3
Q119 0.976 0.269 0.026 !       0.85 eA-3
Q120 0.902 0.234 0.216 !       0.83 eA-3
Q121 0.405 0.439 0.065 !       0.82 eA-3
Q122 0.063 0.500 0.328 !       0.81 eA-3
Q123 0.553 0.545 0.451 !       0.81 eA-3
Q124 0.718 0.045 0.451 !       0.81 eA-3
Q125 0.378 0.896 0.466 !       0.81 eA-3
Q126 0.255 0.968 0.110 !       0.81 eA-3
Q127 0.403 0.463 0.504 !       0.81 eA-3
Q128 0.471 0.859 0.145 !       0.80 eA-3
Q129 0.123 0.375 0.031 !       0.80 eA-3
Q130 0.778 0.329 0.186 !       0.80 eA-3
Q131 0.119 0.700 0.391 !       0.80 eA-3
Q132 0.585 0.503 0.310 !       0.80 eA-3
Q133 0.748 0.565 0.047 !       0.80 eA-3
Q134 0.067 0.483 0.501 !       0.80 eA-3
Q135 0.197 0.466 0.000 !       0.79 eA-3
Q136 0.076 0.495 0.016 !       0.79 eA-3
Q137 0.499 0.437 0.220 !       0.78 eA-3
Q138 0.786 0.114 0.077 !       0.78 eA-3
Q139 0.933 0.423 0.063 !       0.78 eA-3
Q140 0.843 0.379 0.145 !       0.78 eA-3
Q141 0.578 0.583 0.014 !       0.78 eA-3
Q142 0.660 0.185 0.046 !       0.78 eA-3
Q143 0.884 0.280 0.146 !       0.77 eA-3
Q144 0.034 0.497 0.419 !       0.77 eA-3
Q145 0.998 0.390 0.189 !       0.77 eA-3
Q146 1.009 0.989 0.470 !       0.77 eA-3
Q147 0.781 0.048 0.059 !       0.77 eA-3
Q148 0.098 0.983 0.077 !       0.76 eA-3
Q149 0.597 0.609 0.420 !       0.76 eA-3
Q150 0.439 0.295 0.424 !       0.76 eA-3
Q151 0.247 0.453 0.045 !       0.76 eA-3
Q152 0.280 0.706 0.249 !       0.76 eA-3
Q153 0.835 0.328 0.248 !       0.76 eA-3
Q154 0.604 0.671 0.030 !       0.76 eA-3
Q155 0.410 0.938 0.489 !       0.76 eA-3
Q156 0.824 0.198 0.252 !       0.75 eA-3
Q157 0.836 0.420 0.169 !       0.75 eA-3
Q158 0.343 0.906 0.064 !       0.75 eA-3
Q159 0.625 0.549 0.141 !       0.75 eA-3
Q160 0.412 1.000 0.434 !       0.75 eA-3
Q161 0.863 0.469 0.138 !       0.75 eA-3
Q162 0.245 0.771 0.342 !       0.74 eA-3
Q163 0.716 0.248 0.140 !       0.74 eA-3
Q164 0.088 0.451 0.362 !       0.74 eA-3
Q165 0.841 0.999 0.047 !       0.74 eA-3
Q166 0.435 0.808 0.349 !       0.74 eA-3
Q167 0.519 0.348 0.160 !       0.74 eA-3
Q168 0.782 0.765 0.124 !       0.73 eA-3
Q169 0.620 0.873 0.095 !       0.73 eA-3
Q170 0.372 0.625 0.123 !       0.73 eA-3
Q171 0.938 0.873 0.340 !       0.73 eA-3
Q172 0.159 0.423 0.201 !       0.73 eA-3
Q173 0.159 0.235 0.294 !       0.72 eA-3
Q174 0.785 0.268 0.094 !       0.72 eA-3
Q175 0.783 0.813 0.095 !       0.72 eA-3
Q176 0.530 0.203 0.004 !       0.72 eA-3
Q177 0.185 0.751 0.333 !       0.72 eA-3
Q178 0.715 0.564 0.251 !       0.72 eA-3
Q179 0.373 0.879 0.271 !       0.72 eA-3
Q180 0.699 0.842 0.190 !       0.71 eA-3
Q181 0.186 0.079 0.198 !       0.71 eA-3
Q182 0.182 0.096 0.495 !       0.71 eA-3
Q183 0.659 0.529 0.293 !       0.71 eA-3
Q184 0.164 0.654 0.173 !       0.71 eA-3
Q185 0.498 0.922 0.374 !       0.70 eA-3
Q186 0.621 0.417 0.108 !       0.70 eA-3
Q187 0.056 0.672 0.435 !       0.70 eA-3
Q188 0.316 0.282 0.233 !       0.70 eA-3
Q189 0.377 0.059 0.482 !       0.70 eA-3
Q190 0.205 0.986 0.452 !       0.70 eA-3
Q191 0.380 0.018-0.002 !       0.70 eA-3
Q192 0.406 0.919 0.391 !       0.70 eA-3
Q193 0.991 0.611 0.346 !       0.70 eA-3
Q194 0.963 0.701 0.457 !       0.70 eA-3
Q195 0.029 0.531 0.479 !       0.70 eA-3
Q196 0.536 0.409 0.506 !       0.70 eA-3
Q197 0.462 0.623 0.140 !       0.69 eA-3
Q198 0.997 0.441 0.220 !       0.69 eA-3
Q199 0.748 0.468 0.499 !       0.69 eA-3
)
;
_shelx_fab_checksum              21860
loop_
_space_group_symop_operation_xyz
'x, y, z'
'-x, -y, -z'
loop_
_atom_site_label
_atom_site_type_symbol
_atom_site_fract_x
_atom_site_fract_y
_atom_site_fract_z
_atom_site_U_iso_or_equiv
_atom_site_adp_type
_atom_site_occupancy
_atom_site_site_symmetry_order
_atom_site_calc_flag
_atom_site_refinement_flags_posn
_atom_site_refinement_flags_adp
_atom_site_refinement_flags_occupancy
Ni1 Ni 0.500000 0.500000 0.000000 0.0544(4) Uani 1 2 d S U P
Ni2 Ni 1.000000 0.000000 0.000000 0.0555(4) Uani 1 2 d S U P
Ni3 Ni 0.500000 0.500000 0.500000 0.0626(5) Uani 1 2 d S U P
Ni4 Ni 0.500000 0.000000 0.500000 0.0669(5) Uani 1 2 d S U P
O1 O 0.2355(7) 0.3732(4) 0.1145(3) 0.0668(15) Uani 1 1 d . U .
O2 O 0.4653(6) 0.3955(4) 0.0868(3) 0.0604(14) Uani 1 1 d . U .
O3 O 1.0607(7) 0.0338(4) 0.1978(3) 0.0777(18) Uani 1 1 d . U .
O4 O 0.9060(6) 0.0630(4) 0.1170(3) 0.0632(14) Uani 1 1 d . U .
O5 O 0.6796(8) 0.2936(5) 0.5093(4) 0.096(2) Uani 1 1 d . U .
O6 O 0.5889(6) 0.3841(4) 0.4253(3) 0.0652(15) Uani 1 1 d . U .
O7 O 0.3350(7) 0.2170(4) 0.4990(3) 0.0816(19) Uani 1 1 d . U .
O8 O 0.4906(7) 0.1180(4) 0.4279(3) 0.0750(17) Uani 1 1 d . U .
N1 N 0.2900(7) 0.5267(4) 0.0104(4) 0.0601(16) Uani 1 1 d . U .
H1 H 0.240288 0.487538 0.054852 0.072 Uiso 1 1 calc R U .
N2 N 0.5214(7) 0.5805(5) 0.0972(4) 0.0635(17) Uani 1 1 d . U .
H2 H 0.488225 0.545510 0.148331 0.076 Uiso 1 1 calc R U .
N3 N 0.2878(8) 0.6511(5) 0.1094(4) 0.0659(17) Uani 1 1 d . U .
N4 N 1.0554(8) 0.1290(4) -0.0382(4) 0.0657(17) Uani 1 1 d . U .
H4 H 1.039536 0.168723 0.011757 0.079 Uiso 1 1 calc R U .
N5 N 1.1797(7) -0.0298(4) 0.0364(4) 0.0604(16) Uani 1 1 d . U .
H5 H 1.172192 -0.002323 0.092207 0.073 Uiso 1 1 calc R U .
N6 N 1.2991(8) 0.1012(5) -0.0292(5) 0.0741(19) Uani 1 1 d . U .
N7 N 0.5761(8) 0.4556(5) 0.5993(4) 0.0663(17) Uani 1 1 d . U .
H7 H 0.613759 0.392529 0.587452 0.080 Uiso 1 1 calc R U .
N8 N 0.3176(8) 0.4331(5) 0.5330(4) 0.0716(18) Uani 1 1 d . U .
H8 H 0.337529 0.368255 0.517249 0.086 Uiso 1 1 calc R U .
N9 N 0.3500(9) 0.4036(5) 0.6739(4) 0.077(2) Uani 1 1 d . U .
N10 N 0.6835(10) 0.0443(6) 0.5245(5) 0.093(2) Uani 1 1 d . U .
H10 H 0.687403 0.109764 0.510771 0.112 Uiso 1 1 calc R U .
N11 N 0.3868(9) 0.0561(5) 0.6048(5) 0.088(2) Uani 1 1 d . U .
H11 H 0.369037 0.121049 0.593321 0.106 Uiso 1 1 calc R U .
N12 N 0.5868(12) 0.0924(7) 0.6603(6) 0.113(3) Uani 1 1 d . U .
C1 C 0.3547(9) 0.3674(5) 0.1315(5) 0.0543(18) Uani 1 1 d . U .
C2 C 0.3722(9) 0.3230(5) 0.2103(4) 0.0541(18) Uani 1 1 d . U .
C3 C 0.2541(9) 0.3013(5) 0.2695(5) 0.0546(18) Uani 1 1 d . U .
H3 H 0.163122 0.314384 0.260332 0.066 Uiso 1 1 calc R U .
C4 C 0.2741(9) 0.2606(5) 0.3414(5) 0.061(2) Uani 1 1 d . U .
H4A H 0.194795 0.247471 0.382094 0.074 Uiso 1 1 calc R U .
C5 C 0.4047(9) 0.2381(5) 0.3564(4) 0.0570(18) Uani 1 1 d . U .
C6 C 0.5248(8) 0.2587(5) 0.2968(4) 0.0540(17) Uani 1 1 d . U .
C7 C 0.5036(8) 0.3033(5) 0.2258(4) 0.0510(17) Uani 1 1 d . U .
H7A H 0.582420 0.320783 0.186722 0.061 Uiso 1 1 calc R U .
C8 C 0.4111(10) 0.1873(6) 0.4352(5) 0.066(2) Uani 1 1 d . U .
C9 C 0.6576(10) 0.3174(6) 0.4404(5) 0.066(2) Uani 1 1 d . U .
C10 C 0.7311(9) 0.2572(5) 0.3681(5) 0.0584(19) Uani 1 1 d . U .
C11 C 0.6698(8) 0.2326(5) 0.3038(4) 0.0523(17) Uani 1 1 d . U .
C12 C 0.7458(8) 0.1764(5) 0.2407(4) 0.0519(18) Uani 1 1 d . U .
H12 H 0.705287 0.160412 0.195514 0.062 Uiso 1 1 calc R U .
C13 C 0.8791(8) 0.1439(5) 0.2436(4) 0.0542(18) Uani 1 1 d . U .
C14 C 0.9417(9) 0.1696(6) 0.3079(5) 0.063(2) Uani 1 1 d . U .
H14 H 1.033435 0.149030 0.310306 0.075 Uiso 1 1 calc R U .
C15 C 0.8653(10) 0.2265(6) 0.3684(5) 0.067(2) Uani 1 1 d . U .
H15 H 0.907448 0.245160 0.412102 0.080 Uiso 1 1 calc R U .
C16 C 0.9559(10) 0.0739(6) 0.1813(5) 0.062(2) Uani 1 1 d . U .
C17 C 0.2567(10) 0.4968(6) -0.0667(5) 0.072(2) Uani 1 1 d . U .
H17A H 0.286454 0.541806 -0.110024 0.086 Uiso 1 1 calc R U .
H17B H 0.155097 0.490908 -0.059970 0.086 Uiso 1 1 calc R U .
C18 C 0.6707(9) 0.5914(6) 0.0915(5) 0.069(2) Uani 1 1 d . U .
H18A H 0.688856 0.610925 0.145263 0.082 Uiso 1 1 calc R U .
H18B H 0.704758 0.637567 0.050166 0.082 Uiso 1 1 calc R U .
C19 C 0.2462(10) 0.6234(5) 0.0342(5) 0.064(2) Uani 1 1 d . U .
H19A H 0.287914 0.663278 -0.011046 0.077 Uiso 1 1 calc R U .
H19B H 0.143860 0.630620 0.041610 0.077 Uiso 1 1 calc R U .
C20 C 0.4315(10) 0.6645(6) 0.1039(5) 0.068(2) Uani 1 1 d . U .
H20A H 0.443222 0.698782 0.153074 0.082 Uiso 1 1 calc R U .
H20B H 0.464773 0.702066 0.055181 0.082 Uiso 1 1 calc R U .
C21 C 0.2254(10) 0.5996(6) 0.1830(5) 0.074(2) Uani 1 1 d . U .
H21A H 0.260140 0.536150 0.175543 0.089 Uiso 1 1 calc R U .
H21B H 0.256245 0.624260 0.231505 0.089 Uiso 1 1 calc R U .
C22 C 0.0730(11) 0.6020(7) 0.1991(5) 0.084(3) Uani 1 1 d . U .
H22 H 0.026896 0.659561 0.207749 0.101 Uiso 1 1 calc R U .
C23 C -0.0052(11) 0.5322(8) 0.2028(5) 0.084(3) Uani 1 1 d . U .
H23A H 0.036297 0.473278 0.194536 0.101 Uiso 1 1 calc R U .
H23B H -0.103552 0.540359 0.213621 0.101 Uiso 1 1 calc R U .
C24 C 0.9530(10) 0.1569(6) -0.0878(5) 0.072(2) Uani 1 1 d . U .
H24A H 0.953806 0.222886 -0.095374 0.086 Uiso 1 1 calc R U .
H24B H 0.977624 0.127710 -0.142758 0.086 Uiso 1 1 calc R U .
C25 C 1.1852(9) -0.1311(6) 0.0465(5) 0.067(2) Uani 1 1 d . U .
H25A H 1.211739 -0.161309 -0.007889 0.081 Uiso 1 1 calc R U .
H25B H 1.254681 -0.148830 0.079838 0.081 Uiso 1 1 calc R U .
C26 C 1.3047(9) 0.0040(6) -0.0161(6) 0.068(2) Uani 1 1 d . U .
H26A H 1.319734 -0.027105 -0.070117 0.081 Uiso 1 1 calc R U .
H26B H 1.385579 -0.011520 0.009155 0.081 Uiso 1 1 calc R U .
C27 C 1.2037(10) 0.1330(6) -0.0784(6) 0.073(2) Uani 1 1 d . U .
H27A H 1.219703 0.096888 -0.129851 0.088 Uiso 1 1 calc R U .
H27B H 1.223995 0.196159 -0.093668 0.088 Uiso 1 1 calc R U .
C28 C 1.2914(10) 0.1550(7) 0.0485(6) 0.082(3) Uani 1 1 d . U .
H28A H 1.292173 0.219831 0.035047 0.098 Uiso 1 1 calc R U .
H28B H 1.202462 0.143797 0.086466 0.098 Uiso 1 1 calc R U .
C29 C 1.4087(11) 0.1325(7) 0.0909(7) 0.089(3) Uani 1 1 d . U .
H29 H 1.500191 0.144340 0.062681 0.106 Uiso 1 1 calc R U .
C30 C 1.3936(12) 0.0976(8) 0.1642(7) 0.095(3) Uani 1 1 d . U .
H30A H 1.303434 0.084946 0.194101 0.114 Uiso 1 1 calc R U .
H30B H 1.472684 0.084942 0.187655 0.114 Uiso 1 1 calc R U .
C31 C 0.6914(10) 0.5119(6) 0.6036(5) 0.073(2) Uani 1 1 d . U .
H31A H 0.752342 0.482014 0.637127 0.088 Uiso 1 1 calc R U .
H31B H 0.656008 0.569976 0.630483 0.088 Uiso 1 1 calc R U .
C32 C 0.2259(11) 0.4712(7) 0.4818(5) 0.076(2) Uani 1 1 d . U .
H32A H 0.181849 0.528481 0.506455 0.092 Uiso 1 1 calc R U .
H32B H 0.151444 0.429073 0.478587 0.092 Uiso 1 1 calc R U .
C33 C 0.4718(10) 0.4554(7) 0.6773(5) 0.077(2) Uani 1 1 d . U .
H33A H 0.516807 0.430625 0.721185 0.092 Uiso 1 1 calc R U .
H33B H 0.440917 0.518345 0.692679 0.092 Uiso 1 1 calc R U .
C34 C 0.2564(10) 0.4378(7) 0.6232(5) 0.079(2) Uani 1 1 d . U .
H34A H 0.229593 0.501260 0.638887 0.095 Uiso 1 1 calc R U .
H34B H 0.170863 0.402901 0.634226 0.095 Uiso 1 1 calc R U .
C35 C 0.3750(12) 0.3051(7) 0.6719(6) 0.092(3) Uani 1 1 d . U .
H35A H 0.454712 0.288852 0.697870 0.110 Uiso 1 1 calc R U .
H35B H 0.396310 0.282706 0.614349 0.110 Uiso 1 1 calc R U .
C36 C 0.2442(14) 0.2634(8) 0.7188(8) 0.109(4) Uani 1 1 d . U .
H36 H 0.226403 0.267933 0.777093 0.131 Uiso 1 1 calc R U .
C37 C 0.1516(14) 0.2208(9) 0.6848(8) 0.124(4) Uani 1 1 d . U .
H37A H 0.165383 0.214767 0.626662 0.149 Uiso 1 1 calc R U .
H37B H 0.072119 0.196564 0.718759 0.149 Uiso 1 1 calc R U .
C38 C 0.6945(13) 0.0367(8) 0.6079(7) 0.104(3) Uani 1 1 d . U .
H38A H 0.787102 0.055853 0.614433 0.125 Uiso 1 1 calc R U .
H38B H 0.685251 -0.026915 0.624896 0.125 Uiso 1 1 calc R U .
C39 C 0.4483(14) 0.0527(9) 0.6769(6) 0.108(3) Uani 1 1 d . U .
H39A H 0.457351 -0.010698 0.693876 0.129 Uiso 1 1 calc R U .
H39B H 0.386868 0.086024 0.722645 0.129 Uiso 1 1 calc R U .
C40 C 0.7907(12) -0.0022(8) 0.4648(7) 0.096(3) Uani 1 1 d . U .
H40A H 0.809501 -0.062833 0.485638 0.115 Uiso 1 1 calc R U .
H40B H 0.877370 0.031285 0.457887 0.115 Uiso 1 1 calc R U .
C41 C 0.2502(11) 0.0114(7) 0.6167(7) 0.093(3) Uani 1 1 d . U .
H41A H 0.258383 -0.048782 0.641108 0.112 Uiso 1 1 calc R U .
H41B H 0.178430 0.047831 0.654568 0.112 Uiso 1 1 calc R U .
C42 C 0.6324(18) 0.1218(11) 0.7355(9) 0.177(6) Uani 1 1 d D U .
H42A H 0.549415 0.146681 0.774171 0.213 Uiso 1 1 calc R U .
H42B H 0.665522 0.067545 0.761418 0.213 Uiso 1 1 calc R U .
C43 C 0.739(2) 0.1875(11) 0.7284(10) 0.181(7) Uani 1 1 d D U .
H43 H 0.778367 0.197228 0.775512 0.217 Uiso 1 1 calc R U .
C44 C 0.788(2) 0.2357(13) 0.6614(10) 0.213(9) Uani 1 1 d D U .
H44A H 0.752134 0.228226 0.612889 0.255 Uiso 1 1 calc R U .
H44B H 0.858714 0.277456 0.662400 0.255 Uiso 1 1 calc R U .
loop_
_atom_site_aniso_label
_atom_site_aniso_U_11
_atom_site_aniso_U_22
_atom_site_aniso_U_33
_atom_site_aniso_U_23
_atom_site_aniso_U_13
_atom_site_aniso_U_12
Ni1 0.0684(10) 0.0524(8) 0.0395(7) 0.0007(6) -0.0054(6) 0.0075(7)
Ni2 0.0616(9) 0.0510(8) 0.0483(8) -0.0077(6) -0.0001(7) 0.0095(7)
Ni3 0.0801(11) 0.0631(9) 0.0404(7) -0.0088(6) -0.0055(7) 0.0143(8)
Ni4 0.0820(12) 0.0658(10) 0.0480(8) 0.0067(7) -0.0028(8) 0.0053(8)
O1 0.077(4) 0.065(4) 0.059(3) 0.001(3) -0.013(3) -0.005(3)
O2 0.071(3) 0.062(3) 0.044(3) 0.006(2) 0.000(3) 0.006(3)
O3 0.077(4) 0.091(4) 0.063(4) -0.018(3) -0.015(3) 0.030(3)
O4 0.071(4) 0.065(3) 0.050(3) -0.013(2) -0.006(3) 0.012(3)
O5 0.131(6) 0.104(5) 0.052(3) -0.018(3) -0.027(4) 0.055(4)
O6 0.086(4) 0.062(3) 0.045(3) -0.013(2) -0.014(3) 0.022(3)
O7 0.110(5) 0.075(4) 0.047(3) 0.004(3) 0.011(3) 0.018(4)
O8 0.096(5) 0.068(4) 0.054(3) 0.008(3) -0.001(3) 0.013(3)
N1 0.072(4) 0.062(4) 0.046(3) -0.001(3) -0.013(3) 0.013(3)
N2 0.078(4) 0.068(4) 0.041(3) -0.003(3) -0.005(3) 0.009(3)
N3 0.079(4) 0.064(4) 0.051(4) -0.007(3) -0.008(3) 0.014(4)
N4 0.081(4) 0.053(4) 0.060(4) -0.007(3) -0.010(3) 0.007(3)
N5 0.068(4) 0.066(4) 0.044(3) -0.012(3) -0.005(3) 0.008(3)
N6 0.069(4) 0.072(4) 0.074(4) -0.016(4) 0.002(3) 0.003(4)
N7 0.091(5) 0.060(4) 0.042(3) -0.009(3) -0.003(3) 0.014(3)
N8 0.089(5) 0.074(5) 0.046(3) -0.012(3) -0.003(3) 0.014(4)
N9 0.098(5) 0.079(5) 0.048(4) 0.001(3) -0.004(4) 0.015(4)
N10 0.111(5) 0.091(6) 0.076(5) 0.003(4) -0.019(4) 0.008(5)
N11 0.117(6) 0.069(5) 0.066(4) 0.009(4) 0.008(4) 0.006(4)
N12 0.138(7) 0.121(8) 0.075(5) -0.006(5) -0.019(5) 0.014(6)
C1 0.066(5) 0.046(4) 0.049(4) -0.003(3) -0.008(3) 0.003(4)
C2 0.065(5) 0.047(4) 0.046(4) -0.002(3) -0.001(3) 0.001(4)
C3 0.063(5) 0.046(4) 0.051(4) -0.001(3) -0.002(3) 0.001(4)
C4 0.069(5) 0.058(5) 0.049(4) -0.003(3) 0.006(4) 0.005(4)
C5 0.068(4) 0.054(4) 0.043(4) -0.001(3) 0.003(3) 0.006(4)
C6 0.067(4) 0.046(4) 0.044(4) -0.007(3) -0.003(3) 0.010(3)
C7 0.065(4) 0.049(4) 0.035(3) -0.001(3) -0.001(3) 0.001(4)
C8 0.077(6) 0.057(5) 0.056(4) 0.002(3) 0.004(4) 0.005(4)
C9 0.081(6) 0.065(5) 0.050(4) -0.013(4) -0.013(4) 0.017(4)
C10 0.069(5) 0.051(4) 0.051(4) -0.006(3) -0.004(3) 0.006(4)
C11 0.062(4) 0.048(4) 0.044(4) -0.004(3) -0.005(3) 0.004(3)
C12 0.057(4) 0.056(4) 0.040(4) 0.001(3) -0.004(3) 0.003(3)
C13 0.058(4) 0.055(4) 0.046(4) -0.002(3) -0.004(3) 0.004(3)
C14 0.062(5) 0.069(5) 0.054(4) -0.008(4) -0.007(4) 0.004(4)
C15 0.080(5) 0.061(5) 0.060(5) -0.012(4) -0.018(4) 0.009(4)
C16 0.068(5) 0.071(5) 0.042(4) -0.004(3) -0.001(4) 0.005(4)
C17 0.080(6) 0.078(6) 0.059(5) -0.004(4) -0.020(4) 0.000(5)
C18 0.078(5) 0.073(6) 0.056(5) -0.007(4) -0.017(4) 0.004(5)
C19 0.077(5) 0.055(4) 0.060(4) 0.002(4) -0.014(4) 0.014(4)
C20 0.088(5) 0.052(5) 0.062(5) -0.003(4) -0.011(4) 0.009(4)
C21 0.093(6) 0.071(6) 0.054(4) -0.004(4) -0.003(4) 0.007(5)
C22 0.098(6) 0.088(7) 0.055(5) 0.001(5) 0.010(5) 0.012(5)
C23 0.083(7) 0.110(8) 0.052(5) -0.004(5) 0.001(5) 0.000(5)
C24 0.093(6) 0.059(5) 0.060(5) -0.005(4) -0.013(5) 0.015(5)
C25 0.074(6) 0.063(5) 0.060(5) -0.007(4) -0.005(4) 0.020(4)
C26 0.055(5) 0.069(4) 0.076(6) -0.016(4) -0.007(4) 0.006(4)
C27 0.078(5) 0.065(5) 0.066(5) 0.001(4) 0.010(4) 0.003(4)
C28 0.066(6) 0.081(6) 0.091(6) -0.028(5) -0.002(4) 0.008(5)
C29 0.062(6) 0.088(7) 0.114(7) -0.041(6) -0.015(5) 0.012(5)
C30 0.087(7) 0.103(8) 0.094(6) -0.045(6) -0.017(6) 0.005(6)
C31 0.077(6) 0.079(6) 0.063(5) -0.004(5) -0.020(4) 0.017(4)
C32 0.089(6) 0.079(6) 0.062(5) -0.013(5) -0.021(5) 0.014(5)
C33 0.098(6) 0.081(6) 0.045(4) -0.003(4) -0.007(4) 0.018(5)
C34 0.087(6) 0.087(6) 0.056(4) -0.004(4) 0.001(4) 0.006(5)
C35 0.122(8) 0.082(5) 0.066(6) -0.012(5) -0.007(5) 0.010(5)
C36 0.118(9) 0.105(8) 0.096(8) -0.011(6) -0.003(6) 0.000(6)
C37 0.129(10) 0.130(11) 0.096(9) -0.025(8) 0.017(7) -0.014(8)
C38 0.127(8) 0.101(8) 0.094(6) -0.012(6) -0.045(6) 0.007(7)
C39 0.150(8) 0.105(8) 0.060(5) -0.006(6) -0.002(5) 0.012(7)
C40 0.096(6) 0.082(7) 0.106(7) 0.002(6) -0.015(6) 0.014(6)
C41 0.098(6) 0.074(6) 0.092(7) 0.020(6) 0.015(5) 0.016(5)
C42 0.256(16) 0.143(12) 0.138(10) -0.062(9) -0.048(10) -0.036(10)
C43 0.295(19) 0.119(12) 0.122(10) -0.034(9) -0.019(12) -0.062(11)
C44 0.34(3) 0.21(2) 0.094(11) -0.008(10) -0.044(15) -0.056(16)
loop_
_atom_type_symbol
_atom_type_description
_atom_type_scat_dispersion_real
_atom_type_scat_dispersion_imag
_atom_type_scat_source
C C 0.0030 0.0016 'International Tables Vol C Tables 4.2.6.8 and 6.1.1.4'
H H 0.0000 0.0000 'International Tables Vol C Tables 4.2.6.8 and 6.1.1.4'
N N 0.0059 0.0032 'International Tables Vol C Tables 4.2.6.8 and 6.1.1.4'
O O 0.0105 0.0059 'International Tables Vol C Tables 4.2.6.8 and 6.1.1.4'
Ni Ni 0.3420 1.0875 'International Tables Vol C Tables 4.2.6.8 and 6.1.1.4'
loop_
_geom_angle_atom_site_label_1
_geom_angle_atom_site_label_2
_geom_angle_atom_site_label_3
_geom_angle
_geom_angle_site_symmetry_1
_geom_angle_site_symmetry_3
N2 Ni1 N2 180.0(4) 2_665 .
N2 Ni1 N1 84.1(3) 2_665 .
N2 Ni1 N1 95.9(3) . .
N2 Ni1 N1 95.9(3) 2_665 2_665
N2 Ni1 N1 84.1(3) . 2_665
N1 Ni1 N1 180.0 . 2_665
N2 Ni1 O2 85.8(2) 2_665 2_665
N2 Ni1 O2 94.2(2) . 2_665
N1 Ni1 O2 87.9(2) . 2_665
N1 Ni1 O2 92.1(2) 2_665 2_665
N2 Ni1 O2 94.2(2) 2_665 .
N2 Ni1 O2 85.8(2) . .
N1 Ni1 O2 92.1(2) . .
N1 Ni1 O2 87.9(2) 2_665 .
O2 Ni1 O2 180.0 2_665 .
N5 Ni2 N5 180.0 . 2_755
N5 Ni2 N4 85.6(3) . 2_755
N5 Ni2 N4 94.4(3) 2_755 2_755
N5 Ni2 N4 94.4(3) . .
N5 Ni2 N4 85.6(3) 2_755 .
N4 Ni2 N4 180.0 2_755 .
N5 Ni2 O4 87.1(2) . 2_755
N5 Ni2 O4 92.9(2) 2_755 2_755
N4 Ni2 O4 85.7(2) 2_755 2_755
N4 Ni2 O4 94.3(2) . 2_755
N5 Ni2 O4 92.9(2) . .
N5 Ni2 O4 87.1(2) 2_755 .
N4 Ni2 O4 94.3(2) 2_755 .
N4 Ni2 O4 85.7(2) . .
O4 Ni2 O4 180.0 2_755 .
N7 Ni3 N7 180.0 2_666 .
N7 Ni3 N8 93.7(3) 2_666 2_666
N7 Ni3 N8 86.3(3) . 2_666
N7 Ni3 N8 86.3(3) 2_666 .
N7 Ni3 N8 93.7(3) . .
N8 Ni3 N8 180.0(4) 2_666 .
N7 Ni3 O6 87.2(2) 2_666 .
N7 Ni3 O6 92.8(2) . .
N8 Ni3 O6 91.2(2) 2_666 .
N8 Ni3 O6 88.8(2) . .
N7 Ni3 O6 92.8(2) 2_666 2_666
N7 Ni3 O6 87.2(2) . 2_666
N8 Ni3 O6 88.8(2) 2_666 2_666
N8 Ni3 O6 91.2(2) . 2_666
O6 Ni3 O6 180.0 . 2_666
N11 Ni4 N11 180.0 2_656 .
N11 Ni4 N10 92.5(4) 2_656 2_656
N11 Ni4 N10 87.5(4) . 2_656
N11 Ni4 N10 87.5(4) 2_656 .
N11 Ni4 N10 92.5(4) . .
N10 Ni4 N10 180.0 2_656 .
N11 Ni4 O8 94.8(3) 2_656 2_656
N11 Ni4 O8 85.2(3) . 2_656
N10 Ni4 O8 87.7(3) 2_656 2_656
N10 Ni4 O8 92.3(3) . 2_656
N11 Ni4 O8 85.2(3) 2_656 .
N11 Ni4 O8 94.8(3) . .
N10 Ni4 O8 92.3(3) 2_656 .
N10 Ni4 O8 87.7(3) . .
O8 Ni4 O8 180.0 2_656 .
C1 O2 Ni1 132.0(5) . .
C16 O4 Ni2 129.9(5) . .
C9 O6 Ni3 131.8(5) . .
C8 O8 Ni4 133.9(5) . .
C17 N1 C19 114.8(7) . .
C17 N1 Ni1 106.0(5) . .
C19 N1 Ni1 113.2(5) . .
C17 N1 H1 107.5 . .
C19 N1 H1 107.5 . .
Ni1 N1 H1 107.5 . .
C18 N2 C20 117.0(7) . .
C18 N2 Ni1 107.0(5) . .
C20 N2 Ni1 112.4(5) . .
C18 N2 H2 106.6 . .
C20 N2 H2 106.6 . .
Ni1 N2 H2 106.6 . .
C20 N3 C19 116.4(7) . .
C20 N3 C21 113.0(7) . .
C19 N3 C21 114.3(7) . .
C24 N4 C27 116.7(7) . .
C24 N4 Ni2 104.2(5) . .
C27 N4 Ni2 112.5(5) . .
C24 N4 H4 107.7 . .
C27 N4 H4 107.7 . .
Ni2 N4 H4 107.7 . .
C26 N5 C25 113.2(6) . .
C26 N5 Ni2 115.7(6) . .
C25 N5 Ni2 105.9(5) . .
C26 N5 H5 107.2 . .
C25 N5 H5 107.2 . .
Ni2 N5 H5 107.2 . .
C27 N6 C26 115.9(8) . .
C27 N6 C28 113.7(7) . .
C26 N6 C28 113.0(8) . .
C31 N7 C33 112.7(7) . .
C31 N7 Ni3 105.5(5) . .
C33 N7 Ni3 114.4(6) . .
C31 N7 H7 108.0 . .
C33 N7 H7 108.0 . .
Ni3 N7 H7 108.0 . .
C32 N8 C34 113.6(7) . .
C32 N8 Ni3 105.1(6) . .
C34 N8 Ni3 113.8(6) . .
C32 N8 H8 108.0 . .
C34 N8 H8 108.0 . .
Ni3 N8 H8 108.0 . .
C34 N9 C33 117.5(8) . .
C34 N9 C35 115.8(8) . .
C33 N9 C35 114.7(8) . .
C38 N10 C40 116.5(10) . .
C38 N10 Ni4 114.1(8) . .
C40 N10 Ni4 104.6(7) . .
C38 N10 H10 107.1 . .
C40 N10 H10 107.1 . .
Ni4 N10 H10 107.1 . .
C39 N11 C41 113.2(8) . .
C39 N11 Ni4 117.0(7) . .
C41 N11 Ni4 104.4(6) . .
C39 N11 H11 107.3 . .
C41 N11 H11 107.3 . .
Ni4 N11 H11 107.3 . .
C38 N12 C42 111.3(12) . .
C38 N12 C39 114.0(10) . .
C42 N12 C39 113.5(10) . .
O1 C1 O2 125.5(8) . .
O1 C1 C2 118.9(7) . .
O2 C1 C2 115.6(8) . .
C7 C2 C3 119.4(7) . .
C7 C2 C1 120.8(7) . .
C3 C2 C1 119.9(8) . .
C4 C3 C2 118.3(8) . .
C4 C3 H3 120.8 . .
C2 C3 H3 120.8 . .
C3 C4 C5 122.8(7) . .
C3 C4 H4A 118.6 . .
C5 C4 H4A 118.6 . .
C4 C5 C6 119.4(7) . .
C4 C5 C8 117.2(7) . .
C6 C5 C8 123.2(8) . .
C7 C6 C5 117.3(8) . .
C7 C6 C11 118.4(7) . .
C5 C6 C11 124.3(7) . .
C2 C7 C6 122.6(7) . .
C2 C7 H7A 118.7 . .
C6 C7 H7A 118.7 . .
O7 C8 O8 127.1(8) . .
O7 C8 C5 116.6(8) . .
O8 C8 C5 116.4(7) . .
O6 C9 O5 127.2(7) . .
O6 C9 C10 118.2(7) . .
O5 C9 C10 114.5(8) . .
C15 C10 C11 119.0(7) . .
C15 C10 C9 117.5(7) . .
C11 C10 C9 123.5(8) . .
C10 C11 C12 119.0(7) . .
C10 C11 C6 124.6(7) . .
C12 C11 C6 116.3(7) . .
C13 C12 C11 121.0(7) . .
C13 C12 H12 119.5 . .
C11 C12 H12 119.5 . .
C12 C13 C14 120.0(7) . .
C12 C13 C16 121.5(7) . .
C14 C13 C16 118.3(8) . .
C15 C14 C13 117.7(8) . .
C15 C14 H14 121.1 . .
C13 C14 H14 121.1 . .
C10 C15 C14 123.2(8) . .
C10 C15 H15 118.4 . .
C14 C15 H15 118.4 . .
O3 C16 O4 126.4(7) . .
O3 C16 C13 117.6(7) . .
O4 C16 C13 116.0(8) . .
N1 C17 C18 109.4(7) . 2_665
N1 C17 H17A 109.8 . .
C18 C17 H17A 109.8 2_665 .
N1 C17 H17B 109.8 . .
C18 C17 H17B 109.8 2_665 .
H17A C17 H17B 108.2 . .
N2 C18 C17 108.0(7) . 2_665
N2 C18 H18A 110.1 . .
C17 C18 H18A 110.1 2_665 .
N2 C18 H18B 110.1 . .
C17 C18 H18B 110.1 2_665 .
H18A C18 H18B 108.4 . .
N3 C19 N1 112.6(7) . .
N3 C19 H19A 109.1 . .
N1 C19 H19A 109.1 . .
N3 C19 H19B 109.1 . .
N1 C19 H19B 109.1 . .
H19A C19 H19B 107.8 . .
N3 C20 N2 115.2(7) . .
N3 C20 H20A 108.5 . .
N2 C20 H20A 108.5 . .
N3 C20 H20B 108.5 . .
N2 C20 H20B 108.5 . .
H20A C20 H20B 107.5 . .
C22 C21 N3 113.4(8) . .
C22 C21 H21A 108.9 . .
N3 C21 H21A 108.9 . .
C22 C21 H21B 108.9 . .
N3 C21 H21B 108.9 . .
H21A C21 H21B 107.7 . .
C23 C22 C21 126.0(10) . .
C23 C22 H22 117.0 . .
C21 C22 H22 117.0 . .
C22 C23 H23A 120.0 . .
C22 C23 H23B 120.0 . .
H23A C23 H23B 120.0 . .
C25 C24 N4 109.7(7) 2_755 .
C25 C24 H24A 109.7 2_755 .
N4 C24 H24A 109.7 . .
C25 C24 H24B 109.7 2_755 .
N4 C24 H24B 109.7 . .
H24A C24 H24B 108.2 . .
C24 C25 N5 107.3(7) 2_755 .
C24 C25 H25A 110.3 2_755 .
N5 C25 H25A 110.3 . .
C24 C25 H25B 110.3 2_755 .
N5 C25 H25B 110.3 . .
H25A C25 H25B 108.5 . .
N5 C26 N6 114.0(7) . .
N5 C26 H26A 108.7 . .
N6 C26 H26A 108.7 . .
N5 C26 H26B 108.7 . .
N6 C26 H26B 108.7 . .
H26A C26 H26B 107.6 . .
N6 C27 N4 114.7(7) . .
N6 C27 H27A 108.6 . .
N4 C27 H27A 108.6 . .
N6 C27 H27B 108.6 . .
N4 C27 H27B 108.6 . .
H27A C27 H27B 107.6 . .
C29 C28 N6 112.9(7) . .
C29 C28 H28A 109.0 . .
N6 C28 H28A 109.0 . .
C29 C28 H28B 109.0 . .
N6 C28 H28B 109.0 . .
H28A C28 H28B 107.8 . .
C30 C29 C28 124.3(11) . .
C30 C29 H29 117.8 . .
C28 C29 H29 117.9 . .
C29 C30 H30A 120.0 . .
C29 C30 H30B 120.0 . .
H30A C30 H30B 120.0 . .
N7 C31 C32 110.3(7) . 2_666
N7 C31 H31A 109.6 . .
C32 C31 H31A 109.6 2_666 .
N7 C31 H31B 109.6 . .
C32 C31 H31B 109.6 2_666 .
H31A C31 H31B 108.1 . .
N8 C32 C31 109.7(7) . 2_666
N8 C32 H32A 109.7 . .
C31 C32 H32A 109.7 2_666 .
N8 C32 H32B 109.7 . .
C31 C32 H32B 109.7 2_666 .
H32A C32 H32B 108.2 . .
N9 C33 N7 114.3(7) . .
N9 C33 H33A 108.7 . .
N7 C33 H33A 108.7 . .
N9 C33 H33B 108.7 . .
N7 C33 H33B 108.7 . .
H33A C33 H33B 107.6 . .
N9 C34 N8 113.3(7) . .
N9 C34 H34A 108.9 . .
N8 C34 H34A 108.9 . .
N9 C34 H34B 108.9 . .
N8 C34 H34B 108.9 . .
H34A C34 H34B 107.7 . .
N9 C35 C36 107.7(9) . .
N9 C35 H35A 110.2 . .
C36 C35 H35A 110.2 . .
N9 C35 H35B 110.2 . .
C36 C35 H35B 110.2 . .
H35A C35 H35B 108.5 . .
C37 C36 C35 125.4(12) . .
C37 C36 H36 117.3 . .
C35 C36 H36 117.3 . .
C36 C37 H37A 120.0 . .
C36 C37 H37B 120.0 . .
H37A C37 H37B 120.0 . .
N10 C38 N12 110.7(10) . .
N10 C38 H38A 109.5 . .
N12 C38 H38A 109.5 . .
N10 C38 H38B 109.5 . .
N12 C38 H38B 109.5 . .
H38A C38 H38B 108.1 . .
N11 C39 N12 111.0(9) . .
N11 C39 H39A 109.4 . .
N12 C39 H39A 109.4 . .
N11 C39 H39B 109.4 . .
N12 C39 H39B 109.4 . .
H39A C39 H39B 108.0 . .
N10 C40 C41 111.9(10) . 2_656
N10 C40 H40A 109.2 . .
C41 C40 H40A 109.2 2_656 .
N10 C40 H40B 109.2 . .
C41 C40 H40B 109.2 2_656 .
H40A C40 H40B 107.9 . .
C40 C41 N11 109.0(9) 2_656 .
C40 C41 H41A 109.9 2_656 .
N11 C41 H41A 109.9 . .
C40 C41 H41B 109.9 2_656 .
N11 C41 H41B 109.9 . .
H41A C41 H41B 108.3 . .
C43 C42 N12 118.9(14) . .
C43 C42 H42A 107.6 . .
N12 C42 H42A 107.6 . .
C43 C42 H42B 107.6 . .
N12 C42 H42B 107.6 . .
H42A C42 H42B 107.0 . .
C44 C43 C42 125.8(17) . .
C44 C43 H43 117.1 . .
C42 C43 H43 117.1 . .
C43 C44 H44A 120.0 . .
C43 C44 H44B 120.0 . .
H44A C44 H44B 120.0 . .
loop_
_geom_bond_atom_site_label_1
_geom_bond_atom_site_label_2
_geom_bond_distance
_geom_bond_site_symmetry_2
Ni1 N2 2.057(6) 2_665
Ni1 N2 2.057(6) .
Ni1 N1 2.061(7) .
Ni1 N1 2.061(7) 2_665
Ni1 O2 2.111(5) 2_665
Ni1 O2 2.111(5) .
Ni2 N5 2.012(7) .
Ni2 N5 2.012(7) 2_755
Ni2 N4 2.078(7) 2_755
Ni2 N4 2.078(7) .
Ni2 O4 2.170(5) 2_755
Ni2 O4 2.170(5) .
Ni3 N7 2.043(7) 2_666
Ni3 N7 2.043(7) .
Ni3 N8 2.060(8) 2_666
Ni3 N8 2.060(8) .
Ni3 O6 2.171(5) .
Ni3 O6 2.171(5) 2_666
Ni4 N11 2.027(7) 2_656
Ni4 N11 2.027(7) .
Ni4 N10 2.058(9) 2_656
Ni4 N10 2.058(9) .
Ni4 O8 2.135(6) 2_656
Ni4 O8 2.135(6) .
O1 C1 1.258(9) .
O2 C1 1.273(9) .
O3 C16 1.249(10) .
O4 C16 1.273(9) .
O5 C9 1.254(10) .
O6 C9 1.234(10) .
O7 C8 1.238(9) .
O8 C8 1.261(9) .
N1 C17 1.455(10) .
N1 C19 1.515(10) .
N1 H1 1.0000 .
N2 C18 1.466(11) .
N2 C20 1.494(10) .
N2 H2 1.0000 .
N3 C20 1.418(11) .
N3 C19 1.453(10) .
N3 C21 1.480(11) .
N4 C24 1.471(11) .
N4 C27 1.480(11) .
N4 H4 1.0000 .
N5 C26 1.462(10) .
N5 C25 1.516(10) .
N5 H5 1.0000 .
N6 C27 1.430(12) .
N6 C26 1.463(11) .
N6 C28 1.503(11) .
N7 C31 1.446(11) .
N7 C33 1.481(10) .
N7 H7 1.0000 .
N8 C32 1.460(11) .
N8 C34 1.497(10) .
N8 H8 1.0000 .
N9 C34 1.446(12) .
N9 C33 1.458(12) .
N9 C35 1.475(12) .
N10 C38 1.414(13) .
N10 C40 1.447(12) .
N10 H10 1.0000 .
N11 C39 1.445(13) .
N11 C41 1.498(13) .
N11 H11 1.0000 .
N12 C38 1.457(14) .
N12 C42 1.478(16) .
N12 C39 1.479(16) .
C1 C2 1.504(11) .
C2 C7 1.388(11) .
C2 C3 1.410(10) .
C3 C4 1.384(11) .
C3 H3 0.9500 .
C4 C5 1.386(11) .
C4 H4A 0.9500 .
C5 C6 1.423(11) .
C5 C8 1.521(11) .
C6 C7 1.401(10) .
C6 C11 1.490(11) .
C7 H7A 0.9500 .
C9 C10 1.538(10) .
C10 C15 1.381(11) .
C10 C11 1.381(11) .
C11 C12 1.411(10) .
C12 C13 1.389(11) .
C12 H12 0.9500 .
C13 C14 1.393(11) .
C13 C16 1.531(10) .
C14 C15 1.391(11) .
C14 H14 0.9500 .
C15 H15 0.9500 .
C17 C18 1.486(12) 2_665
C17 H17A 0.9900 .
C17 H17B 0.9900 .
C18 H18A 0.9900 .
C18 H18B 0.9900 .
C19 H19A 0.9900 .
C19 H19B 0.9900 .
C20 H20A 0.9900 .
C20 H20B 0.9900 .
C21 C22 1.467(13) .
C21 H21A 0.9900 .
C21 H21B 0.9900 .
C22 C23 1.310(14) .
C22 H22 0.9500 .
C23 H23A 0.9500 .
C23 H23B 0.9500 .
C24 C25 1.459(12) 2_755
C24 H24A 0.9900 .
C24 H24B 0.9900 .
C25 H25A 0.9900 .
C25 H25B 0.9900 .
C26 H26A 0.9900 .
C26 H26B 0.9900 .
C27 H27A 0.9900 .
C27 H27B 0.9900 .
C28 C29 1.494(14) .
C28 H28A 0.9900 .
C28 H28B 0.9900 .
C29 C30 1.307(15) .
C29 H29 0.9500 .
C30 H30A 0.9500 .
C30 H30B 0.9500 .
C31 C32 1.512(12) 2_666
C31 H31A 0.9900 .
C31 H31B 0.9900 .
C32 H32A 0.9900 .
C32 H32B 0.9900 .
C33 H33A 0.9900 .
C33 H33B 0.9900 .
C34 H34A 0.9900 .
C34 H34B 0.9900 .
C35 C36 1.517(15) .
C35 H35A 0.9900 .
C35 H35B 0.9900 .
C36 C37 1.340(17) .
C36 H36 0.9500 .
C37 H37A 0.9500 .
C37 H37B 0.9500 .
C38 H38A 0.9900 .
C38 H38B 0.9900 .
C39 H39A 0.9900 .
C39 H39B 0.9900 .
C40 C41 1.493(15) 2_656
C40 H40A 0.9900 .
C40 H40B 0.9900 .
C41 H41A 0.9900 .
C41 H41B 0.9900 .
C42 C43 1.449(12) .
C42 H42A 0.9900 .
C42 H42B 0.9900 .
C43 C44 1.34(2) .
C43 H43 0.9500 .
C44 H44A 0.9500 .
C44 H44B 0.9500 .
loop_
_geom_hbond_atom_site_label_D
_geom_hbond_atom_site_label_H
_geom_hbond_atom_site_label_A
_geom_hbond_distance_DH
_geom_hbond_distance_HA
_geom_hbond_distance_DA
_geom_hbond_angle_DHA
_geom_hbond_publ_flag
N1 H1 O1 1.00 1.97 2.866(9) 148.4 yes
N5 H5 O3 1.00 1.93 2.844(8) 149.9 yes
N7 H7 O5 1.00 1.96 2.876(9) 150.5 yes
N8 H8 O7 1.00 2.27 3.253(10) 167.2 yes
N11 H11 O7 1.00 2.19 3.058(10) 144.7 yes
loop_
_geom_torsion_atom_site_label_1
_geom_torsion_atom_site_label_2
_geom_torsion_atom_site_label_3
_geom_torsion_atom_site_label_4
_geom_torsion
_geom_torsion_site_symmetry_4
Ni1 O2 C1 O1 27.6(11) .
Ni1 O2 C1 C2 -153.1(5) .
O1 C1 C2 C7 170.5(7) .
O2 C1 C2 C7 -8.9(10) .
O1 C1 C2 C3 -9.8(11) .
O2 C1 C2 C3 170.9(7) .
C7 C2 C3 C4 -0.2(11) .
C1 C2 C3 C4 -180.0(7) .
C2 C3 C4 C5 -1.8(11) .
C3 C4 C5 C6 1.1(12) .
C3 C4 C5 C8 -175.5(7) .
C4 C5 C6 C7 1.6(11) .
C8 C5 C6 C7 178.0(7) .
C4 C5 C6 C11 -175.9(7) .
C8 C5 C6 C11 0.5(12) .
C3 C2 C7 C6 3.0(11) .
C1 C2 C7 C6 -177.3(7) .
C5 C6 C7 C2 -3.6(10) .
C11 C6 C7 C2 174.0(7) .
Ni4 O8 C8 O7 20.7(16) .
Ni4 O8 C8 C5 -157.3(6) .
C4 C5 C8 O7 -47.1(12) .
C6 C5 C8 O7 136.4(9) .
C4 C5 C8 O8 131.0(9) .
C6 C5 C8 O8 -45.5(12) .
Ni3 O6 C9 O5 10.0(16) .
Ni3 O6 C9 C10 -167.2(5) .
O6 C9 C10 C15 137.4(9) .
O5 C9 C10 C15 -40.2(12) .
O6 C9 C10 C11 -42.7(13) .
O5 C9 C10 C11 139.8(9) .
C15 C10 C11 C12 0.5(12) .
C9 C10 C11 C12 -179.4(7) .
C15 C10 C11 C6 178.2(8) .
C9 C10 C11 C6 -1.7(13) .
C7 C6 C11 C10 124.5(8) .
C5 C6 C11 C10 -58.1(11) .
C7 C6 C11 C12 -57.8(9) .
C5 C6 C11 C12 119.7(8) .
C10 C11 C12 C13 1.6(11) .
C6 C11 C12 C13 -176.3(7) .
C11 C12 C13 C14 -2.4(12) .
C11 C12 C13 C16 172.5(7) .
C12 C13 C14 C15 1.2(12) .
C16 C13 C14 C15 -173.9(8) .
C11 C10 C15 C14 -1.8(13) .
C9 C10 C15 C14 178.2(8) .
C13 C14 C15 C10 0.9(13) .
Ni2 O4 C16 O3 -16.4(13) .
Ni2 O4 C16 C13 163.0(5) .
C12 C13 C16 O3 -164.8(8) .
C14 C13 C16 O3 10.1(12) .
C12 C13 C16 O4 15.7(11) .
C14 C13 C16 O4 -169.3(7) .
C19 N1 C17 C18 168.6(7) 2_665
Ni1 N1 C17 C18 42.8(8) 2_665
C20 N2 C18 C17 -167.5(7) 2_665
Ni1 N2 C18 C17 -40.3(8) 2_665
C20 N3 C19 N1 72.6(9) .
C21 N3 C19 N1 -62.0(10) .
C17 N1 C19 N3 -177.1(7) .
Ni1 N1 C19 N3 -55.1(8) .
C19 N3 C20 N2 -73.8(9) .
C21 N3 C20 N2 61.3(9) .
C18 N2 C20 N3 -179.9(7) .
Ni1 N2 C20 N3 55.6(8) .
C20 N3 C21 C22 167.5(7) .
C19 N3 C21 C22 -56.4(10) .
N3 C21 C22 C23 121.0(10) .
C27 N4 C24 C25 167.9(7) 2_755
Ni2 N4 C24 C25 43.2(7) 2_755
C26 N5 C25 C24 -170.6(7) 2_755
Ni2 N5 C25 C24 -42.8(7) 2_755
C25 N5 C26 N6 177.7(7) .
Ni2 N5 C26 N6 55.3(9) .
C27 N6 C26 N5 -69.2(10) .
C28 N6 C26 N5 64.5(10) .
C26 N6 C27 N4 71.2(9) .
C28 N6 C27 N4 -62.2(10) .
C24 N4 C27 N6 -177.1(7) .
Ni2 N4 C27 N6 -56.8(8) .
C27 N6 C28 C29 -169.0(9) .
C26 N6 C28 C29 56.2(11) .
N6 C28 C29 C30 -116.8(11) .
C33 N7 C31 C32 -165.5(7) 2_666
Ni3 N7 C31 C32 -40.0(8) 2_666
C34 N8 C32 C31 163.8(8) 2_666
Ni3 N8 C32 C31 38.7(8) 2_666
C34 N9 C33 N7 -68.4(10) .
C35 N9 C33 N7 72.8(10) .
C31 N7 C33 N9 176.6(8) .
Ni3 N7 C33 N9 56.0(9) .
C33 N9 C34 N8 68.8(10) .
C35 N9 C34 N8 -72.0(11) .
C32 N8 C34 N9 -177.4(8) .
Ni3 N8 C34 N9 -57.1(9) .
C34 N9 C35 C36 -72.3(11) .
C33 N9 C35 C36 145.9(9) .
N9 C35 C36 C37 104.9(14) .
C40 N10 C38 N12 175.5(10) .
Ni4 N10 C38 N12 -62.5(11) .
C42 N12 C38 N10 -151.9(11) .
C39 N12 C38 N10 78.1(13) .
C41 N11 C39 N12 176.3(9) .
Ni4 N11 C39 N12 54.9(11) .
C38 N12 C39 N11 -72.6(13) .
C42 N12 C39 N11 158.6(11) .
C38 N10 C40 C41 164.3(10) 2_656
Ni4 N10 C40 C41 37.4(10) 2_656
C39 N11 C41 C40 -168.8(9) 2_656
Ni4 N11 C41 C40 -40.6(9) 2_656
C38 N12 C42 C43 70.5(19) .
C39 N12 C42 C43 -159.3(15) .
N12 C42 C43 C44 11(3) .
