#------------------------------------------------------------------------------
#$Date: 2019-08-13 03:05:19 +0300 (Tue, 13 Aug 2019) $
#$Revision: 217497 $
#$URL: file:///home/coder/svn-repositories/cod/cif/7/12/39/7123978.cif $
#------------------------------------------------------------------------------
#
# This file is available in the Crystallography Open Database (COD),
# http://www.crystallography.net/
#
# All data on this site have been placed in the public domain by the
# contributors.
#
data_7123978
loop_
_publ_author_name
'Gong, Yaru'
'Tao, Yanli'
'Xu, Na'
'Sun, Chun-Yi'
'Wang, Xinlong'
'Su, Zhong-Min'
_publ_section_title
;
 Two polyoxovanadate-based metal-organic polyhedra with undiscovered
 &#x201C;Near-miss Johnson Solid&#x201D; geometry&#x2020;
;
_journal_name_full               'Chemical Communications'
_journal_paper_doi               10.1039/C9CC05984A
_journal_year                    2019
_chemical_formula_moiety         'C108 H36 Cl4 Nb4 O176 S4 V40, 3(O4 S)'
_chemical_formula_sum            'C168 H276 Cl4 N30 Nb4 O180 S7 V40'
_chemical_formula_weight         8371.63
_space_group_crystal_system      tetragonal
_space_group_IT_number           121
_space_group_name_Hall           'I -4 2'
_space_group_name_H-M_alt        'I -4 2 m'
_symmetry_space_group_name_Hall  'I -4 2'
_symmetry_space_group_name_H-M   'I -4 2 m'
_atom_sites_solution_hydrogens   mixed
_audit_creation_date             2019-08-01
_audit_creation_method
;
Olex2 1.2-beta
(compiled 2018.05.29 svn.r3508 for OlexSys, GUI svn.r5506)
;
_audit_update_record
;
2019-08-01 deposited with the CCDC.    2019-08-12 downloaded from the CCDC.
;
_cell_angle_alpha                90
_cell_angle_beta                 90
_cell_angle_gamma                90
_cell_formula_units_Z            2
_cell_length_a                   21.854(3)
_cell_length_b                   21.854(3)
_cell_length_c                   44.273(6)
_cell_measurement_reflns_used    9928
_cell_measurement_temperature    273(2)
_cell_measurement_theta_max      24.34
_cell_measurement_theta_min      2.50
_cell_volume                     21145(5)
_computing_cell_refinement       'SAINT v8.37A (Bruker, 2015)'
_computing_data_reduction        'SAINT v8.37A (Bruker, 2015)'
_computing_molecular_graphics    'Olex2 (Dolomanov et al., 2009)'
_computing_publication_material  'Olex2 (Dolomanov et al., 2009)'
_computing_structure_refinement  'ShelXL (Sheldrick, 2015)'
_computing_structure_solution    'SHELXT 2014/5 (Sheldrick, 2014)'
_diffrn_ambient_temperature      273.15
_diffrn_measured_fraction_theta_full 0.987
_diffrn_measured_fraction_theta_max 0.987
_diffrn_measurement_device_type  'Bruker APEX-II CCD'
_diffrn_measurement_method       '\f and \w scans'
_diffrn_radiation_type           MoK\a
_diffrn_radiation_wavelength     0.71073
_diffrn_reflns_av_R_equivalents  0.0960
_diffrn_reflns_av_unetI/netI     0.0696
_diffrn_reflns_Laue_measured_fraction_full 0.987
_diffrn_reflns_Laue_measured_fraction_max 0.987
_diffrn_reflns_limit_h_max       26
_diffrn_reflns_limit_h_min       -26
_diffrn_reflns_limit_k_max       26
_diffrn_reflns_limit_k_min       -25
_diffrn_reflns_limit_l_max       52
_diffrn_reflns_limit_l_min       -51
_diffrn_reflns_number            54581
_diffrn_reflns_point_group_measured_fraction_full 0.989
_diffrn_reflns_point_group_measured_fraction_max 0.989
_diffrn_reflns_theta_full        25.109
_diffrn_reflns_theta_max         25.109
_diffrn_reflns_theta_min         2.948
_exptl_absorpt_coefficient_mu    1.077
_exptl_absorpt_correction_T_max  0.86
_exptl_absorpt_correction_T_min  0.84
_exptl_absorpt_correction_type   multi-scan
_exptl_crystal_colour            green
_exptl_crystal_density_diffrn    1.315
_exptl_crystal_description       block
_exptl_crystal_F_000             8396
_exptl_crystal_size_max          0.24
_exptl_crystal_size_mid          0.22
_exptl_crystal_size_min          0.20
_refine_diff_density_max         0.761
_refine_diff_density_min         -1.994
_refine_diff_density_rms         0.119
_refine_ls_abs_structure_details
;
 Refined as an inversion twin.
;
_refine_ls_abs_structure_Flack   0.08(5)
_refine_ls_extinction_method     none
_refine_ls_goodness_of_fit_ref   1.009
_refine_ls_hydrogen_treatment    constr
_refine_ls_matrix_type           full
_refine_ls_number_parameters     487
_refine_ls_number_reflns         9693
_refine_ls_number_restraints     1094
_refine_ls_restrained_S_all      1.040
_refine_ls_R_factor_all          0.0957
_refine_ls_R_factor_gt           0.0647
_refine_ls_shift/su_max          0.000
_refine_ls_shift/su_mean         0.000
_refine_ls_structure_factor_coef Fsqd
_refine_ls_weighting_details
'w=1/[\s^2^(Fo^2^)+(0.1410P)^2^] where P=(Fo^2^+2Fc^2^)/3'
_refine_ls_weighting_scheme      calc
_refine_ls_wR_factor_gt          0.1754
_refine_ls_wR_factor_ref         0.1979
_reflns_Friedel_coverage         0.871
_reflns_Friedel_fraction_full    0.991
_reflns_Friedel_fraction_max     0.991
_reflns_number_gt                7098
_reflns_number_total             9693
_reflns_threshold_expression     'I > 2\s(I)'
_cod_data_source_file            c9cc05984a2.cif
_cod_data_source_block           VMOP_27
_cod_original_cell_volume        21145(6)
_cod_database_code               7123978
_shelx_shelxl_version_number     2017/1
_shelx_space_group_comment
;
The symmetry employed for this shelxl refinement is uniquely defined
by the following loop, which should always be used as a source of
symmetry information in preference to the above space-group names.
They are only intended as comments.
;
_shelx_estimated_absorpt_t_max   0.54
_shelx_estimated_absorpt_t_min   0.21
_olex2_refinement_description
;
1. Twinned data refinement
 Scales: 0.92(6)
 0.08(6)
2. Fixed Uiso
 At 1.2 times of:
  All C(H) groups
3. Restrained distances
 O24-V1
 2.4 with sigma of 0.02
 V2-O25
 2.4 with sigma of 0.02
 Nb1-O26
 2.35 with sigma of 0.02
 S2-O26 = S1-O26
 1.45 with sigma of 0.02
 S1-O25
 1.45 with sigma of 0.02
 S1-O24 = S2-O24
 1.45 with sigma of 0.02
 S2-O27
 1.45 with sigma of 0.02
 V3-O27
 2.45 with sigma of 0.02
 S3-O29 = S3-O28 = S3-O30 = S3-O31
 1.45 with sigma of 0.02
4. Uiso/Uaniso restraints and constraints
C1 \\sim C2 \\sim C3 \\sim C4 \\sim C5 \\sim C6 \\sim C7 \\sim C8 \\sim C9
\\sim C10 \\sim C11 \\sim C12 \\sim C13 \\sim C14 \\sim C15 \\sim O1 \\sim O2
\\sim O3 \\sim O4 \\sim O5 \\sim O6 \\sim O7 \\sim O8 \\sim O9 \\sim O10 \\sim
O11 \\sim O12 \\sim O13 \\sim O14 \\sim O15 \\sim O16 \\sim O17 \\sim O18 \\sim
O19 \\sim O20 \\sim O21 \\sim O22 \\sim O23 \\sim O24 \\sim O25 \\sim O26 \\sim
O27 \\sim O28 \\sim O29 \\sim O30 \\sim O31 \\sim O32 \\sim O33 \\sim S1 \\sim
S2 \\sim S3 \\sim S4: within 3.8A with sigma of 0.01 and sigma for terminal
atoms of 0.03
5. Others
 Fixed Sof: S1(0.25) S2(0.25) O25(0.5) S3(0.25) O28(0.25) O29(0.25) O30(0.25)
 O31(0.25) S4(0.125) O32(0.25) O33(0.25)
6.a Riding coordinates:
 C7(H7)
6.b Aromatic/amide H refined with riding coordinates:
 C2(H2), C11(H11), C12(H12), C14(H14)
;
_shelx_res_file
;
TITL mo_gongyr171027_0m_a.res in I-4 New:I-42m
    1_sq.res
    created by SHELXL-2017/1 at 10:54:03 on 01-Aug-2019
CELL 0.71073 21.854 21.854 44.273 90 90 90
ZERR 2 0.003 0.003 0.006 0 0 0
LATT -2
SYMM +Y,-X,-Z
SYMM -X,-Y,+Z
SYMM -Y,+X,-Z
SYMM +X,-Y,-Z
SYMM -Y,-X,+Z
SYMM -X,+Y,-Z
SYMM +Y,+X,+Z
SFAC C H Cl Nb O S V N
UNIT 336 552 8 8 360 14 80 60
EQIV $1 -Y,-X,+Z
DFIX 2.4 O24 V1
DFIX 2.4 V2 O25
DFIX 2.35 Nb1 O26
DFIX 1.45 S2 O26 S1 O26
DFIX 1.45 S1 O25
DFIX 1.45 S1 O24 S2 O24
DFIX 1.45 S2 O27
DFIX 2.45 V3 O27
DFIX 1.45 S3 O29 S3 O28 S3 O30 S3 O31
SIMU 0.01 0.03 3.8 $C $O $S

L.S. 10 0 191
PLAN  -10
TEMP 0
BIND V3 O27
BIND V4 Cl1
FREE Cl1 O21_$1
FREE Cl1 O21
CONF
BOND $H
ABIN
fmap 2
acta
TWIN -1 0 0 0 -1 0 0 0 -1 2
OMIT 0 4 0
OMIT 0 0 10
OMIT 1 1 4
OMIT -1 1 4
OMIT 0 3 3
OMIT 0 2 8
OMIT 0 5 3
OMIT -2 2 4
OMIT 0 7 7
OMIT 2 2 4
OMIT 0 8 8
OMIT 0 2 12
OMIT 0 2 10
OMIT 3 0 7
OMIT -3 -3 -4
OMIT 4 0 6
OMIT 3 3 4
OMIT -4 -3 -3
OMIT -4 -1 -7
OMIT 4 0 4
OMIT 4 1 7
OMIT 3 1 0
OMIT -3 -2 -1
OMIT 3 0 5
OMIT 3 2 1
REM <olex2.extras>
REM <HklSrc "%.\\1_sq.hkl">
REM </olex2.extras>

WGHT    0.141000
BASF   0.08190
FVAR       0.10041
NB1   4    0.284261    0.284261    0.059607    10.50000    0.04658    0.04658 =
         0.03490   -0.00274   -0.00274   -0.00602
V1    7    0.163842    0.344658    0.033915    11.00000    0.04698    0.04352 =
         0.03330   -0.00011    0.00011   -0.00473
V2    7    0.181267    0.295717    0.110248    11.00000    0.04762    0.04527 =
         0.02792   -0.00398   -0.00416   -0.00255
V3    7    0.281302    0.281302   -0.012185    10.50000    0.03809    0.03809 =
         0.03020   -0.00011   -0.00011   -0.00464
V4    7   -0.211533    0.211533    0.237417    10.50000    0.05780    0.05780 =
         0.03439   -0.00980    0.00980    0.01111
V5    7   -0.119348    0.119348    0.248308    10.50000    0.05626    0.05626 =
         0.02805   -0.00555    0.00555    0.00532
V6    7   -0.099742    0.257250    0.210236    11.00000    0.05279    0.04835 =
         0.03130   -0.01033    0.00289    0.00505
V7    7   -0.240550    0.240550    0.174858    10.50000    0.04946    0.04946 =
         0.03587   -0.00752    0.00752    0.00759
CL1   3   -0.143893    0.143893    0.182570    10.50000    0.06198    0.06198 =
         0.04091   -0.00808    0.00808    0.00811
PART 1
S1    6    0.177837    0.177837    0.052458    10.25000    0.09005    0.09005 =
         0.06806   -0.01141   -0.01141   -0.02647
PART 0
PART 2
S2    6    0.179312    0.179312    0.022527    10.25000    0.11751    0.11751 =
         0.09773   -0.00092   -0.00092   -0.00859
PART 0
O1    5    0.203218    0.292624   -0.036516    11.00000    0.05511    0.09655 =
         0.05419   -0.01337   -0.00317    0.00071
O2    5    0.158728    0.230461    0.141221    11.00000    0.06077    0.06682 =
         0.05364    0.00830    0.00104    0.00320
O3    5   -0.073285    0.318042    0.224265    11.00000    0.07485    0.05600 =
         0.04311   -0.01889    0.00486   -0.00200
O4    5    0.187993    0.350916    0.133721    11.00000    0.06861    0.06830 =
         0.04200   -0.01649   -0.00891    0.00143
O5    5    0.244990    0.323853    0.021316    11.00000    0.06398    0.07661 =
         0.04403   -0.00464   -0.00067   -0.00754
O6    5   -0.178953    0.267011    0.144098    11.00000    0.04646    0.06595 =
         0.03806   -0.00511    0.00660   -0.00473
O7    5   -0.105348    0.105348    0.282866    10.50000    0.06614    0.06614 =
         0.03414   -0.00203    0.00203   -0.00362
O8    5    0.327613    0.327613   -0.029632    10.50000    0.05862    0.05862 =
         0.05874    0.00786    0.00786   -0.00064
O9    5   -0.021079    0.210365    0.206506    11.00000    0.05211    0.05692 =
         0.03774   -0.00227    0.00364    0.01118
O10   5   -0.127571    0.208708    0.245318    11.00000    0.05258    0.05633 =
         0.03632   -0.00962    0.00480    0.00775
O11   5   -0.086708    0.274978    0.165443    11.00000    0.05307    0.06025 =
         0.03550   -0.00048    0.00389    0.00124
O12   5   -0.291544    0.291544    0.170310    10.50000    0.07016    0.07016 =
         0.05236    0.00254   -0.00254    0.00181
O13   5    0.262840    0.262840    0.105045    10.50000    0.06447    0.06447 =
         0.04444    0.00007    0.00007   -0.01133
O14   5   -0.033785    0.122637    0.231483    11.00000    0.05333    0.05882 =
         0.03945    0.00569    0.00874    0.00623
O15   5    0.127125    0.320675   -0.006815    11.00000    0.06600    0.09968 =
         0.05171   -0.01304   -0.00200   -0.00295
O16   5    0.080123    0.327455    0.051093    11.00000    0.06057    0.08973 =
         0.04792    0.00968    0.00210   -0.00458
O17   5    0.092264    0.301117    0.100318    11.00000    0.05974    0.08576 =
         0.04379    0.00591   -0.00714   -0.00222
O18   5    0.158209    0.417329    0.031069    11.00000    0.11121    0.04715 =
         0.06838   -0.00354    0.02054    0.00357
O19   5    0.204145    0.328668    0.070990    11.00000    0.06078    0.07109 =
         0.04465    0.00065    0.00004   -0.00381
O20   5    0.338506    0.338506    0.067898    10.50000    0.05158    0.05158 =
         0.05070   -0.00947   -0.00947   -0.00980
O21   5   -0.269580    0.188445    0.208322    11.00000    0.05690    0.05119 =
         0.03990   -0.00697    0.00940    0.01001
O22   5   -0.246369    0.246369    0.264275    10.50000    0.06927    0.06927 =
         0.04691   -0.01818    0.01818   -0.01234
O23   5    0.136641    0.136641    0.039278    10.50000    0.09822    0.09822 =
         0.10077   -0.00792   -0.00792   -0.02458
O24   5    0.147072    0.234970    0.032385    11.00000    0.10392    0.10776 =
         0.08505   -0.00542    0.00081   -0.00483
O25   5    0.149227    0.204051    0.081637    10.50000    0.08296    0.08653 =
         0.06645    0.00063   -0.00028   -0.01457
O26   5    0.215112    0.215112    0.043940    10.50000    0.10353    0.10353 =
         0.07896   -0.00824   -0.00824   -0.01573
O27   5    0.202220    0.202220   -0.006354    10.50000    0.10679    0.10679 =
         0.08647   -0.00419   -0.00419   -0.01307
C1    1    0.179603    0.179603    0.148701    10.50000    0.05529    0.05529 =
         0.04496    0.00469    0.00469   -0.00134
C2    1    0.090631    0.168013    0.183254    11.00000    0.05213    0.05089 =
         0.04389   -0.00066    0.00677    0.00831
AFIX  43
H2    2    0.076599    0.205812    0.176534    11.00000   -1.20000
AFIX   0
C3    1    0.056996    0.135006    0.204545    11.00000    0.06032    0.05326 =
         0.03927    0.00472    0.00441    0.00404
C4    1   -0.003777    0.156281    0.215317    11.00000    0.05465    0.05259 =
         0.03694   -0.00343    0.00368    0.00457
C5    1    0.059068    0.315022    0.077635    11.00000    0.05740    0.07775 =
         0.04408    0.00347   -0.00191   -0.00274
C6    1   -0.122712    0.275283    0.143648    11.00000    0.04602    0.05672 =
         0.03147   -0.00093    0.00097   -0.00005
C7    1    0.078309    0.078309    0.214103    10.50000    0.05173    0.05173 =
         0.03879    0.00296    0.00296    0.00730
AFIX   3
H7    2    0.054259    0.054260    0.226733    10.50000   -1.20000
AFIX   0
C8    1    0.144512    0.144512    0.172254    10.50000    0.05363    0.05363 =
         0.04429    0.00114    0.00114    0.00965
C9    1   -0.095272    0.288721    0.112900    11.00000    0.04710    0.06512 =
         0.03574    0.00207   -0.00046   -0.00194
C10   1   -0.005716    0.307865    0.080574    11.00000    0.05057    0.07582 =
         0.03732    0.00725    0.00051   -0.00444
C11   1   -0.044719    0.311324    0.055593    11.00000    0.04531    0.07253 =
         0.03754    0.00716   -0.00210   -0.00104
AFIX  43
H11   2   -0.028509    0.320030    0.036652    11.00000   -1.20000
AFIX   0
C12   1   -0.032978    0.294284    0.109710    11.00000    0.04833    0.06972 =
         0.03637    0.00356    0.00095   -0.00316
AFIX  43
H12   2   -0.007875    0.289267    0.126490    11.00000   -1.20000
AFIX   0
C13   1   -0.107963    0.301863    0.058651    11.00000    0.04733    0.07247 =
         0.03794    0.00168   -0.00390   -0.00622
C14   1   -0.134058    0.290754    0.087666    11.00000    0.04671    0.06672 =
         0.03334    0.00022   -0.00193   -0.00687
AFIX  43
H14   2   -0.175991    0.284967    0.089818    11.00000   -1.20000
AFIX   0
C15   1    0.150874    0.307734   -0.032868    11.00000    0.07004    0.08849 =
         0.05560   -0.01412   -0.00141   -0.00883

S3    6   -0.121879    0.407286    0.295226    10.25000    0.10021    0.10206 =
         0.09310    0.00686    0.02425    0.00674
O28   5   -0.142272    0.443436    0.321191    10.25000    0.07882    0.06803 =
         0.05469   -0.00730    0.02982    0.00322
O29   5   -0.104874    0.442442    0.268837    10.25000    0.09146    0.08124 =
         0.07153    0.02139    0.01683    0.00302
O30   5   -0.171360    0.362936    0.285939    10.25000    0.09305    0.08054 =
         0.06792   -0.00832    0.03570   -0.01978
O31   5   -0.073410    0.361868    0.303725    10.25000    0.06814    0.09818 =
         0.06677    0.00172    0.04279    0.01799
S4    6    0.500000    0.296394    0.000000    10.12500    0.07196    0.12093 =
         0.14988    0.00000    0.02485    0.00000
O32   5    0.462360    0.256580   -0.025462    10.25000    0.03276    0.07571 =
         0.09107   -0.00634    0.01946   -0.00445
O33   5    0.451801    0.330332    0.017248    10.25000    0.03445    0.09744 =
         0.09260    0.00635   -0.00920   -0.00595
HKLF 4 1 -1 0 0 0 -1 0 0 0 1




REM  mo_gongyr171027_0m_a.res in I-4 New:I-42m
REM R1 =  0.0647 for    7098 Fo > 4sig(Fo)  and  0.0957 for all    9693 data
REM    487 parameters refined using   1094 restraints

END

WGHT      0.1410      0.0000

REM Highest difference peak  0.761,  deepest hole -1.994,  1-sigma level  0.119
Q1    1   0.1990  0.1501  0.0517  11.00000  0.05    0.63
Q2    1   0.1418  0.1418  0.0185  10.50000  0.05    0.63
Q3    1   0.1725  0.1905  0.0458  11.00000  0.05    0.62
Q4    1   0.1343  0.1343  0.0536  10.50000  0.05    0.59
Q5    1   0.1395  0.3472 -0.0075  11.00000  0.05    0.55
Q6    1   0.1634  0.1819 -0.0213  11.00000  0.05    0.54
Q7    1  -0.2401  0.2401  0.2455  10.50000  0.05    0.51
Q8    1   0.1775  0.1775  0.0717  10.50000  0.05    0.49
Q9    1  -0.3039  0.3039  0.1496  10.50000  0.05    0.48
Q10   1  -0.3267  0.3267  0.1535  10.50000  0.05    0.46
;
_shelx_res_checksum              47287
_shelx_fab_file
;
    1    3    0   -240.20    -20.90
    3    3    0    415.09   -121.43
    2    4    0    139.26    -10.04
    0    4    0    -40.83     40.62
    4    4    0    134.79    -22.37
    3    5    0     22.15    -20.00
    1    5    0     39.59      3.73
    5    5    0    179.94     -1.16
    4    6    0     35.07      3.57
    2    6    0     60.57      9.49
    0    6    0    158.60     14.68
    6    6    0     64.38     -4.26
    5    7    0     57.19      2.64
    3    7    0     42.79      3.07
    1    7    0     87.56     -0.53
    7    7    0     31.72      0.15
    6    8    0     41.60     -2.37
    4    8    0     62.19     -5.17
    2    8    0     50.90     -2.76
    0    8    0    -21.87      4.62
    8    8    0      9.15      0.65
    7    9    0      2.10     -0.53
    5    9    0     31.83      1.12
    3    9    0     52.83      1.77
    1    9    0     11.99      0.03
    9    9    0     25.47     -0.01
    8   10    0     11.59     -2.23
    6   10    0     43.60     -4.96
    4   10    0      7.65     -2.32
    2   10    0     -3.03     -3.12
    0   10    0     18.14     -3.88
   10   10    0      9.31      0.03
    9   11    0      2.08      0.42
    7   11    0    -18.16     -1.35
    5   11    0     29.25      1.12
    3   11    0     -8.82      2.62
    1   11    0     20.91      1.62
   11   11    0     43.00     -0.16
   10   12    0     27.79     -0.18
    8   12    0     14.57     -0.96
    6   12    0     14.14     -2.71
    4   12    0     19.21     -0.51
    2   12    0      2.04     -0.50
    0   12    0     21.63     -1.00
   12   12    0     26.45     -0.34
   11   13    0     10.49     -0.10
    9   13    0     11.88     -0.20
    7   13    0      0.50     -2.64
    5   13    0    -13.34     -0.58
    3   13    0     37.54      2.63
    1   13    0     -0.90      2.09
   13   13    0     -2.35      1.19
   12   14    0      4.72      0.46
   10   14    0     14.72      0.09
    8   14    0     16.45      0.08
    6   14    0     -0.40     -1.29
    4   14    0     10.41      0.23
    2   14    0     28.44     -0.79
    0   14    0     25.10      1.28
   14   14    0     16.21      0.64
   13   15    0      8.45      1.02
   11   15    0    -10.51      1.92
    9   15    0      7.80     -0.04
    7   15    0     -3.21     -1.46
    5   15    0     -0.81     -0.34
    3   15    0     20.92      0.51
    1   15    0     14.90      0.05
   15   15    0      1.94     -0.42
   14   16    0     12.32     -0.78
   12   16    0     15.50     -0.11
   10   16    0     -2.70      0.92
    8   16    0     -0.59      0.13
    6   16    0     19.88     -1.00
    4   16    0     11.36     -1.00
    2   16    0     -8.01     -1.43
    0   16    0     17.72      0.07
   16   16    0      8.28      1.15
   15   17    0     16.12      0.26
   13   17    0     13.61      2.08
   11   17    0     -5.82      0.54
    9   17    0      7.70     -0.35
    7   17    0    -10.69      1.15
    5   17    0     -3.83     -0.79
    3   17    0      8.26     -4.22
    1   17    0     -5.24     -1.10
   17   17    0      2.71      0.22
   16   18    0      0.83     -0.26
   14   18    0      8.92     -0.05
   12   18    0      5.67      1.43
   10   18    0     13.97      0.26
    8   18    0     11.35     -1.20
    6   18    0      7.03      1.01
    4   18    0    -14.23      0.57
    2   18    0      2.55     -0.22
    0   18    0      7.85     -2.25
   18   18    0      1.02      0.66
   17   19    0    -11.43      0.57
   15   19    0      3.46      1.84
   13   19    0      5.32      4.92
   11   19    0      7.19      1.14
    9   19    0      3.67     -0.38
    7   19    0     -3.80      0.19
    5   19    0     13.44     -0.37
    3   19    0     -7.34     -0.47
    1   19    0     -5.87     -0.13
   16   20    0    -15.45     -0.72
   14   20    0     -0.11     -0.68
   12   20    0      6.13      0.97
   10   20    0     12.44      0.27
    8   20    0      9.47      0.10
    6   20    0     11.50     -0.21
    4   20    0     -4.02      1.37
    2   20    0    -13.30      0.97
    0   20    0     13.81     -2.17
   15   21    0     -9.49      0.66
   13   21    0      6.20      0.71
   11   21    0     -9.55      0.47
    9   21    0     -3.96      1.57
    7   21    0     -1.48     -0.67
    5   21    0      7.48     -1.23
    3   21    0     -2.93      0.31
    1   21    0      4.89     -1.90
   12   22    0     23.15     -1.03
   10   22    0      3.33     -0.30
    8   22    0      3.42      0.56
    6   22    0     -4.60     -0.64
    4   22    0      1.81     -1.00
    2   22    0      0.06      0.35
    0   22    0     -5.15      2.48
   11   23    0     20.81      0.04
    9   23    0     -4.33     -0.03
    7   23    0      5.11     -0.33
    5   23    0      0.32     -0.39
    3   23    0      5.51      1.64
    1   23    0    -14.39     -0.81
   10   24    0     -4.63      0.59
    8   24    0     -4.98      0.88
    6   24    0      3.72     -0.61
    4   24    0     -5.12     -0.18
    2   24    0     -9.25     -0.27
    0   24    0      7.37     -1.22
    7   25    0     10.04      2.69
    5   25    0      6.47      0.65
    3   25    0      5.53     -0.77
    1   25    0     -0.86      0.90
    0   26    0     12.18     -3.96
    2    3    1   -267.75    141.73
    3    4    1     63.44     -9.02
    1    4    1     49.04   -196.09
    4    5    1     14.76     -2.79
    2    5    1     31.56    -28.57
    0    5    1    -42.17    -22.11
    5    6    1      9.55      2.86
    3    6    1     84.83    -17.15
    1    6    1     65.68     14.92
    6    7    1     19.99     20.59
    4    7    1     -0.53    -22.78
    2    7    1     27.53     23.07
    0    7    1     70.72     -6.26
    7    8    1      4.16      0.96
    5    8    1     24.07     -3.48
    3    8    1     15.93     -0.52
    1    8    1     37.06     21.40
    8    9    1    -20.83    -17.80
    6    9    1      0.29      8.16
    4    9    1      4.80      8.89
    2    9    1      9.90    -29.81
    0    9    1      1.64     -9.10
    9   10    1      8.14     -8.64
    7   10    1     20.53      5.33
    5   10    1     11.46     29.51
    3   10    1     -0.20    -15.51
    1   10    1     22.50    -10.17
   10   11    1     16.73     -7.96
    8   11    1     -0.22      5.07
    6   11    1     -5.75      2.81
    4   11    1      9.37     12.12
    2   11    1     10.16     14.90
    0   11    1     17.54      0.15
   11   12    1     -3.74    -13.95
    9   12    1     20.65      1.12
    7   12    1     13.63     -3.59
    5   12    1     19.40      6.47
    3   12    1      5.52      5.36
    1   12    1      0.47     39.43
   12   13    1     10.98    -13.94
   10   13    1     16.39      0.10
    8   13    1    -15.01     -4.81
    6   13    1     -6.84     -2.77
    4   13    1     15.06     -1.45
    2   13    1     13.06      1.17
    0   13    1     22.89     -3.41
   13   14    1     -2.22      4.18
   11   14    1     19.47      0.69
    9   14    1      6.80      3.77
    7   14    1     14.96      6.27
    5   14    1     29.55     10.14
    3   14    1     -4.91     -0.42
    1   14    1      0.95      4.67
   14   15    1      7.52    -17.69
   12   15    1     10.63      2.12
   10   15    1      2.46     -3.98
    8   15    1      2.85     -2.20
    6   15    1     -6.94     -6.49
    4   15    1     -4.84     11.84
    2   15    1      5.66    -12.42
    0   15    1     10.31      0.36
   15   16    1     13.12     -1.27
   13   16    1      5.01     -8.29
   11   16    1     13.35      2.17
    9   16    1      2.65     -3.59
    7   16    1     17.20     -6.60
    5   16    1      1.09     -6.26
    3   16    1    -11.61      2.16
    1   16    1     12.24     -5.17
   16   17    1     12.22     -5.92
   14   17    1     11.64     -4.67
   12   17    1     -4.92     -5.71
   10   17    1      5.12     -0.57
    8   17    1     -2.16     -0.17
    6   17    1     -5.67    -14.26
    4   17    1      8.92      0.40
    2   17    1      4.72     -9.83
    0   17    1    -10.01      3.52
   17   18    1      8.79      1.32
   15   18    1      9.51     -1.75
   13   18    1      5.56     -1.48
   11   18    1     -0.58     -4.35
    9   18    1      5.59      3.01
    7   18    1      4.04      1.48
    5   18    1      0.89     -7.75
    3   18    1      1.63     -2.26
    1   18    1     -4.51     -9.79
   16   19    1     14.34      9.19
   14   19    1     15.46     -0.36
   12   19    1     -8.08     -9.15
   10   19    1     -7.20     -9.60
    8   19    1      6.89      2.82
    6   19    1     -6.33     -8.89
    4   19    1     11.81     -3.51
    2   19    1      9.24     -2.32
    0   19    1     -1.75      2.87
   15   20    1      3.19      1.39
   13   20    1      4.31      4.36
   11   20    1     -2.00     -4.07
    9   20    1      3.67     -4.43
    7   20    1      2.15      3.00
    5   20    1    -14.02    -15.04
    3   20    1      8.28      0.13
    1   20    1      4.68      0.64
   14   21    1     18.97      4.67
   12   21    1      9.58      0.31
   10   21    1      5.70      2.76
    8   21    1     -7.17     -2.61
    6   21    1     -4.24     -7.77
    4   21    1      3.41      5.06
    2   21    1      7.13      7.10
    0   21    1     -7.78     -1.92
   13   22    1      5.57      3.27
   11   22    1      1.19      2.10
    9   22    1      5.97      1.56
    7   22    1     -2.59     -0.93
    5   22    1      7.69     -1.43
    3   22    1      5.42      5.16
    1   22    1     -0.09      5.76
   12   23    1      0.30     -1.29
   10   23    1     -2.96     -5.80
    8   23    1      0.04     -6.67
    6   23    1     -7.60      2.41
    4   23    1      7.99      3.37
    2   23    1      7.13    -11.64
    0   23    1     12.09     -2.00
    9   24    1     22.84     -7.29
    7   24    1     27.97      5.45
    5   24    1      3.89     -2.69
    3   24    1      2.11      3.22
    1   24    1     26.95     -4.08
    6   25    1      0.86     -2.66
    4   25    1     -7.14     -3.67
    2   25    1     14.01     12.40
    0   25    1     22.60     -4.85
    1   26    1     12.07     18.52
    1    3    2   -149.95    169.35
    3    3    2   -141.13    -29.11
    2    4    2    -17.88     23.64
    0    4    2   -139.66    112.19
    4    4    2      7.38     16.74
    3    5    2     35.96    -58.74
    1    5    2    -43.45     19.91
    5    5    2     37.60    -74.65
    4    6    2     51.97     13.60
    2    6    2     97.35    -80.73
    0    6    2     38.50     25.93
    6    6    2    -12.48      2.85
    5    7    2     23.23     27.24
    3    7    2     -0.04     33.60
    1    7    2     23.27    -47.67
    7    7    2     35.10    -36.40
    6    8    2      9.25    -12.60
    4    8    2     14.70     21.75
    2    8    2    -15.01     -6.61
    0    8    2     37.18      3.65
    8    8    2    -14.93     22.57
    7    9    2    -11.58      5.62
    5    9    2      8.37      1.59
    3    9    2      9.67     18.93
    1    9    2     24.69     19.98
    9    9    2     -8.76     -7.46
    8   10    2     15.50     -3.71
    6   10    2      7.32    -11.15
    4   10    2      8.90      3.93
    2   10    2      4.72     41.10
    0   10    2      2.85      1.73
   10   10    2      8.12     18.62
    9   11    2      7.63      8.71
    7   11    2     12.48      4.16
    5   11    2     -2.52    -14.82
    3   11    2     18.28      9.00
    1   11    2     -8.60     -1.78
   11   11    2     28.48     -7.44
   10   12    2     19.36     -7.13
    8   12    2     17.45      7.82
    6   12    2      9.48     -6.87
    4   12    2      0.36      4.73
    2   12    2     20.87    -13.10
    0   12    2      7.23     -0.49
   12   12    2      8.05     15.41
   11   13    2     -5.45      9.21
    9   13    2     -1.13     -2.02
    7   13    2     -9.90      2.82
    5   13    2     10.51     11.52
    3   13    2     -3.29      8.18
    1   13    2     -0.96    -13.45
   13   13    2     -9.53    -14.84
   12   14    2     11.82     -0.56
   10   14    2      6.78     -0.60
    8   14    2      3.85     -7.62
    6   14    2     14.61     12.45
    4   14    2      7.23    -10.52
    2   14    2     19.17      0.05
    0   14    2     11.94      0.49
   14   14    2     -2.42     -4.39
   13   15    2      4.35     -2.83
   11   15    2     11.45      3.12
    9   15    2     -9.51      0.78
    7   15    2     -0.48      0.43
    5   15    2     -8.29      3.72
    3   15    2      3.31     -2.12
    1   15    2     11.06     -0.42
   15   15    2     -2.26    -11.07
   14   16    2      8.89      8.47
   12   16    2     14.67      2.53
   10   16    2      8.61     -2.72
    8   16    2     -3.19      6.61
    6   16    2     13.67     -7.14
    4   16    2     -4.84    -22.93
    2   16    2     10.58      6.96
    0   16    2      5.24      0.16
   16   16    2      2.72    -18.58
   15   17    2     17.36     -5.18
   13   17    2      3.29      0.84
   11   17    2      5.23     -9.51
    9   17    2      4.25      3.80
    7   17    2     -5.37      5.23
    5   17    2      4.61     -4.44
    3   17    2     11.05    -10.53
    1   17    2     -5.80      8.11
   17   17    2     -3.52      1.74
   16   18    2     -4.24     -3.46
   14   18    2      4.77     -9.20
   12   18    2     -5.49      1.02
   10   18    2     17.03      6.74
    8   18    2      9.07      0.93
    6   18    2      4.69     -0.26
    4   18    2      4.89     -7.39
    2   18    2      5.01     -4.83
    0   18    2     -5.29     -3.00
   18   18    2     -0.39     -5.07
   17   19    2     -1.39     -7.55
   15   19    2      6.53      2.17
   13   19    2     -0.85     -8.56
   11   19    2      3.23     10.10
    9   19    2      4.53     10.46
    7   19    2     -7.64     -3.71
    5   19    2      1.54      7.27
    3   19    2      6.79     -0.73
    1   19    2      8.87     -2.07
   16   20    2     -8.14     -6.40
   14   20    2     -2.34     -0.74
   12   20    2     10.59      4.59
   10   20    2      8.03      7.99
    8   20    2      6.44      1.78
    6   20    2      7.60      5.29
    4   20    2     -0.72      0.99
    2   20    2      4.32      3.30
    0   20    2      4.59     -3.43
   15   21    2      0.70      6.96
   13   21    2      5.81      7.15
   11   21    2      0.27      0.10
    9   21    2     -9.38     10.20
    7   21    2      0.76      4.53
    5   21    2      6.81     -1.74
    3   21    2      7.07     -4.98
    1   21    2      1.38     -1.11
   12   22    2      8.07      2.85
   10   22    2      6.10     -8.43
    8   22    2      6.30     14.26
    6   22    2     -2.08      1.31
    4   22    2     -0.30    -13.49
    2   22    2      2.89     -2.01
    0   22    2     -6.00      0.20
   11   23    2     -4.54      4.81
    9   23    2      7.80     -0.78
    7   23    2      3.41     -1.04
    5   23    2      2.57      3.91
    3   23    2      6.08     -0.70
    1   23    2     11.11     -1.80
   10   24    2    -17.84      7.22
    8   24    2      0.62     -4.34
    6   24    2      4.14     -2.21
    4   24    2     -1.59      0.93
    2   24    2      0.70      3.42
    0   24    2      2.73      0.49
    7   25    2     11.02     -1.69
    5   25    2      7.62      4.09
    3   25    2      1.73     -1.97
    1   25    2     13.35     -5.95
    2   26    2      3.18     -6.40
    0   26    2     13.60     -5.95
    2    3    3    118.32    241.01
    0    3    3   -166.16     13.54
    3    4    3    146.21   -186.13
    1    4    3    -11.49      2.14
    4    5    3     28.93     50.24
    2    5    3     30.53     41.62
    0    5    3    247.86      9.36
    5    6    3     36.24     41.08
    3    6    3    -18.90    -40.51
    1    6    3     56.96      3.46
    6    7    3     20.45    -13.40
    4    7    3    -19.49     -5.63
    2    7    3     44.43     -1.48
    0    7    3     77.44     -3.66
    7    8    3    -17.31      0.85
    5    8    3     12.56      0.87
    3    8    3     33.97      6.99
    1    8    3     -8.30     26.20
    8    9    3     11.41      9.76
    6    9    3     26.47     28.41
    4    9    3     10.56      7.95
    2    9    3     14.66    -18.96
    0    9    3    -31.89      2.62
    9   10    3     22.68      1.32
    7   10    3     -0.70      1.10
    5   10    3     26.49      8.41
    3   10    3     -4.38      9.32
    1   10    3     24.80    -38.88
   10   11    3      6.89    -13.90
    8   11    3     -9.36     -6.30
    6   11    3     26.01      9.39
    4   11    3     17.33     -0.57
    2   11    3     -0.23     -1.06
    0   11    3     31.20      0.51
   11   12    3     -1.00      5.71
    9   12    3      8.99      7.31
    7   12    3      9.94     14.23
    5   12    3     19.65      4.63
    3   12    3     13.59     17.87
    1   12    3      9.46     -1.55
   12   13    3     -0.98     -3.54
   10   13    3      6.90     22.18
    8   13    3     11.03      7.65
    6   13    3      8.21     11.23
    4   13    3     19.10      5.57
    2   13    3     26.04      8.91
    0   13    3      0.82     -1.77
   13   14    3     -0.07      8.38
   11   14    3     -1.97      5.58
    9   14    3      8.76     -1.03
    7   14    3     11.76      6.30
    5   14    3     -6.17      5.38
    3   14    3     19.34     10.56
    1   14    3     -2.55      6.39
   14   15    3      9.00     -5.15
   12   15    3     -1.69      6.67
   10   15    3      2.33     14.05
    8   15    3      2.94     -5.63
    6   15    3      5.80     11.40
    4   15    3      1.95     -2.31
    2   15    3     -6.40    -17.28
    0   15    3      3.13     -2.51
   15   16    3     -7.98    -10.39
   13   16    3      8.23     -1.03
   11   16    3      2.30      5.30
    9   16    3     11.61     15.46
    7   16    3      1.84      8.26
    5   16    3     10.61     -0.14
    3   16    3      4.07      0.20
    1   16    3      0.45     -1.50
   16   17    3     -8.35     -3.45
   14   17    3     -0.39     -6.51
   12   17    3      4.41      2.01
   10   17    3     -2.10      2.59
    8   17    3      1.43      4.71
    6   17    3     -3.93     -5.83
    4   17    3      3.98     -9.04
    2   17    3      2.96     -0.83
    0   17    3     16.15      1.16
   17   18    3     -0.21      9.57
   15   18    3     -0.68      6.46
   13   18    3      1.41      6.09
   11   18    3      4.71     -2.57
    9   18    3     11.67      3.53
    7   18    3      8.08      3.53
    5   18    3      6.76     -4.88
    3   18    3     -1.32     -4.44
    1   18    3     -1.68     -7.23
   16   19    3     10.95     12.02
   14   19    3      9.21     12.70
   12   19    3     -3.99    -13.17
   10   19    3      6.10    -10.27
    8   19    3     -6.75      3.52
    6   19    3      4.82      3.81
    4   19    3      3.51      2.47
    2   19    3     -0.16      3.32
    0   19    3     10.03      2.50
   15   20    3      1.14      8.46
   13   20    3      0.61     -1.13
   11   20    3     -5.45     -2.24
    9   20    3     16.50     15.98
    7   20    3      7.69      5.86
    5   20    3     12.96      0.24
    3   20    3     -3.91     -4.53
    1   20    3     -3.72     -0.61
   14   21    3      9.15      9.35
   12   21    3     -4.46     -7.96
   10   21    3     -6.40     -9.16
    8   21    3     -1.59     -2.38
    6   21    3    -10.87     -2.45
    4   21    3      2.55      8.71
    2   21    3      9.96      4.74
    0   21    3     26.62      0.21
   13   22    3      7.12      1.02
   11   22    3     -6.56      7.24
    9   22    3      5.60      6.65
    7   22    3     12.76      4.34
    5   22    3      5.09      0.65
    3   22    3      6.22     -2.06
    1   22    3     -2.82      0.36
   12   23    3      7.17     -3.84
   10   23    3     -8.35     -9.45
    8   23    3     -9.53     -9.45
    6   23    3     -4.97     12.71
    4   23    3     -2.71      3.67
    2   23    3      1.54     -7.77
    0   23    3      0.82     -1.35
    9   24    3      8.89     -0.52
    7   24    3     10.28     -0.90
    5   24    3      0.86      4.74
    3   24    3      4.72      0.08
    1   24    3      0.50      7.55
    6   25    3    -13.58    -11.06
    4   25    3      0.72     -5.23
    2   25    3     -6.86      5.61
    0   25    3     11.58      0.25
    1   26    3     -3.12     21.78
    1    1    4   -185.55    558.97
    2    2    4    -29.55    190.33
    1    3    4    -10.52     75.22
    3    3    4   -274.87     91.72
    2    4    4     91.50   -185.11
    0    4    4    205.79     15.45
    4    4    4    110.07    118.81
    3    5    4     -3.23    -19.31
    1    5    4     24.89   -119.83
    5    5    4      4.76    -41.52
    4    6    4     62.88    -17.51
    2    6    4     60.59    -27.18
    0    6    4    -20.32     14.39
    6    6    4     24.78     48.99
    5    7    4     19.30     24.46
    3    7    4      4.17     56.63
    1    7    4      2.96     11.18
    7    7    4     25.21     29.06
    6    8    4     -7.18    -14.11
    4    8    4     -4.04      1.86
    2    8    4      9.05     20.71
    0    8    4    -12.78      3.92
    8    8    4      6.78    -13.11
    7    9    4      4.58     -4.72
    5    9    4      2.32     19.94
    3    9    4     -5.70     -9.34
    1    9    4     16.05    -23.78
    9    9    4     -9.87    -16.57
    8   10    4     19.72      0.29
    6   10    4     -6.91    -14.14
    4   10    4      7.48     27.77
    2   10    4     13.90     -1.17
    0   10    4      2.84     -0.46
   10   10    4     44.33     -3.45
    9   11    4     16.70      3.99
    7   11    4      5.99      2.93
    5   11    4      7.09     -0.01
    3   11    4     21.30     -1.95
    1   11    4     29.26     24.96
   11   11    4    -27.05     -6.61
   10   12    4      4.27    -21.75
    8   12    4     15.32     -9.78
    6   12    4      4.23     -3.95
    4   12    4     21.54     -2.56
    2   12    4     10.79     37.45
    0   12    4     15.11      2.21
   12   12    4     -2.35     -5.03
   11   13    4    -18.84     -6.34
    9   13    4    -15.69     -3.73
    7   13    4     -0.74     -7.41
    5   13    4     14.98     -1.68
    3   13    4    -11.43    -21.82
    1   13    4     -1.57     11.87
   13   13    4      2.56     -2.17
   12   14    4      9.67      5.05
   10   14    4      1.37     -4.05
    8   14    4     18.78     19.46
    6   14    4     11.59      8.31
    4   14    4     10.75      8.19
    2   14    4    -14.56    -13.31
    0   14    4     12.43      2.25
   14   14    4     10.89    -10.44
   13   15    4      6.77     -7.68
   11   15    4     -1.23     -0.72
    9   15    4    -10.06     -2.79
    7   15    4      2.79    -11.16
    5   15    4      5.78     11.63
    3   15    4    -14.14      5.90
    1   15    4     -3.69     -6.53
   15   15    4      4.86     -2.80
   14   16    4      1.93      8.38
   12   16    4     -2.62      6.19
   10   16    4     13.26     -2.71
    8   16    4     11.84      5.23
    6   16    4      5.90    -10.33
    4   16    4     13.17      7.10
    2   16    4      3.09      1.06
    0   16    4      8.74     -0.83
   16   16    4     -7.31     -6.43
   15   17    4     -4.56      3.87
   13   17    4      1.84      4.52
   11   17    4      6.52    -10.77
    9   17    4     -4.30     -9.32
    7   17    4     -3.99      6.89
    5   17    4      9.66      0.86
    3   17    4     -6.53     -7.34
    1   17    4      4.55     -1.89
   17   17    4     -2.70     10.09
   16   18    4     -4.31     -2.59
   14   18    4     -1.05     -2.31
   12   18    4     -4.34     -1.27
   10   18    4      3.44      8.03
    8   18    4      6.85      5.12
    6   18    4      7.15     -3.48
    4   18    4     24.10      6.51
    2   18    4      5.95     -7.26
    0   18    4     -1.32     -0.22
   18   18    4      7.25      2.11
   17   19    4     20.59      9.94
   15   19    4     11.98      1.39
   13   19    4      2.70      0.50
   11   19    4     -7.83     -8.43
    9   19    4     -1.61    -13.13
    7   19    4      1.14      1.33
    5   19    4      0.60     -2.48
    3   19    4     21.15      6.41
    1   19    4      3.62     -5.66
   16   20    4     -0.78     -0.62
   14   20    4      9.07      0.12
   12   20    4     -5.77      7.17
   10   20    4     -0.80      3.24
    8   20    4     10.76     -2.31
    6   20    4     -6.97    -10.74
    4   20    4      7.66     -6.56
    2   20    4     14.54     -7.92
    0   20    4     -6.78     -1.08
   15   21    4     16.38      0.94
   13   21    4      4.20      1.61
   11   21    4      4.37      3.07
    9   21    4      0.60     -1.20
    7   21    4     -3.70     -0.30
    5   21    4     -8.29    -11.53
    3   21    4      8.03      3.78
    1   21    4      6.48      4.49
   12   22    4     -2.95     -5.37
   10   22    4     -1.17     13.01
    8   22    4     -0.56      5.11
    6   22    4      0.89     -9.36
    4   22    4      6.68     -6.66
    2   22    4     -0.27      0.08
    0   22    4      3.98     -0.53
   11   23    4     -4.44     -9.61
    9   23    4      5.53    -10.16
    7   23    4      2.65     -3.58
    5   23    4      1.22      1.86
    3   23    4     -1.95      4.24
    1   23    4      8.75     -7.37
    8   24    4     13.22      6.36
    6   24    4      7.26     -7.68
    4   24    4      1.97     -4.38
    2   24    4      8.58     -4.18
    0   24    4      0.23     -3.74
    7   25    4     16.64     14.95
    5   25    4      1.03     -4.20
    3   25    4     -0.59      4.75
    1   25    4     14.18      2.99
    1    2    5   -114.08   -143.45
    2    3    5     19.93    135.09
    0    3    5    116.80     32.01
    3    4    5   -113.98    -79.39
    1    4    5   -175.01     31.26
    4    5    5    -18.21    -29.81
    2    5    5     56.24     30.32
    0    5    5     -0.74     15.03
    5    6    5    -11.31    -15.89
    3    6    5      1.64     -8.66
    1    6    5    -10.01    -41.99
    6    7    5     11.12    -36.39
    4    7    5     -6.82     24.19
    2    7    5    -31.90    -27.15
    0    7    5     18.10     -1.36
    7    8    5      1.91      4.60
    5    8    5      0.58      5.23
    3    8    5    -16.74      3.40
    1    8    5    -32.88     14.18
    8    9    5     -2.71     14.24
    6    9    5     -8.73      2.15
    4    9    5    -17.03     -5.00
    2    9    5    -38.24    -28.71
    0    9    5     18.47      1.11
    9   10    5     -1.54     -1.06
    7   10    5     -1.45      3.15
    5   10    5     -2.60    -11.73
    3   10    5     22.94      0.06
    1   10    5    -34.69      9.31
   10   11    5      2.49     -7.65
    8   11    5      5.85      1.21
    6   11    5      8.10     -2.03
    4   11    5      8.88     -0.74
    2   11    5      2.51     -4.13
    0   11    5    -21.10     -1.38
   11   12    5     11.64     -2.99
    9   12    5     -4.75      2.13
    7   12    5     17.90     -4.63
    5   12    5    -13.01      0.87
    3   12    5      7.66    -14.92
    1   12    5     12.90     -7.18
   12   13    5    -17.53     -9.32
   10   13    5    -26.73     14.25
    8   13    5     -0.58     -7.47
    6   13    5     -1.24      5.74
    4   13    5    -24.40     16.00
    2   13    5      2.35    -17.27
    0   13    5      9.20      0.28
   13   14    5      3.30     -0.72
   11   14    5    -13.01     11.10
    9   14    5      1.06     -4.33
    7   14    5      2.95      7.38
    5   14    5    -10.45     13.07
    3   14    5      1.08      0.56
    1   14    5     12.44     -2.00
   14   15    5     -5.54     -0.55
   12   15    5      9.18      2.23
   10   15    5     -5.49      6.52
    8   15    5     -6.74      5.79
    6   15    5      9.37      5.76
    4   15    5    -11.09     -6.82
    2   15    5      8.89     -5.49
    0   15    5      6.77     -2.31
   15   16    5     -0.27     -4.40
   13   16    5     -0.30      0.92
   11   16    5      6.28    -13.45
    9   16    5      4.27      8.82
    7   16    5     -3.79     -7.14
    5   16    5      0.37    -14.89
    3   16    5      5.01      8.27
    1   16    5     -6.63     11.74
   16   17    5    -11.99     -1.21
   14   17    5      6.37      2.68
   12   17    5     11.05     -5.90
   10   17    5      7.73    -12.84
    8   17    5     -2.50     -0.19
    6   17    5     10.60     -4.40
    4   17    5     -2.50     -1.29
    2   17    5     10.00     13.10
    0   17    5      6.78     -1.09
   17   18    5     -7.81      2.66
   15   18    5     -2.05     -1.75
   13   18    5     -0.36     -2.18
   11   18    5      4.35     -3.74
    9   18    5     16.71      5.39
    7   18    5      4.85     -0.46
    5   18    5     10.00      5.89
    3   18    5      8.46      2.13
    1   18    5     -6.46      0.15
   16   19    5     -5.97      5.19
   14   19    5      6.71     -5.36
   12   19    5      3.96     -0.70
   10   19    5     10.84    -14.39
    8   19    5     -5.51     -9.34
    6   19    5     -0.48      9.30
    4   19    5      1.36     -0.19
    2   19    5     17.42      4.32
    0   19    5     15.21     -0.44
   15   20    5      5.38    -18.10
   13   20    5      5.57     -5.29
   11   20    5      1.31      3.50
    9   20    5      5.43      8.68
    7   20    5      8.85     -2.46
    5   20    5     22.92      8.25
    3   20    5      5.25     -5.73
    1   20    5     -9.30      0.46
   14   21    5     -0.80     -6.34
   12   21    5      5.96     -2.05
   10   21    5     -1.18    -16.60
    8   21    5     -4.48     -7.62
    6   21    5     -1.56      1.46
    4   21    5     -2.27      4.60
    2   21    5      3.87      2.59
    0   21    5     -4.87      0.26
   13   22    5      5.50      3.95
   11   22    5      3.38     -4.34
    9   22    5      7.67     -1.51
    7   22    5     17.95      6.30
    5   22    5      0.72     -7.92
    3   22    5     -3.76     -6.54
    1   22    5    -12.02     -5.76
   12   23    5     -2.35     -7.84
   10   23    5     -5.74    -16.04
    8   23    5      6.98     -4.38
    6   23    5     -6.19     12.19
    4   23    5     -5.16     -1.71
    2   23    5     -3.25     -1.49
    0   23    5     -2.90     -0.56
    9   24    5     -3.18      1.54
    7   24    5     -4.59      2.65
    5   24    5      6.54      5.41
    3   24    5     11.25     -2.06
    1   24    5    -15.66      6.27
    6   25    5     -5.64     -0.75
    4   25    5      5.10      4.55
    2   25    5     -0.08      4.02
    0   25    5     -8.27      0.02
    1    1    6     53.53     68.44
    0    2    6     60.61     -4.93
    2    2    6    112.73     40.24
    1    3    6    -96.40    121.29
    3    3    6    -25.38    -69.45
    2    4    6     72.69    -18.19
    0    4    6    184.70     -3.95
    4    4    6    115.66    -38.82
    3    5    6    -17.76    -27.35
    1    5    6     41.49     64.63
    5    5    6     -2.77     74.04
    4    6    6     20.49     29.08
    2    6    6     -7.56     -5.48
    0    6    6     88.31     33.88
    6    6    6     70.49     -7.52
    5    7    6     -0.65     19.01
    3    7    6    -22.24     11.28
    1    7    6     18.44     11.61
    7    7    6    -30.29      7.56
    6    8    6     -7.84    -14.79
    4    8    6    -26.61     -8.09
    2    8    6      4.84     18.44
    0    8    6    -41.85     10.46
    8    8    6     -8.26     17.57
    7    9    6      4.99     32.99
    5    9    6      7.56     23.68
    3    9    6    -13.64     15.08
    1    9    6     12.10    -14.16
    9    9    6     -1.46     23.52
    8   10    6     -3.25     -3.00
    6   10    6      3.76     14.12
    4   10    6     -2.55     -8.17
    2   10    6      7.50     -2.19
    0   10    6    -11.34      2.99
   10   10    6     35.24    -12.34
    9   11    6      2.95     -7.51
    7   11    6    -12.12     -4.57
    5   11    6     -0.51     -1.64
    3   11    6    -19.88     -7.13
    1   11    6     28.00    -30.24
   11   11    6    -35.33     -3.75
   10   12    6     -0.72     -0.45
    8   12    6     -3.27      2.45
    6   12    6      4.05      4.59
    4   12    6     -9.22     -1.64
    2   12    6      5.47      5.93
    0   12    6      0.74     -1.10
   12   12    6      3.70     14.39
   11   13    6     -4.15      3.45
    9   13    6    -11.99     14.11
    7   13    6      5.68     16.71
    5   13    6     -5.57     -4.62
    3   13    6     10.59     13.51
    1   13    6     14.45     -4.33
   13   13    6      0.23      9.46
   12   14    6     -8.04      0.59
   10   14    6     10.84      6.62
    8   14    6      8.70     -1.42
    6   14    6      5.31     14.27
    4   14    6     -0.81     -9.31
    2   14    6     -1.16      8.54
    0   14    6     -9.70     -3.73
   14   14    6     10.57      7.59
   13   15    6      3.82      8.36
   11   15    6     -6.83     -4.44
    9   15    6     -3.02      2.11
    7   15    6     -2.43      2.14
    5   15    6      0.71     12.96
    3   15    6    -16.31     -0.23
    1   15    6    -25.11     -4.65
   15   15    6     12.28      4.51
   14   16    6      3.20      7.91
   12   16    6    -12.71     10.47
   10   16    6      8.21      4.79
    8   16    6     18.14      6.16
    6   16    6      2.34      4.46
    4   16    6      6.27     16.24
    2   16    6      2.43      4.79
    0   16    6      1.74     -0.40
   16   16    6    -14.07    -15.70
   15   17    6    -13.31      6.66
   13   17    6      1.91     11.83
   11   17    6     -4.40      1.21
    9   17    6     -6.25     -4.73
    7   17    6     10.48      8.41
    5   17    6     -3.70      4.25
    3   17    6    -12.34      5.29
    1   17    6     -2.87     -1.34
   17   17    6     -2.22      7.42
   16   18    6      9.32      0.79
   14   18    6      2.65     10.48
   12   18    6     -7.20      4.79
   10   18    6     -2.05      1.21
    8   18    6      5.50     -1.29
    6   18    6      6.31     -5.94
    4   18    6      7.61      3.46
    2   18    6     -7.23     -2.97
    0   18    6      6.81      5.56
   18   18    6      2.34     13.89
   17   19    6     18.58      8.86
   15   19    6     22.21      3.06
   13   19    6      7.39     -4.55
   11   19    6     -1.78      7.28
    9   19    6     -0.03     -1.04
    7   19    6     -0.62      8.27
    5   19    6     -5.99     13.29
    3   19    6     -3.17     -0.56
    1   19    6     -4.28      0.63
   16   20    6     10.20     -2.48
   14   20    6     16.96     -4.42
   12   20    6     -0.58      1.96
   10   20    6     -1.35      5.72
    8   20    6     -3.30     -2.48
    6   20    6     -7.32     -3.77
    4   20    6      7.26     -3.10
    2   20    6      1.10     -1.58
    0   20    6      3.20      5.99
   15   21    6      8.45     -7.52
   13   21    6      9.72    -10.56
   11   21    6     -8.14     -1.91
    9   21    6      7.30     -1.28
    7   21    6    -11.63     -1.30
    5   21    6     -8.91      8.13
    3   21    6      4.00      6.17
    1   21    6      3.52      6.51
   12   22    6     -2.84      0.63
   10   22    6    -10.50      7.00
    8   22    6     -4.27      5.22
    6   22    6     -1.73      2.04
    4   22    6      2.60      0.71
    2   22    6     -0.34     -7.70
    0   22    6     -4.98      0.44
   11   23    6      0.47      1.40
    9   23    6      3.74      0.97
    7   23    6      3.91    -13.43
    5   23    6     -4.88     10.01
    3   23    6     -4.24      2.01
    1   23    6    -11.17      0.17
    8   24    6      4.96     -1.41
    6   24    6     -0.78     -4.07
    4   24    6     15.50     -3.43
    2   24    6     10.15     -3.51
    0   24    6      2.84     -0.52
    5   25    6     -8.47    -12.80
    3   25    6      4.93     -8.20
    1   25    6     -2.66      0.37
    0    1    7     50.95      8.87
    1    2    7     -9.74    302.53
    2    3    7     -7.84     43.99
    0    3    7    236.02     14.49
    3    4    7   -141.02     80.41
    1    4    7     76.90   -135.79
    4    5    7     68.46     25.88
    2    5    7     -6.36    -25.25
    0    5    7    -57.16      4.07
    5    6    7     45.20      2.21
    3    6    7      7.44     31.88
    1    6    7    -57.29      8.93
    6    7    7      6.34     -5.23
    4    7    7     26.25     -3.52
    2    7    7     11.54     48.42
    0    7    7    -58.42      9.87
    7    8    7      2.72      1.77
    5    8    7      3.68    -14.20
    3    8    7    -13.29     20.66
    1    8    7     -4.61     -1.17
    8    9    7    -13.46     12.96
    6    9    7     -4.95     -4.72
    4    9    7    -16.24      6.36
    2    9    7     -7.76    -24.37
    0    9    7     26.28     -7.50
    9   10    7      5.64      4.17
    7   10    7      1.34     -0.17
    5   10    7      3.54     -9.55
    3   10    7      3.60      3.84
    1   10    7    -25.95     -5.73
   10   11    7    -15.10      1.15
    8   11    7      6.81     -0.60
    6   11    7    -20.63     13.40
    4   11    7    -13.67     12.85
    2   11    7      9.35     12.03
    0   11    7    -19.18     -4.47
   11   12    7     -8.09      8.90
    9   12    7      2.63    -20.08
    7   12    7    -10.80      3.04
    5   12    7     -1.58      5.85
    3   12    7     -3.20    -11.09
    1   12    7      0.82     23.69
   12   13    7     -6.60      6.55
   10   13    7    -13.77     -7.61
    8   13    7     -5.80     -0.97
    6   13    7    -10.01      5.84
    4   13    7    -12.48      0.03
    2   13    7    -15.46     -5.12
    0   13    7     12.40     -0.09
   13   14    7     15.15     -0.76
   11   14    7    -14.44      6.95
    9   14    7     -5.38      4.82
    7   14    7      1.05     -7.20
    5   14    7     -1.86     13.54
    3   14    7    -17.93      3.18
    1   14    7     20.24     -7.62
   14   15    7     14.72     -1.72
   12   15    7      3.51     -6.64
   10   15    7    -10.11     -1.05
    8   15    7     -4.94      6.28
    6   15    7     -1.56    -10.54
    4   15    7     -0.31     18.81
    2   15    7     -8.72      4.10
    0   15    7     14.54     -0.68
   15   16    7      4.68     -0.65
   13   16    7      4.97      1.53
   11   16    7     -6.87      4.35
    9   16    7      2.39      0.69
    7   16    7    -10.22     -7.31
    5   16    7      6.54     -5.92
    3   16    7      1.80      3.49
    1   16    7     -3.73      4.62
   16   17    7     -5.14     10.25
   14   17    7      1.90     -6.64
   12   17    7      2.03     -2.10
   10   17    7      0.77      3.55
    8   17    7      1.15     -2.18
    6   17    7      0.66      7.54
    4   17    7     -2.38     -3.59
    2   17    7     -5.67      2.10
    0   17    7      7.42     -3.64
   17   18    7     -1.12     -1.07
   15   18    7      1.71     -8.35
   13   18    7     -6.76      3.87
   11   18    7      1.42     -3.50
    9   18    7      6.81      6.71
    7   18    7      1.09     -6.20
    5   18    7     11.08     -0.25
    3   18    7      0.01      4.39
    1   18    7     -4.33      5.51
   16   19    7     -8.35     -0.22
   14   19    7      2.41     -3.33
   12   19    7      8.02     -0.69
   10   19    7      3.84     -4.00
    8   19    7      7.95     -2.83
    6   19    7      0.48     -1.63
    4   19    7      6.25      5.97
    2   19    7     10.56      1.48
    0   19    7     -5.34     -3.91
   15   20    7     -3.10    -13.23
   13   20    7     -1.21     -1.86
   11   20    7      2.23      1.77
    9   20    7     -1.15      1.19
    7   20    7      2.67      4.70
    5   20    7      5.14      0.14
    3   20    7      4.78      1.22
    1   20    7     -7.57     -6.69
   14   21    7     -9.16     -6.16
   12   21    7      2.51      3.50
   10   21    7      2.62     12.70
    8   21    7     -3.17     -4.20
    6   21    7     -2.79     -1.57
    4   21    7     -1.31     -1.15
    2   21    7     -6.41     -0.42
    0   21    7    -19.52     -1.30
   13   22    7     -6.97      1.41
   11   22    7     13.01      4.78
    9   22    7      0.31     -4.25
    7   22    7      4.49     -0.76
    5   22    7      3.12      4.36
    3   22    7     -0.93      6.69
    1   22    7    -11.77      2.69
   10   23    7     -1.20     -2.37
    8   23    7      0.96      5.38
    6   23    7      2.34     -6.81
    4   23    7     -2.23     -0.33
    2   23    7     -7.90      7.46
    0   23    7    -14.39      0.79
    9   24    7     -2.05     -3.93
    7   24    7     -5.21     10.18
    5   24    7     -0.97     -6.95
    3   24    7      0.67      4.79
    1   24    7     -7.28     -5.72
    6   25    7      7.10     -0.39
    4   25    7      0.69     -1.54
    2   25    7     10.22      3.05
    0   25    7      5.83     -3.68
    0    0    8   -122.32     15.93
    1    1    8    -79.83   -255.69
    0    2    8    168.33      1.08
    2    2    8    -23.85    -53.78
    1    3    8   -132.07     22.33
    3    3    8    -91.91     73.20
    2    4    8    -48.79     93.43
    0    4    8    -59.49     11.02
    4    4    8    -79.81    -92.00
    3    5    8      3.98     25.54
    1    5    8    -62.90     49.48
    5    5    8   -133.24    -18.08
    4    6    8    -61.59    -31.33
    2    6    8    -26.27    -10.61
    0    6    8     37.83     11.65
    6    6    8      3.98    -74.42
    5    7    8    -26.77     17.02
    3    7    8    -15.10     34.02
    1    7    8     -3.16      9.46
    7    7    8    -13.02     37.50
    6    8    8      1.93    -20.15
    4    8    8    -20.34    -12.62
    2    8    8     -1.76     -0.87
    0    8    8     41.49      6.25
    8    8    8     -7.10      5.49
    7    9    8     -9.05     15.58
    5    9    8    -34.78     12.87
    3    9    8    -30.91     10.44
    1    9    8    -27.42     20.82
    9    9    8     -4.68     15.69
    8   10    8     -8.06      7.54
    6   10    8      5.59     -6.39
    4   10    8      2.78    -13.97
    2   10    8    -28.47     -5.21
    0   10    8    -30.82      4.30
   10   10    8     -3.07    -16.52
    9   11    8    -12.95     -4.40
    7   11    8     21.92      4.64
    5   11    8     -3.86     16.40
    3   11    8      3.84     -7.56
    1   11    8    -27.87     -0.46
   11   11    8     20.70     -7.89
   10   12    8      4.05      7.25
    8   12    8     -1.06    -12.73
    6   12    8     12.02     -9.84
    4   12    8      0.67     -0.85
    2   12    8     -1.46    -28.11
    0   12    8     16.30     -2.12
   12   12    8     12.01     -8.66
   11   13    8     -0.28    -13.02
    9   13    8     -7.05     -1.63
    7   13    8    -10.66      5.43
    5   13    8    -23.99     20.28
    3   13    8     -9.72     -1.94
    1   13    8      5.66     -9.70
   13   13    8     -8.20     -4.98
   12   14    8      0.13      3.42
   10   14    8      3.27      4.77
    8   14    8      1.77     -0.85
    6   14    8      5.60      9.48
    4   14    8      9.51     11.59
    2   14    8     11.69     -3.09
    0   14    8     12.66     -2.27
   14   14    8     -1.78      2.24
   13   15    8     -5.00      3.39
   11   15    8     -4.97    -13.04
    9   15    8     -3.59      8.51
    7   15    8     -8.65      4.26
    5   15    8      7.49     -1.43
    3   15    8      9.65     -0.27
    1   15    8     -8.42      7.27
   15   15    8      9.85     -0.54
   14   16    8     -0.49     -2.04
   12   16    8     -3.14     -8.56
   10   16    8     -1.02     -8.89
    8   16    8     11.02     -4.62
    6   16    8     -2.25    -11.83
    4   16    8      3.63      6.36
    2   16    8      9.27      5.50
    0   16    8     -1.35      1.66
   16   16    8     -6.68    -12.26
   15   17    8     -4.93     -0.26
   13   17    8     13.67     -1.35
   11   17    8      1.74     -2.35
    9   17    8      2.13      3.11
    7   17    8      5.46    -11.03
    5   17    8    -10.58    -14.71
    3   17    8     -6.86     -2.64
    1   17    8    -10.47     -3.68
   17   17    8      1.47    -11.84
   16   18    8     -1.94     -7.77
   14   18    8      8.55      9.76
   12   18    8     -0.26      5.91
   10   18    8      1.88     -4.32
    8   18    8      2.56     -1.42
    6   18    8      2.51      1.45
    4   18    8     -7.03     -6.79
    2   18    8      4.15      7.85
    0   18    8      3.99      4.06
   18   18    8     -3.78      4.11
   17   19    8      1.43      1.17
   15   19    8     10.77    -17.47
   13   19    8      8.71     -3.51
   11   19    8    -13.82      9.34
    9   19    8     -1.39     -2.99
    7   19    8     -1.97      1.14
    5   19    8     -5.30     -2.78
    3   19    8     -2.03     -7.86
    1   19    8     -1.34      2.27
   16   20    8      2.66    -17.56
   14   20    8     11.26     -5.64
   12   20    8     -5.21      2.52
   10   20    8      3.97      4.32
    8   20    8     -0.54     -4.58
    6   20    8      6.36      3.49
    4   20    8      7.63      5.29
    2   20    8      5.41     -1.25
    0   20    8     -0.40      2.56
   13   21    8      0.38     -8.02
   11   21    8     -2.81      3.09
    9   21    8     -0.13      4.33
    7   21    8      1.34      0.33
    5   21    8     -0.39      5.00
    3   21    8      1.19      9.64
    1   21    8     -5.71     -0.77
   12   22    8     -4.13      6.88
   10   22    8     -3.35     -5.22
    8   22    8     11.85      2.42
    6   22    8      2.82      7.28
    4   22    8     -4.16      7.08
    2   22    8     -2.97     -4.26
    0   22    8     -0.20     -2.09
   11   23    8     -6.73      4.66
    9   23    8      1.51    -11.11
    7   23    8      2.64      1.64
    5   23    8     -3.03     -0.50
    3   23    8     -0.50     -1.87
    1   23    8     -7.87      8.19
    8   24    8      8.29     -9.48
    6   24    8    -13.38      7.80
    4   24    8     16.03      4.63
    2   24    8     13.60     -3.30
    0   24    8      1.03      2.00
    5   25    8     -2.10     -9.03
    3   25    8      6.25      1.45
    1   25    8     -9.22      2.45
    0    1    9     12.22     17.57
    1    2    9    -31.63    112.95
    2    3    9     10.55    -19.19
    0    3    9    -48.25     -1.47
    3    4    9    -63.25    -16.19
    1    4    9     11.63     62.87
    4    5    9     58.34     18.39
    2    5    9    -39.11    -28.90
    0    5    9    -30.14     45.19
    5    6    9     40.94     10.40
    3    6    9    -29.78    -31.51
    1    6    9     18.57     -6.45
    6    7    9    -26.77    -24.59
    4    7    9     16.56      9.44
    2    7    9     30.71      0.04
    0    7    9      1.15     11.41
    7    8    9    -10.55      1.65
    5    8    9    -20.03    -22.05
    3    8    9    -51.79     -9.57
    1    8    9     -0.42     -3.94
    8    9    9    -16.62     16.33
    6    9    9    -11.60     22.78
    4    9    9     10.43      7.22
    2    9    9     19.51     33.61
    0    9    9     18.24      0.17
    9   10    9     -5.75      2.20
    7   10    9     -4.11      0.38
    5   10    9      0.34    -13.42
    3   10    9     -7.88    -11.32
    1   10    9     -3.46      9.06
   10   11    9      8.73      5.59
    8   11    9      1.34     -1.38
    6   11    9     -9.73     12.48
    4   11    9    -14.16     -4.26
    2   11    9      8.48     -3.06
    0   11    9    -11.76     -1.42
   11   12    9      2.23     -2.48
    9   12    9     -6.15     -1.88
    7   12    9     -1.00     -4.63
    5   12    9      0.82     -7.48
    3   12    9    -19.75      8.66
    1   12    9     -9.93     -3.74
   12   13    9      1.24     22.72
   10   13    9     -3.21      2.19
    8   13    9     -2.05     15.67
    6   13    9     -2.34      3.26
    4   13    9      6.03     -7.78
    2   13    9     -2.09     23.58
    0   13    9    -12.83     -0.73
   13   14    9      4.85     -1.98
   11   14    9    -11.15      0.30
    9   14    9    -10.36     -6.19
    7   14    9     -5.00     -8.35
    5   14    9      7.57      2.87
    3   14    9      9.90     11.33
    1   14    9     -6.49     10.25
   14   15    9     13.68     -3.24
   12   15    9     -5.89     -3.78
   10   15    9     12.28      4.38
    8   15    9     -8.52     -0.28
    6   15    9     -6.46     -4.35
    4   15    9      7.23     -0.34
    2   15    9     -7.36     10.34
    0   15    9    -20.38      0.01
   15   16    9      5.45     -7.87
   13   16    9      2.67      3.77
   11   16    9     -4.29     11.24
    9   16    9     -6.71     -0.32
    7   16    9      3.92     -0.58
    5   16    9      0.03      3.39
    3   16    9      2.68     -6.50
    1   16    9     -0.28     -2.52
   16   17    9     -4.80     -4.55
   14   17    9      4.16      3.61
   12   17    9    -12.55      6.93
   10   17    9     -5.33      1.35
    8   17    9     -5.15      8.46
    6   17    9     -3.37      1.22
    4   17    9     -7.40     10.11
    2   17    9    -11.02     -2.28
    0   17    9     -1.95     -3.16
   17   18    9      9.37     -6.29
   15   18    9      4.70     -1.40
   13   18    9     -3.85      4.39
   11   18    9     -5.42      3.41
    9   18    9      2.74      2.70
    7   18    9      5.33      2.31
    5   18    9    -13.48     -2.02
    3   18    9     -8.18    -13.58
    1   18    9     -8.27     -1.27
   16   19    9      7.81      2.93
   14   19    9      5.43     -3.52
   12   19    9     -0.97      9.35
   10   19    9     -2.95      8.62
    8   19    9      4.45      2.26
    6   19    9     -5.69     -0.98
    4   19    9     -2.80      3.23
    2   19    9     -9.01      0.96
    0   19    9    -12.70     -2.10
   15   20    9     12.09      3.98
   13   20    9     -1.11     -0.61
   11   20    9      2.48     10.35
    9   20    9      5.89      1.63
    7   20    9      4.48     -5.59
    5   20    9     -2.94     -0.70
    3   20    9     -4.50      1.85
    1   20    9     -2.73      9.93
   14   21    9      6.31     -4.72
   12   21    9     -7.00     -2.62
   10   21    9     -1.79      2.77
    8   21    9      4.03     -4.53
    6   21    9      1.10      6.37
    4   21    9     10.27     -6.65
    2   21    9     -4.85      9.11
    0   21    9     -2.20      1.35
   13   22    9     -8.47     21.05
   11   22    9     -2.45      4.56
    9   22    9     12.43     -0.59
    7   22    9     -0.32     -6.71
    5   22    9     -0.04     12.30
    3   22    9      1.44      0.41
    1   22    9      7.67     -2.45
   10   23    9      5.87      2.74
    8   23    9     -2.33     -3.81
    6   23    9      2.89    -12.70
    4   23    9     -0.59     -5.67
    2   23    9      1.63      1.08
    0   23    9     -6.33      2.56
    9   24    9      5.88     -2.98
    7   24    9      1.08     -7.71
    5   24    9     -1.23      0.22
    3   24    9     -0.24     -3.94
    1   24    9      4.25     -3.41
    4   25    9      3.89    -10.47
    2   25    9      4.60     -7.29
    0   25    9      0.69     -0.03
    0    0   10   -100.42     43.37
    1    1   10   -161.49     63.47
    0    2   10      1.76     36.30
    2    2   10     -0.09    188.70
    1    3   10    -19.51     15.10
    3    3   10   -113.83    123.67
    2    4   10    -61.11     -0.22
    0    4   10    113.89     -1.26
    4    4   10    -79.94    -57.25
    3    5   10    -28.15     52.93
    1    5   10    -34.15     -4.58
    5    5   10     20.91     61.30
    4    6   10      1.30    -12.57
    2    6   10    -30.61      7.58
    0    6   10    -16.60     -7.15
    6    6   10      1.30    -11.64
    5    7   10    -21.24     22.21
    3    7   10     20.10     23.90
    1    7   10    -43.15     18.19
    7    7   10    -34.76      9.06
    6    8   10      4.11     -8.80
    4    8   10    -13.17    -17.40
    2    8   10     25.74    -15.00
    0    8   10     56.48      0.12
    8    8   10    -30.17    -12.41
    7    9   10     -0.49      5.21
    5    9   10      2.77     -1.39
    3    9   10     -3.01     24.73
    1    9   10     -8.46      1.82
    9    9   10     -3.13     14.16
    8   10   10     -0.30      0.44
    6   10   10     29.02    -24.08
    4   10   10     -9.24    -12.10
    2   10   10    -10.18      3.65
    0   10   10    -14.88      3.98
   10   10   10    -13.25    -17.46
    9   11   10     -7.59     -5.75
    7   11   10    -19.81      7.21
    5   11   10     -8.36     -3.84
    3   11   10    -11.25      7.09
    1   11   10    -40.38      5.27
   11   11   10    -22.00     16.27
   10   12   10      5.00     13.70
    8   12   10     -5.75     -5.95
    6   12   10     -1.91     -5.98
    4   12   10     10.86    -10.63
    2   12   10     -1.80      0.36
    0   12   10    -20.97      0.13
   12   12   10    -10.51      7.73
   11   13   10     -7.57     -1.41
    9   13   10     -6.49      1.92
    7   13   10    -25.36      3.59
    5   13   10    -11.60      2.21
    3   13   10      1.50     -2.92
    1   13   10      1.47     -3.43
   13   13   10    -15.83     -6.44
   12   14   10      3.16      6.10
   10   14   10     -0.82      9.90
    8   14   10    -11.43      1.93
    6   14   10      5.22     -9.99
    4   14   10    -10.66     11.41
    2   14   10      2.05     -9.51
    0   14   10     16.41     -0.63
   14   14   10     -2.78      6.46
   13   15   10     -2.68     -1.20
   11   15   10    -12.42      0.22
    9   15   10     -9.08      5.02
    7   15   10    -26.03      3.47
    5   15   10      2.64     -2.58
    3   15   10     -9.89      5.35
    1   15   10      0.79     -1.42
   15   15   10      2.72      0.00
   14   16   10    -13.22      2.52
   12   16   10      1.13     -2.91
   10   16   10     -7.86      6.81
    8   16   10     -3.68     -1.36
    6   16   10     -9.16     20.69
    4   16   10      0.94     -3.70
    2   16   10      1.42      1.68
    0   16   10      1.82     -0.61
   16   16   10     -8.22     22.11
   15   17   10      1.19      9.65
   13   17   10    -11.90     -1.19
   11   17   10     -2.53     -6.03
    9   17   10      1.80      4.98
    7   17   10    -18.01     -8.22
    5   17   10      1.64     -3.61
    3   17   10     -0.41     -1.71
    1   17   10     -5.90     -1.19
   17   17   10      6.46      4.71
   16   18   10    -11.12     -2.44
   14   18   10    -19.49     14.11
   12   18   10     -4.68      0.58
   10   18   10     -3.65     -0.50
    8   18   10      6.54     -4.72
    6   18   10      4.24      0.47
    4   18   10     -4.69     -2.72
    2   18   10      1.64      6.19
    0   18   10     -5.69     -0.47
   18   18   10    -12.71    -22.72
   17   19   10      5.39     -6.09
   15   19   10      3.16     -6.76
   13   19   10      1.16     -5.63
   11   19   10     -6.94     -6.54
    9   19   10      4.85      2.74
    7   19   10     -1.83     -7.83
    5   19   10      9.55     -1.80
    3   19   10      1.18      1.21
    1   19   10     -8.18      0.19
   14   20   10    -13.16     -3.61
   12   20   10    -10.53     -1.58
   10   20   10      6.76     -2.00
    8   20   10      4.83     -1.04
    6   20   10      7.16     -3.14
    4   20   10     -0.11      2.17
    2   20   10     -0.01     -3.68
    0   20   10     -2.88     -1.16
   16   20   10     -7.10     -5.56
   13   21   10     -5.89      0.38
   11   21   10     -1.38      3.13
    9   21   10     -4.54     -0.14
    7   21   10     -3.42     -0.87
    5   21   10      4.33      0.42
    3   21   10     -3.66     -6.30
    1   21   10    -11.39     -0.53
   12   22   10      0.70      8.55
   10   22   10      7.85      0.25
    8   22   10     -2.99     -2.45
    6   22   10     14.11      4.90
    4   22   10      5.03      1.61
    2   22   10      4.63      2.04
    0   22   10      4.65     -1.74
   11   23   10     -3.86     -9.71
    9   23   10    -11.05      1.06
    7   23   10     -1.96      9.36
    5   23   10      4.52     -9.43
    3   23   10      6.97      2.57
    1   23   10    -12.28      3.84
    8   24   10     -2.85     -5.51
    6   24   10    -16.48      0.23
    4   24   10     -5.07     -0.51
    2   24   10      0.68      5.82
    0   24   10     12.21      0.33
    5   25   10     -3.96      4.38
    3   25   10     -2.60      7.48
    1   25   10     -2.95      1.00
    0    1   11    -80.99      1.93
    1    2   11      6.53    -77.35
    2    3   11    -67.58    -90.00
    0    3   11     62.64     -3.86
    3    4   11     23.35      3.18
    1    4   11    -18.28     62.94
    4    5   11    -43.94    -29.40
    2    5   11     58.78      7.36
    0    5   11    -55.69     10.79
    5    6   11    -28.41    -14.29
    3    6   11    -16.98    -23.05
    1    6   11    -12.77    -34.36
    6    7   11      6.14     22.63
    4    7   11     17.06     35.71
    2    7   11     32.34      9.13
    0    7   11     14.04      9.07
    7    8   11     -9.44      1.93
    5    8   11    -24.35    -11.14
    3    8   11    -26.83      0.34
    1    8   11     -0.14    -20.46
    8    9   11     -5.68     -2.90
    6    9   11    -25.90    -22.40
    4    9   11    -10.52     -6.39
    2    9   11     10.07      9.76
    0    9   11     -8.13      5.37
    9   10   11     -0.79     -8.42
    7   10   11     12.95     -9.98
    5   10   11    -10.48    -19.48
    3   10   11    -22.05    -23.02
    1   10   11    -26.09     11.95
   10   11   11      2.99      5.09
    8   11   11     11.41      5.45
    6   11   11     15.53    -12.21
    4   11   11      5.35     -1.49
    2   11   11      1.29     -8.88
    0   11   11     -2.16      0.94
   11   12   11      4.12    -18.45
    9   12   11    -13.65     -0.19
    7   12   11     -0.53    -17.10
    5   12   11     -0.36     -6.73
    3   12   11     -7.35     -1.41
    1   12   11      4.17     -9.33
   12   13   11      2.97      2.72
   10   13   11      3.47     -0.20
    8   13   11     -9.54     -5.74
    6   13   11    -13.47     -3.11
    4   13   11     -5.49      2.94
    2   13   11    -21.62     -1.19
    0   13   11     -3.48      0.81
   13   14   11    -13.96      0.75
   11   14   11     -3.77    -12.28
    9   14   11     -9.59     -4.49
    7   14   11    -10.22     -5.05
    5   14   11     10.07      2.56
    3   14   11     11.44      3.50
    1   14   11     -6.21     11.84
   14   15   11     -9.05     -0.20
   12   15   11    -11.14     -0.07
   10   15   11     -1.54     -7.18
    8   15   11     -0.01      2.03
    6   15   11    -19.20     -6.12
    4   15   11     14.32      3.32
    2   15   11      2.42     14.81
    0   15   11    -14.29      0.11
   15   16   11    -27.07      6.21
   13   16   11      2.73      0.52
   11   16   11    -13.26    -10.54
    9   16   11     -8.35     -7.49
    7   16   11      6.59     -3.57
    5   16   11    -13.22     -4.37
    3   16   11      8.14    -10.08
    1   16   11     -4.90     -1.58
   16   17   11     -9.01     -6.04
   14   17   11     -2.55     17.01
   12   17   11    -12.60      2.30
   10   17   11     -8.04     -1.98
    8   17   11     -2.06      0.72
    6   17   11     -4.93     -0.59
    4   17   11      2.74      4.80
    2   17   11     -1.95     -1.27
    0   17   11     -6.71      0.33
   17   18   11      1.43    -10.02
   15   18   11      1.33     -1.27
   13   18   11      0.65     11.30
   11   18   11    -10.20      8.54
    9   18   11     -7.76     -1.31
    7   18   11      0.94     11.55
    5   18   11     -4.21     -8.40
    3   18   11     -8.89     -7.08
    1   18   11     -7.53      5.25
   16   19   11      4.10    -12.46
   14   19   11      3.38     -1.58
   12   19   11    -11.11     -7.05
   10   19   11    -10.05     -5.60
    8   19   11    -14.14     -5.89
    6   19   11     -4.94      5.79
    4   19   11      0.62      8.05
    2   19   11     -6.00      8.62
    0   19   11     -0.59      0.02
   15   20   11      3.84     -9.34
   13   20   11     -1.70      0.09
   11   20   11      3.17      7.74
    9   20   11     -2.46      2.76
    7   20   11      4.96     -1.47
    5   20   11      0.18     -6.77
    3   20   11      3.43     -1.90
    1   20   11      5.27      0.63
   14   21   11      6.17    -18.46
   12   21   11     -7.82    -29.52
   10   21   11    -14.38     -1.58
    8   21   11     11.07     13.86
    6   21   11      0.95      5.96
    4   21   11      6.71      8.00
    2   21   11      8.46      4.04
    0   21   11      4.99      1.88
   11   22   11     -5.14     11.30
    9   22   11     12.57     -4.79
    7   22   11      3.45      3.48
    5   22   11     -2.12     -6.00
    3   22   11     -4.09     -1.54
    1   22   11      2.22      2.59
   10   23   11      2.43    -13.10
    8   23   11      6.96     -2.08
    6   23   11    -10.36      1.17
    4   23   11      6.23      1.79
    2   23   11      2.28     -4.61
    0   23   11      4.06      0.63
    7   24   11      6.83      2.52
    5   24   11     10.44      6.89
    3   24   11      6.72     -1.25
    1   24   11      5.37     -0.39
    4   25   11     -0.05      5.76
    2   25   11     -7.27     -8.18
    0   25   11    -19.38      4.40
    0    0   12     83.97     64.34
    1    1   12    -13.14    -11.89
    0    2   12    -54.37     44.55
    2    2   12     85.91     78.63
    1    3   12     11.93     26.55
    3    3   12      0.48     16.69
    2    4   12    -12.54    -68.90
    0    4   12     25.30      8.69
    4    4   12     13.25    -60.89
    3    5   12    -44.41     -8.40
    1    5   12    -40.14    -42.97
    5    5   12     74.02     40.05
    4    6   12     46.47      1.87
    2    6   12     -3.85    -47.37
    0    6   12      1.59      2.48
    6    6   12     -0.44    -23.36
    5    7   12      0.63     -0.73
    3    7   12      1.36    -13.08
    1    7   12    -36.49     13.48
    7    7   12     -3.11     -0.43
    6    8   12      1.42     -0.73
    4    8   12      2.16    -14.44
    2    8   12    -13.65    -13.33
    0    8   12    -11.25      3.40
    8    8   12     -4.80    -18.18
    7    9   12     -5.12      8.19
    5    9   12      0.48      9.02
    3    9   12     -2.23      0.90
    1    9   12    -19.85      7.47
    9    9   12     -4.82      8.58
    8   10   12     -3.76    -17.46
    6   10   12    -12.18      1.80
    4   10   12      6.67    -21.11
    2   10   12      2.45      2.68
    0   10   12     -5.24      1.37
   10   10   12      3.12     18.61
    9   11   12     -7.67     11.99
    7   11   12    -10.56     -0.81
    5   11   12     -4.14     -0.42
    3   11   12      3.18     -5.12
    1   11   12     -7.49     -0.97
   11   11   12      5.05      4.40
   10   12   12      1.96     -2.11
    8   12   12      1.81      4.45
    6   12   12     -4.11    -12.72
    4   12   12     -2.11    -17.87
    2   12   12     -7.90      8.89
    0   12   12    -19.77      2.51
   12   12   12      1.25     14.59
   11   13   12    -20.00      5.20
    9   13   12    -21.52      7.26
    7   13   12    -13.84     -3.21
    5   13   12    -12.70     -8.25
    3   13   12     -0.93      3.11
    1   13   12      2.47     11.03
   13   13   12      6.73      5.50
   12   14   12      2.14      8.15
   10   14   12    -13.12      0.22
    8   14   12    -12.38     -2.11
    6   14   12     -7.84    -14.04
    4   14   12     -4.08     -1.59
    2   14   12     -0.24     10.64
    0   14   12     -5.87     -2.11
   14   14   12      4.06      3.56
   13   15   12     -5.60    -12.44
   11   15   12      0.65      1.87
    9   15   12     -6.75    -10.55
    7   15   12     -7.74     -8.05
    5   15   12    -10.96     -3.06
    3   15   12    -11.95      1.32
    1   15   12     -6.45      1.90
   15   15   12     10.58     -3.03
   14   16   12     -6.36     -7.13
   12   16   12     -5.05      8.91
   10   16   12      2.97      7.02
    8   16   12     -2.73      2.80
    6   16   12     10.34      5.26
    4   16   12     -5.34     -2.63
    2   16   12     -7.57     -4.58
    0   16   12      4.93     -2.34
   16   16   12     -3.56     13.70
   15   17   12     13.37      7.54
   13   17   12     -5.80      0.66
   11   17   12     -3.14     -2.28
    9   17   12     -3.29      4.43
    7   17   12     -2.22      5.23
    5   17   12    -12.88     22.60
    3   17   12     -6.38      8.88
    1   17   12    -13.94      7.91
   17   17   12      0.19      1.89
   16   18   12    -20.78      0.96
   14   18   12      2.80     13.53
   12   18   12      2.33     10.74
   10   18   12     -1.18    -12.21
    8   18   12     10.28      1.87
    6   18   12     -0.82      2.31
    4   18   12      0.27      3.98
    2   18   12     -0.48      4.53
    0   18   12    -14.33     -3.55
   15   19   12      5.62      5.97
   13   19   12      9.77      3.97
   11   19   12      2.93    -11.15
    9   19   12     -3.00      6.04
    7   19   12      4.84      7.19
    5   19   12     -4.23      9.98
    3   19   12      0.56     12.26
    1   19   12     -8.80      5.79
   14   20   12      7.90    -17.01
   12   20   12      4.25     -3.81
   10   20   12     15.03     -0.48
    8   20   12      1.40     -9.17
    6   20   12      2.82     -1.51
    4   20   12      4.71     -5.55
    2   20   12    -10.97     10.24
    0   20   12    -17.63     -1.97
   13   21   12      8.65     -3.35
   11   21   12     -0.92     -4.62
    9   21   12      6.17     -2.59
    7   21   12     -8.34     -3.47
    5   21   12     -3.48      3.65
    3   21   12     -5.52     -2.38
    1   21   12    -12.50     -1.16
   12   22   12     -4.48      3.19
   10   22   12      6.91      2.68
    8   22   12     -3.05     -7.11
    6   22   12      1.98      5.41
    4   22   12      6.82     -4.60
    2   22   12      6.09      2.92
    0   22   12      4.59      1.76
    9   23   12     -3.07     17.17
    7   23   12      0.10      9.28
    5   23   12     -0.53     -7.02
    3   23   12     -8.71     -6.32
    1   23   12     -9.35      0.86
    8   24   12     -5.92      1.29
    6   24   12     -0.18      0.15
    4   24   12     -6.13     -9.16
    2   24   12    -14.38      1.98
    0   24   12     -7.24     -1.72
    3   25   12     -0.43     -2.54
    1   25   12     -2.18     -4.82
    0    1   13    -56.14      4.94
    1    2   13     48.30    -36.69
    2    3   13     18.87    -51.38
    0    3   13     90.28     -3.90
    3    4   13    -17.03      5.80
    1    4   13      8.21     25.44
    4    5   13     14.40    -14.33
    2    5   13      8.81     45.89
    0    5   13     89.12     -4.55
    5    6   13     19.08     34.07
    3    6   13     -8.49    -12.17
    1    6   13    -41.54      4.08
    6    7   13    -18.91     31.23
    4    7   13      5.20      6.37
    2    7   13      6.71    -22.82
    0    7   13     29.27      1.76
    7    8   13     -5.79    -14.29
    5    8   13    -22.31     19.17
    3    8   13      1.89     -2.83
    1    8   13     -4.87    -27.23
    8    9   13      6.55     -1.95
    6    9   13     14.93    -18.63
    4    9   13    -10.16     -9.80
    2    9   13     12.13      2.54
    0    9   13      9.59     -0.17
    9   10   13      6.14    -13.49
    7   10   13      7.24      0.90
    5   10   13      5.32    -16.00
    3   10   13    -17.97      1.66
    1   10   13    -16.20      3.23
   10   11   13      9.89     -7.05
    8   11   13     -5.42      1.52
    6   11   13     -1.72     -8.90
    4   11   13    -17.24      2.50
    2   11   13    -27.43     -3.69
    0   11   13     -9.48      3.32
   11   12   13    -17.24     10.61
    9   12   13     -3.39     -0.88
    7   12   13    -17.63      4.36
    5   12   13    -11.80     -7.42
    3   12   13     15.24     -2.64
    1   12   13      3.86     -7.68
   12   13   13     -4.36     -5.75
   10   13   13     -3.28     -2.82
    8   13   13     -2.58      0.43
    6   13   13     -6.48      2.33
    4   13   13    -25.28      9.23
    2   13   13     -2.78     -1.80
    0   13   13      2.15      0.43
   13   14   13    -13.61     -2.82
   11   14   13      9.03     -7.18
    9   14   13     -3.57     -0.14
    7   14   13     -4.95     -1.91
    5   14   13     -5.87     -6.93
    3   14   13    -16.27     -7.17
    1   14   13      7.97     -3.06
   14   15   13    -15.97      6.01
   12   15   13     -3.13     -2.47
   10   15   13     -1.69     -0.36
    8   15   13     -1.02     -2.14
    6   15   13      0.62     10.39
    4   15   13    -14.69      5.13
    2   15   13    -13.16      4.87
    0   15   13      2.61      0.55
   15   16   13    -11.02     10.40
   13   16   13    -13.16     19.25
   11   16   13     -8.83     -0.30
    9   16   13      1.75     -3.57
    7   16   13    -10.90     -4.58
    5   16   13      3.75     -3.15
    3   16   13    -15.30      1.38
    1   16   13    -11.77      2.99
   16   17   13     -6.97     13.59
   14   17   13    -14.57     22.37
   12   17   13     -6.04     -6.92
   10   17   13     -5.12     -7.97
    8   17   13     -2.62     -1.31
    6   17   13     -1.41      1.90
    4   17   13     -4.79     -1.59
    2   17   13      2.68      8.66
    0   17   13     -0.42      2.02
   17   18   13    -26.15    -10.98
   15   18   13    -11.03      6.06
   13   18   13      4.60     -1.35
   11   18   13     -1.52     13.65
    9   18   13     -2.32      1.58
    7   18   13     -3.96     -4.45
    5   18   13      7.76     -6.53
    3   18   13      1.79     -6.20
    1   18   13     -8.26      2.78
   16   19   13     -6.66    -15.42
   14   19   13     -2.92     -4.65
   12   19   13      6.03    -13.06
   10   19   13     -6.06      7.65
    8   19   13     -3.41     -4.39
    6   19   13      3.35     -1.43
    4   19   13     -0.75      1.63
    2   19   13      0.59     -4.76
    0   19   13     -3.31      2.66
   15   20   13     -4.30    -10.00
   13   20   13      3.79      1.18
   11   20   13      8.13      6.72
    9   20   13      0.21     -0.10
    7   20   13    -12.33    -11.39
    5   20   13     -3.06     -0.29
    3   20   13      4.64     -7.57
    1   20   13     -5.70     -3.94
   14   21   13     -4.69    -18.62
   12   21   13     -7.46    -10.30
   10   21   13     -5.65     -6.32
    8   21   13    -12.57     13.68
    6   21   13     -3.64      1.53
    4   21   13    -17.27      4.40
    2   21   13     -1.54     -1.41
    0   21   13     10.87     -1.45
   11   22   13     -1.49      2.48
    9   22   13    -16.69     14.70
    7   22   13     -8.77      3.45
    5   22   13      7.62     -3.85
    3   22   13     -2.03     -8.42
    1   22   13    -11.55      2.72
   10   23   13     -7.30     -6.30
    8   23   13     -8.10      2.84
    6   23   13     -4.21      1.01
    4   23   13      1.60     -5.08
    2   23   13     -0.44      4.93
    0   23   13     -7.05      0.35
    7   24   13      1.90      4.77
    5   24   13      4.26     -0.17
    3   24   13      6.13      3.75
    1   24   13     -6.83     -3.75
    2   25   13    -14.78     -1.56
    0   25   13     -2.51      2.38
    0    0   14     19.91      6.38
    1    1   14     27.66    -26.23
    0    2   14      0.21      3.02
    2    2   14    -39.73    -36.88
    1    3   14     38.08    -14.70
    3    3   14     -3.87     23.50
    2    4   14     66.11      3.09
    0    4   14      4.28      2.96
    4    4   14     20.94    -35.28
    3    5   14    -29.91      5.97
    1    5   14    -24.58     26.21
    5    5   14    -22.09     -6.27
    4    6   14     -4.55    -25.17
    2    6   14     31.87     -8.46
    0    6   14    -39.15      4.18
    6    6   14     21.52    -16.62
    5    7   14    -11.96     16.94
    3    7   14    -19.66     13.48
    1    7   14      6.78     -7.12
    7    7   14      5.24     38.87
    6    8   14    -22.68    -23.74
    4    8   14    -11.37     -4.74
    2    8   14     14.49    -24.23
    0    8   14    -20.81      7.80
    8    8   14    -29.47      0.80
    7    9   14    -20.83     18.33
    5    9   14    -22.29      7.53
    3    9   14    -17.52     12.04
    1    9   14    -18.14     -1.95
    9    9   14      1.05    -15.55
    8   10   14      3.64    -11.67
    6   10   14    -17.81    -14.04
    4   10   14    -20.24    -12.03
    2   10   14     -4.91    -13.38
    0   10   14    -30.18     -0.12
   10   10   14      0.55     -5.24
    9   11   14    -17.34      2.75
    7   11   14      7.23      6.59
    5   11   14     -0.50      7.81
    3   11   14    -14.09      4.15
    1   11   14     10.92     -3.18
   11   11   14    -13.24     -5.60
   10   12   14      4.67      9.34
    8   12   14     -3.63     -2.67
    6   12   14     -2.89      4.96
    4   12   14     -9.60      4.62
    2   12   14     -8.50     -4.85
    0   12   14      2.53      0.14
   12   12   14      8.89      4.88
   11   13   14     -9.63      4.59
    9   13   14    -14.59     -2.45
    7   13   14     -9.20     -8.77
    5   13   14      1.94     13.49
    3   13   14    -17.72      2.80
    1   13   14     10.23     -1.82
   13   13   14      8.57      6.16
   12   14   14     -5.13      9.17
   10   14   14     -8.32      0.12
    8   14   14      1.64    -10.59
    6   14   14     -6.71     -8.48
    4   14   14     14.49      4.91
    2   14   14      2.53     13.67
    0   14   14     -2.90      0.64
   14   14   14      1.79     -9.15
   13   15   14      7.33     -2.67
   11   15   14    -13.47     -6.73
    9   15   14    -10.36     -9.77
    7   15   14      2.07     -5.37
    5   15   14    -35.42    -10.60
    3   15   14     -2.43     -1.69
    1   15   14     -8.58     10.02
   15   15   14    -15.48     -5.24
   14   16   14      1.90    -15.16
   12   16   14      4.16     -3.28
   10   16   14     -4.59     -2.91
    8   16   14      3.01     -8.37
    6   16   14    -10.05     -1.20
    4   16   14     -4.00     -1.44
    2   16   14      4.82      2.30
    0   16   14     -1.30     -3.88
   16   16   14    -15.61    -13.78
   15   17   14     -1.72    -12.33
   13   17   14      4.29      5.29
   11   17   14    -13.98      7.47
    9   17   14    -10.11      5.07
    7   17   14     -4.56      9.58
    5   17   14     -8.31      2.50
    3   17   14    -12.62     -4.70
    1   17   14     -0.55      0.49
   17   17   14     -7.34    -10.98
   16   18   14    -13.42     -3.66
   14   18   14     -2.06    -12.39
   12   18   14      5.31     13.09
   10   18   14      2.42      1.66
    8   18   14     -8.28     -1.40
    6   18   14     -3.60      1.71
    4   18   14      0.87      2.01
    2   18   14     -9.90     -0.85
    0   18   14     -5.66     -2.96
   15   19   14    -11.40      0.22
   13   19   14      5.82     10.24
   11   19   14     13.48     -4.25
    9   19   14    -12.27      9.18
    7   19   14    -12.76     10.81
    5   19   14     -6.01      2.63
    3   19   14    -15.50      8.29
    1   19   14      6.03      3.29
   14   20   14     -7.65      0.89
   12   20   14     10.77     -4.98
   10   20   14     -5.82      4.79
    8   20   14     -4.96      3.82
    6   20   14     -4.05      0.18
    4   20   14      8.03     -2.71
    2   20   14      3.52     -0.90
    0   20   14     -5.86     -0.47
   13   21   14     -9.34     -7.08
   11   21   14    -15.87      8.54
    9   21   14     -7.47      2.40
    7   21   14      1.28      5.49
    5   21   14     -7.35     -4.03
    3   21   14     -1.55     -0.97
    1   21   14     -2.02      4.56
   12   22   14    -14.45      0.95
   10   22   14     -4.96      2.27
    8   22   14      5.58     -6.06
    6   22   14     -9.06     -0.97
    4   22   14     12.23     -0.11
    2   22   14      0.00      1.28
    0   22   14     -0.67     -0.14
    9   23   14     -0.31     -6.17
    7   23   14     -5.11     11.61
    5   23   14     -2.25     -3.79
    3   23   14     -9.14     -7.49
    1   23   14      0.68     -2.24
    6   24   14     15.82      0.76
    4   24   14      5.64      0.68
    2   24   14      1.10    -22.18
    0   24   14      6.56     -2.11
    1   25   14      3.39     -4.68
    0    1   15    -14.16     10.85
    1    2   15     25.25     17.75
    2    3   15     16.86     44.72
    0    3   15      3.91      6.36
    3    4   15    -23.02    -15.88
    1    4   15    -71.11      2.80
    4    5   15     -7.83      5.81
    2    5   15    -22.10    -38.61
    0    5   15     72.61      6.23
    5    6   15     -5.66    -11.73
    3    6   15     -0.99     18.97
    1    6   15    -31.04    -22.27
    6    7   15     -3.63     11.11
    4    7   15      3.09      3.47
    2    7   15     -6.40     12.46
    0    7   15     15.48      3.61
    7    8   15      2.69      6.02
    5    8   15     -5.44     14.89
    3    8   15     -2.68      2.96
    1    8   15     -8.57     12.88
    8    9   15      5.15    -14.61
    6    9   15     -1.32     15.38
    4    9   15    -20.14     -0.15
    2    9   15      0.39     10.74
    0    9   15      9.39      2.81
    9   10   15      0.50     -6.77
    7   10   15     -8.49    -13.34
    5   10   15    -11.96     12.64
    3   10   15     -1.91     -3.52
    1   10   15    -15.24     -2.80
   10   11   15     10.36      0.11
    8   11   15      7.15     -4.68
    6   11   15     -4.50     19.47
    4   11   15     -5.18      4.79
    2   11   15    -20.38      3.01
    0   11   15     -9.88      0.03
   11   12   15     -2.96      4.58
    9   12   15      3.94      0.41
    7   12   15     -6.33     -2.62
    5   12   15     -3.35     -6.75
    3   12   15     13.13    -16.75
    1   12   15     -6.62     -7.31
   12   13   15      1.94      1.49
   10   13   15    -11.60     -3.73
    8   13   15      0.72     10.91
    6   13   15      6.01      4.35
    4   13   15     -3.53     -5.06
    2   13   15      3.03     -3.12
    0   13   15     -0.13     -1.09
   13   14   15      6.34     17.70
   11   14   15     -3.44      4.77
    9   14   15     -3.77      6.95
    7   14   15     -6.50      3.44
    5   14   15      2.04     -8.75
    3   14   15     -2.72     -2.00
    1   14   15     -3.55     -6.23
   14   15   15      9.78    -11.23
   12   15   15     10.03      0.04
   10   15   15     -3.72    -14.79
    8   15   15     -3.34      1.36
    6   15   15     10.72     12.38
    4   15   15     -9.07      2.05
    2   15   15     -5.83     -0.82
    0   15   15     15.93     -1.52
   15   16   15     18.64    -10.83
   13   16   15    -18.96     -3.10
   11   16   15      5.14     12.04
    9   16   15     -3.72     -4.29
    7   16   15      6.08    -10.20
    5   16   15      2.37     -2.46
    3   16   15     -7.58     -7.86
    1   16   15     -6.38     -5.20
   16   17   15     -5.88    -13.71
   14   17   15     14.52      1.84
   12   17   15      3.22      1.75
   10   17   15      4.45     -1.12
    8   17   15      3.52      4.35
    6   17   15     -2.08      1.28
    4   17   15     -9.89     -1.13
    2   17   15     -5.60     -2.86
    0   17   15     -5.22     -0.22
   17   18   15    -12.96      5.66
   15   18   15     -6.77      6.01
   13   18   15      6.67      8.03
   11   18   15      3.75      3.87
    9   18   15     -2.25      5.92
    7   18   15      5.97     -3.14
    5   18   15     -8.05      0.68
    3   18   15      9.60     -1.47
    1   18   15     -3.12      1.37
   16   19   15     -8.54     -1.12
   14   19   15     12.42      5.08
   12   19   15      0.26      1.05
   10   19   15     -3.69      2.64
    8   19   15     -2.49      9.71
    6   19   15      3.83      4.21
    4   19   15     -4.59     -7.25
    2   19   15      0.66      1.83
    0   19   15      7.05      0.01
   13   20   15     17.81      0.60
   11   20   15      7.73      2.80
    9   20   15      2.11    -14.02
    7   20   15    -11.20      4.26
    5   20   15     -4.08     -3.49
    3   20   15      6.12     -7.15
    1   20   15     -3.20     -4.82
   15   20   15      1.55     -3.07
   12   21   15      1.88     20.71
   10   21   15      1.95     -3.98
    8   21   15     -9.62     -9.37
    6   21   15     -9.75      0.63
    4   21   15     -3.83      1.00
    2   21   15     -5.79     -3.79
    0   21   15     -9.16     -1.81
   11   22   15    -23.22      0.43
    9   22   15    -18.54     12.16
    7   22   15     -7.47      0.42
    5   22   15      1.30     -0.29
    3   22   15      7.25     -1.73
    1   22   15      5.73     -8.29
    8   23   15     -1.90      4.15
    6   23   15      4.86     -1.61
    4   23   15     -6.36     -3.83
    2   23   15     -6.46      7.25
    0   23   15      4.64     -0.47
    7   24   15     -5.53     -4.27
    5   24   15      8.83     -0.52
    3   24   15     -9.32      2.75
    1   24   15      3.99      2.66
    0    0   16    -37.88    -19.27
    1    1   16    -33.06    -18.17
    0    2   16    -55.34     -4.65
    2    2   16     13.15    -71.69
    1    3   16     13.66    -46.72
    3    3   16    -31.20     11.35
    2    4   16     21.75     27.68
    0    4   16     22.12      2.33
    4    4   16      0.05     -2.57
    3    5   16    -33.01      7.00
    1    5   16      1.41     36.39
    5    5   16      6.66      5.10
    4    6   16     -0.67    -59.39
    2    6   16      7.24    -20.37
    0    6   16      4.34      2.10
    6    6   16    -29.68     18.07
    5    7   16    -20.65     29.61
    3    7   16     -3.25    -24.52
    1    7   16     30.11    -11.48
    7    7   16    -14.39      2.86
    6    8   16    -22.96    -16.56
    4    8   16      2.71    -14.88
    2    8   16     -8.21    -13.22
    0    8   16     12.77     -3.68
    8    8   16     -3.57     -6.18
    7    9   16      5.62      5.22
    5    9   16     -0.36     -7.89
    3    9   16     -0.99     21.37
    1    9   16     -5.82     17.51
    9    9   16    -12.33     -0.29
    8   10   16     -4.27      8.86
    6   10   16      1.37    -11.71
    4   10   16      0.41     -4.60
    2   10   16    -14.88      8.23
    0   10   16     -3.70     -0.98
   10   10   16      9.25     -2.05
    9   11   16     -9.24    -22.80
    7   11   16     -1.79     -1.24
    5   11   16      1.48      2.81
    3   11   16    -14.98      9.86
    1   11   16    -11.85      7.85
   11   11   16    -17.76    -12.28
   10   12   16     -2.76      6.04
    8   12   16      8.10     -1.90
    6   12   16      0.52      4.25
    4   12   16     -1.30      3.89
    2   12   16     -3.34    -15.16
    0   12   16    -11.11     -1.50
   12   12   16    -16.70     37.31
   11   13   16     -4.63      9.80
    9   13   16    -11.99    -12.25
    7   13   16      9.77      8.46
    5   13   16     -7.73     19.45
    3   13   16    -18.70      0.68
    1   13   16    -11.44      0.76
   13   13   16    -13.01     -5.73
   12   14   16     -1.02     -3.00
   10   14   16      0.57     -1.31
    8   14   16      9.51     -6.34
    6   14   16      9.27      3.09
    4   14   16      4.23     12.43
    2   14   16     -0.29     -0.07
    0   14   16      5.31      1.71
   14   14   16     -9.23     -4.22
   13   15   16      3.97     11.68
   11   15   16      1.29      1.08
    9   15   16     -9.17      1.66
    7   15   16      1.40      0.25
    5   15   16     -0.24      5.07
    3   15   16    -17.38     -8.64
    1   15   16     -3.32      0.46
   15   15   16     -9.19     -8.39
   14   16   16     -6.81     -1.65
   12   16   16     -5.53      8.57
   10   16   16     -0.19     -4.53
    8   16   16     -5.58      2.57
    6   16   16     -3.63     -6.19
    4   16   16     -7.89      0.51
    2   16   16     -6.81      9.39
    0   16   16     -1.86      0.52
   16   16   16     -7.88    -25.83
   15   17   16      1.28    -24.44
   13   17   16     -2.03     -1.58
   11   17   16    -13.56      8.36
    9   17   16    -13.60     -1.05
    7   17   16    -16.68     12.96
    5   17   16     -9.70     -8.91
    3   17   16    -10.16     -7.07
    1   17   16      9.12      9.70
   17   17   16    -19.37      1.62
   16   18   16    -11.18      4.30
   14   18   16     -5.45    -24.27
   12   18   16     -2.65    -10.32
   10   18   16     -4.95     -2.50
    8   18   16     -8.78     -7.53
    6   18   16     -8.07      3.30
    4   18   16     -3.74    -11.64
    2   18   16     -2.36     -5.89
    0   18   16      5.32      0.27
   15   19   16     -4.94     -5.90
   13   19   16      5.07     -3.78
   11   19   16      8.38     11.54
    9   19   16    -10.13      6.42
    7   19   16     -4.49     -9.57
    5   19   16     -0.71      3.80
    3   19   16     -0.57    -12.19
    1   19   16     -5.99     -0.64
   14   20   16    -13.08     19.68
   12   20   16     -3.68      6.02
   10   20   16     -5.44     -4.58
    8   20   16     -3.29     -1.41
    6   20   16     -0.02     -3.65
    4   20   16     -5.99     -4.19
    2   20   16      5.23     -7.36
    0   20   16      1.45     -0.71
   13   21   16    -17.69      8.97
   11   21   16     -4.00      1.45
    9   21   16     -1.41      2.54
    7   21   16      2.21     -5.85
    5   21   16     -0.93      0.21
    3   21   16     -3.75     -8.05
    1   21   16      2.30     -0.23
   10   22   16      5.78     -7.39
    8   22   16      4.11     -4.97
    6   22   16     -2.02      1.64
    4   22   16     -1.91     -3.67
    2   22   16      7.89      0.12
    0   22   16     -4.57      0.21
    9   23   16      2.51    -10.08
    7   23   16     -8.97     -7.09
    5   23   16     -4.08     -1.23
    3   23   16      3.81     -2.71
    1   23   16      1.49     -0.39
    6   24   16      8.10      2.24
    4   24   16     -0.25     -1.92
    2   24   16      6.75     -4.44
    0   24   16     14.37      2.45
    0    1   17    -18.11      0.42
    1    2   17    -32.16     24.10
    2    3   17      3.86     38.35
    0    3   17    -15.43      3.54
    3    4   17     14.60     -8.61
    1    4   17    -17.59      4.85
    4    5   17    -41.50      6.36
    2    5   17    -15.17     -5.87
    0    5   17     17.29      3.21
    5    6   17      3.87    -15.45
    3    6   17    -23.14      5.46
    1    6   17     21.15     16.22
    6    7   17     14.44      1.64
    4    7   17     -0.36      7.18
    2    7   17     22.28     18.39
    0    7   17     24.73      5.40
    7    8   17    -26.53     14.06
    5    8   17     12.46    -14.78
    3    8   17     34.94      7.29
    1    8   17     15.62      8.02
    8    9   17    -12.92      5.63
    6    9   17    -16.36      1.16
    4    9   17      7.47     28.22
    2    9   17     24.34     28.77
    0    9   17    -20.82      2.67
    9   10   17    -13.49    -10.26
    7   10   17     -2.96      2.26
    5   10   17    -14.55    -14.16
    3   10   17    -17.01     -4.38
    1   10   17    -25.01    -16.32
   10   11   17     -5.69     -7.64
    8   11   17     -7.97     13.18
    6   11   17      6.97      8.92
    4   11   17    -14.27    -16.64
    2   11   17     -5.82     -9.95
    0   11   17    -12.06     -1.68
   11   12   17      3.91     10.59
    9   12   17     -7.40      3.32
    7   12   17    -10.65      6.31
    5   12   17      0.76     -0.21
    3   12   17    -10.76    -14.64
    1   12   17    -14.63    -13.63
   12   13   17      5.69     -1.81
   10   13   17      2.09      0.84
    8   13   17    -16.98     -8.70
    6   13   17      0.70      4.26
    4   13   17     13.52     -1.67
    2   13   17      6.09    -15.08
    0   13   17      5.80     -3.26
   13   14   17      4.36      8.54
   11   14   17    -16.90      4.59
    9   14   17     -4.79      8.77
    7   14   17     -0.85     -3.54
    5   14   17      1.00     -6.84
    3   14   17     17.67     -3.82
    1   14   17     -5.60     -0.17
   14   15   17      5.59     -9.31
   12   15   17     -3.10     -6.91
   10   15   17    -12.66    -11.02
    8   15   17     -2.47     -8.58
    6   15   17     -8.95      6.01
    4   15   17     -2.96     -7.82
    2   15   17      5.77      3.29
    0   15   17     -5.61     -1.45
   15   16   17      0.92     -3.13
   13   16   17      1.12     -1.80
   11   16   17    -13.88     -7.29
    9   16   17      0.31     -5.31
    7   16   17     -1.81      4.93
    5   16   17    -11.51      3.79
    3   16   17      3.95     -7.47
    1   16   17     12.01      2.49
   16   17   17      9.08    -12.16
   14   17   17    -12.97    -20.58
   12   17   17     13.38     -4.88
   10   17   17     -9.67     -4.70
    8   17   17     -1.03    -10.34
    6   17   17     -6.01     13.39
    4   17   17    -10.38      4.29
    2   17   17     -2.84      2.09
    0   17   17     -5.80     -2.29
   15   18   17    -16.84     -8.63
   13   18   17    -10.20      7.61
   11   18   17      0.28     -3.76
    9   18   17     -4.03     -6.31
    7   18   17     -5.55      2.20
    5   18   17     -4.05     -5.63
    3   18   17     -9.63      6.02
    1   18   17     10.54     -1.21
   14   19   17     -8.68     -3.07
   12   19   17     -1.80      0.42
   10   19   17     -2.83     -4.45
    8   19   17     -4.32      0.20
    6   19   17     -1.49      0.19
    4   19   17     -2.89      2.09
    2   19   17     -5.29      8.25
    0   19   17     -0.36     -2.26
   13   20   17      6.66      4.46
   11   20   17    -12.53     -9.13
    9   20   17      4.68     -4.75
    7   20   17     -8.03      4.22
    5   20   17     -4.11    -11.33
    3   20   17     -2.88     -5.73
    1   20   17      4.32      0.63
   12   21   17     -3.24     10.91
   10   21   17     -1.74      1.00
    8   21   17     -4.34    -18.89
    6   21   17     -8.39     -1.29
    4   21   17      6.83     -3.90
    2   21   17     -3.93     -2.71
    0   21   17     -6.97     -0.36
   11   22   17    -16.84      8.62
    9   22   17     -6.12    -13.43
    7   22   17     -3.58      4.41
    5   22   17     -0.99     -6.45
    3   22   17     14.11     -4.53
    1   22   17     20.46      3.27
    8   23   17      5.17     -0.14
    6   23   17      5.71      8.34
    4   23   17      0.27     -0.06
    2   23   17    -14.32    -11.19
    0   23   17      5.27     -3.99
    5   24   17     -5.81      5.34
    3   24   17     -4.61     -9.39
    1   24   17     16.25    -11.18
    0    0   18    -13.01      3.86
    1    1   18    -16.89     -0.79
    0    2   18     21.32     -4.32
    2    2   18      5.86    -19.32
    1    3   18      4.77     -1.91
    3    3   18    -29.41    -11.99
    2    4   18    -10.79    -13.64
    0    4   18      6.08      1.00
    4    4   18    -59.77    -17.91
    3    5   18     -4.18     22.61
    1    5   18      8.18    -18.56
    5    5   18    -11.11      1.34
    4    6   18      5.84    -16.90
    2    6   18      0.46     -5.86
    0    6   18    -12.62     -4.05
    6    6   18    -20.32    -13.93
    5    7   18     -1.64     -6.34
    3    7   18     23.99     33.52
    1    7   18     -6.35      4.06
    7    7   18    -33.63     -5.51
    6    8   18     -8.51     -1.18
    4    8   18     -5.89     -5.92
    2    8   18     16.22     11.68
    0    8   18      3.27     -5.29
    8    8   18     -8.79      9.49
    7    9   18     -1.56     -7.47
    5    9   18    -13.82    -12.28
    3    9   18     -2.26     -5.75
    1    9   18     -3.44      5.69
    9    9   18    -17.27    -11.36
    8   10   18     -7.38     -3.88
    6   10   18      5.81     -1.42
    4   10   18     -4.06     -7.15
    2   10   18      3.20     -9.25
    0   10   18      7.84     -0.87
   10   10   18    -12.59     24.08
    9   11   18     -0.60     -1.82
    7   11   18    -12.21     -3.39
    5   11   18    -13.83     11.16
    3   11   18    -14.82     14.28
    1   11   18    -28.69      8.04
   11   11   18     -2.74     -8.40
   10   12   18     -9.22      3.95
    8   12   18      7.86      2.36
    6   12   18     -6.31     -8.14
    4   12   18      1.14     -9.13
    2   12   18     -4.02     -5.57
    0   12   18     -4.15     -1.89
   12   12   18     -6.20     -5.27
   11   13   18    -11.50     -2.67
    9   13   18      4.84     -7.90
    7   13   18     -5.55     -0.21
    5   13   18      0.91     -4.03
    3   13   18     -7.86     -2.04
    1   13   18    -29.40      2.76
   13   13   18     -3.91     12.06
   12   14   18     -8.00      8.49
   10   14   18    -11.53     -2.63
    8   14   18      4.29      2.71
    6   14   18     -5.21     11.02
    4   14   18     -5.35    -11.89
    2   14   18     -5.71     -2.08
    0   14   18      0.43     -0.66
   14   14   18      1.25      8.75
   13   15   18      2.42     -2.76
   11   15   18      3.02      0.32
    9   15   18     -6.94    -11.70
    7   15   18      1.78      6.42
    5   15   18     -1.27     13.89
    3   15   18    -10.32      3.30
    1   15   18     -5.61     -3.08
   15   15   18      4.57     -4.76
   14   16   18     -0.20      9.36
   12   16   18     -1.47     -1.28
   10   16   18     -3.05    -17.65
    8   16   18     -4.40     -0.77
    6   16   18      2.73     -7.70
    4   16   18     -4.25      2.76
    2   16   18     -5.18     -7.50
    0   16   18      7.06      4.27
   16   16   18    -17.76     -1.17
   15   17   18     -2.61      3.87
   13   17   18     -0.83      3.95
   11   17   18      1.46      3.68
    9   17   18     -5.05      3.13
    7   17   18     -2.31     -8.29
    5   17   18     -3.02     -0.24
    3   17   18      6.41     -1.85
    1   17   18     -6.97     -1.02
   17   17   18      5.82     -4.36
   16   18   18     -8.88     -2.72
   14   18   18     -0.44      4.22
   12   18   18    -13.65     -8.52
   10   18   18      6.79     -1.85
    8   18   18      4.21      8.57
    6   18   18      1.14      2.81
    4   18   18     -3.32     -1.22
    2   18   18     -4.47      2.82
    0   18   18     -4.74      1.67
   15   19   18      7.65    -16.36
   13   19   18     -9.77    -10.10
   11   19   18     -4.31     10.58
    9   19   18     -0.85     -6.57
    7   19   18     -1.50      7.69
    5   19   18     -7.82     -1.21
    3   19   18      3.20     -6.71
    1   19   18     -5.32      7.61
   14   20   18      3.52     -5.67
   12   20   18     -0.36     -1.54
   10   20   18     -4.62    -33.16
    8   20   18      8.81     -4.66
    6   20   18      0.10      7.76
    4   20   18      2.74     -7.18
    2   20   18     11.26      6.25
    0   20   18     11.46      0.24
   11   21   18     -1.70     -5.25
    9   21   18     -2.00    -10.40
    7   21   18      3.25      4.21
    5   21   18     -0.16     -0.92
    3   21   18      0.29     -1.07
    1   21   18     -4.10     -5.72
   10   22   18     -1.03    -11.42
    8   22   18      6.29     11.85
    6   22   18     -7.77     -2.37
    4   22   18     -9.38      7.09
    2   22   18     -6.97     -3.55
    0   22   18     -3.25     -0.10
    7   23   18     -4.67    -12.75
    5   23   18      4.74      7.39
    3   23   18     -6.09      5.11
    1   23   18      8.41     -2.83
    4   24   18     -3.65      6.88
    2   24   18     -3.92     16.17
    0   24   18      7.32      1.73
    0    1   19      1.13      1.80
    1    2   19     42.31    -39.72
    2    3   19      3.96     13.84
    0    3   19    -11.88      4.73
    3    4   19    -27.57     33.27
    1    4   19     11.47    -17.60
    4    5   19     13.17    -19.93
    2    5   19    -24.73     -1.26
    0    5   19    -28.87     -3.96
    5    6   19     -9.11    -20.35
    3    6   19     14.56    -23.54
    1    6   19    -10.75      5.85
    6    7   19     -9.69      9.75
    4    7   19     22.78     -8.42
    2    7   19     15.37      3.60
    0    7   19    -13.37      2.95
    7    8   19     -8.51    -12.91
    5    8   19      8.81     -5.62
    3    8   19      8.10    -22.21
    1    8   19    -28.38      6.47
    8    9   19    -10.67      0.22
    6    9   19    -10.25     -0.14
    4    9   19     35.04     -3.44
    2    9   19     -3.03     20.82
    0    9   19      3.56     -0.07
    9   10   19     -6.30      7.78
    7   10   19     -2.96      2.03
    5   10   19      1.21     -5.67
    3   10   19    -14.88      7.11
    1   10   19    -14.16      6.28
   10   11   19     -6.31    -11.69
    8   11   19    -10.29     -3.11
    6   11   19    -11.52    -13.64
    4   11   19      7.53    -14.95
    2   11   19     -3.93     -1.08
    0   11   19     -0.19      0.23
   11   12   19     -2.22     12.64
    9   12   19    -11.49      5.64
    7   12   19      3.46      1.09
    5   12   19     -5.70      5.23
    3   12   19    -14.48    -12.89
    1   12   19     -5.78     -3.38
   12   13   19    -11.95      3.25
   10   13   19      3.00     -6.71
    8   13   19     -4.13     -9.49
    6   13   19     -8.37      1.33
    4   13   19      1.18     14.43
    2   13   19     -6.66    -11.76
    0   13   19    -13.52     -1.89
   13   14   19     -0.08    -19.22
   11   14   19      2.01     -3.15
    9   14   19     -8.45     -6.81
    7   14   19      3.58     -2.69
    5   14   19     -4.27     10.38
    3   14   19      2.95     -3.15
    1   14   19      6.61     -9.13
   14   15   19     -5.28      9.84
   12   15   19      5.45     -7.43
   10   15   19     -4.71     -5.50
    8   15   19     -0.47    -11.93
    6   15   19     -4.65     -4.46
    4   15   19      0.82      2.69
    2   15   19      2.28     -4.89
    0   15   19    -13.93     -1.83
   15   16   19      3.38      4.04
   13   16   19     -4.81     15.91
   11   16   19      2.24      1.49
    9   16   19     -2.76      3.50
    7   16   19     -2.53     14.90
    5   16   19     -6.41     -3.17
    3   16   19     -5.69     -2.50
    1   16   19      6.34      9.33
   16   17   19     -2.05     10.57
   14   17   19     -8.17    -24.80
   12   17   19    -10.29      9.73
   10   17   19      6.26     -8.46
    8   17   19      1.16      1.04
    6   17   19     -3.52     10.26
    4   17   19     -3.24     -0.69
    2   17   19     -7.73     19.65
    0   17   19     -8.72     -2.44
   15   18   19      5.50      8.77
   13   18   19     -5.73      6.30
   11   18   19     -0.45      0.53
    9   18   19    -10.33    -17.64
    7   18   19     -4.38     -1.71
    5   18   19     -5.26      2.79
    3   18   19     -2.77      0.05
    1   18   19      7.58      8.65
   14   19   19     -5.40    -10.44
   12   19   19      4.60      4.63
   10   19   19      5.19     -6.26
    8   19   19      6.01     -7.01
    6   19   19      3.23      1.32
    4   19   19      0.86      7.08
    2   19   19     -2.17      9.33
    0   19   19     -2.39      0.17
   13   20   19     -5.02      8.76
   11   20   19     -6.91     -0.43
    9   20   19     -6.01     10.31
    7   20   19     -1.35     -5.24
    5   20   19     -8.93     -8.00
    3   20   19     -8.34     -4.45
    1   20   19      2.70      6.05
   12   21   19     -7.58     -7.81
   10   21   19     19.50     -3.22
    8   21   19      2.26    -10.97
    6   21   19      3.43     -0.50
    4   21   19     -5.46     -5.55
    2   21   19      0.66      1.92
    0   21   19     -2.42     -0.39
    9   22   19     10.76     -4.19
    7   22   19     -8.38     -1.19
    5   22   19     -3.43      0.66
    3   22   19     11.63     -3.13
    1   22   19      8.46     -1.10
    6   23   19     -4.93      2.04
    4   23   19     -6.13      3.77
    2   23   19      0.52    -11.65
    0   23   19     -8.94      0.21
    3   24   19      2.31     -8.11
    1   24   19      3.09     -7.71
    0    0   20     95.73      6.88
    1    1   20     20.44     69.05
    0    2   20     42.53     -6.35
    2    2   20    -30.76     12.55
    1    3   20      5.24     22.41
    3    3   20     50.12    -27.88
    2    4   20     -8.54    -26.27
    0    4   20    -14.69     -6.82
    4    4   20    -12.96     -3.17
    3    5   20      1.24     15.01
    1    5   20      8.72     22.84
    5    5   20    -14.02     30.93
    4    6   20    -10.05     -2.84
    2    6   20     -0.41      3.95
    0    6   20     46.01     -3.73
    6    6   20      7.34    -12.39
    5    7   20     16.80    -11.02
    3    7   20      5.93      9.06
    1    7   20     10.65     10.68
    7    7   20    -38.20      0.26
    6    8   20    -11.38     -5.14
    4    8   20     33.72     16.98
    2    8   20     22.84     19.43
    0    8   20     20.73     -3.37
    8    8   20     -6.13     -1.98
    7    9   20    -24.58      1.77
    5    9   20    -19.64      4.49
    3    9   20     11.58     10.72
    1    9   20    -10.64      3.08
    9    9   20     -5.25     -7.36
    8   10   20      5.33      7.84
    6   10   20      2.71     -4.73
    4   10   20    -21.95     -7.30
    2   10   20      5.26    -13.07
    0   10   20     -5.12     -1.09
   10   10   20     -3.63     -3.92
    9   11   20      2.68      5.28
    7   11   20      5.48     32.44
    5   11   20    -13.26     -4.75
    3   11   20     -4.68    -11.07
    1   11   20    -15.95     -9.08
   11   11   20     -0.46     12.27
   10   12   20     -5.03      2.49
    8   12   20     -5.13      8.78
    6   12   20      7.88      8.08
    4   12   20    -18.75    -11.63
    2   12   20     -4.57     -9.23
    0   12   20     -3.48     -1.24
   12   12   20     14.82    -13.05
   11   13   20      1.39     -6.53
    9   13   20     -5.64     -8.69
    7   13   20    -10.04     -6.93
    5   13   20      4.59     -4.27
    3   13   20      8.29      7.34
    1   13   20    -11.32     -2.35
   13   13   20      5.11     -2.24
   12   14   20    -11.68     -3.60
   10   14   20     -1.56     -7.65
    8   14   20    -12.86     -1.24
    6   14   20      0.31      5.19
    4   14   20     -0.04     -2.99
    2   14   20      0.44      1.68
    0   14   20      6.78     -1.58
   14   14   20      9.38     -4.97
   13   15   20     -2.90     -5.14
   11   15   20    -15.41     -7.22
    9   15   20      9.38     -7.98
    7   15   20     -5.23     -2.86
    5   15   20      1.93      1.09
    3   15   20     11.47      2.86
    1   15   20    -10.31      9.20
   15   15   20      7.38      2.14
   14   16   20      1.29     21.21
   12   16   20      7.79     -1.38
   10   16   20    -10.59     -0.98
    8   16   20      2.94     -3.84
    6   16   20     -8.32     17.79
    4   16   20     -4.69     -6.52
    2   16   20     -1.92     -1.24
    0   16   20     -2.33     -1.43
   16   16   20      0.72     30.93
   15   17   20    -17.84     18.85
   13   17   20      7.58     15.64
   11   17   20      3.47      8.46
    9   17   20     -1.27     -3.37
    7   17   20      5.94      4.54
    5   17   20    -10.67      4.54
    3   17   20     -1.32      7.35
    1   17   20     -1.18      4.16
   17   17   20     20.18     16.41
   16   18   20     -6.39     -1.37
   14   18   20    -17.70     13.91
   12   18   20     15.20      3.92
   10   18   20     -1.38     10.03
    8   18   20      6.72     -1.78
    6   18   20     12.57      6.04
    4   18   20     -7.78     -0.22
    2   18   20     -3.44     10.11
    0   18   20     -0.65     -2.23
   13   19   20    -10.05     11.51
   11   19   20    -10.17     11.09
    9   19   20      8.91      6.25
    7   19   20      1.21      8.34
    5   19   20      7.39     -5.64
    3   19   20     -4.90      4.39
    1   19   20     -0.81      5.97
   12   20   20      0.76     -0.47
   10   20   20      6.23     -2.18
    8   20   20      2.95     -4.86
    6   20   20     -6.86      1.23
    4   20   20     -3.95     -1.96
    2   20   20     -8.02      0.63
    0   20   20      1.65     -0.79
   11   21   20     -6.23      7.08
    9   21   20     -5.82     -4.46
    7   21   20     -9.48      1.59
    5   21   20     -6.30     -0.07
    3   21   20     -7.71      0.75
    1   21   20      2.75      2.92
    8   22   20     -8.93     -4.72
    6   22   20     -6.87     -0.63
    4   22   20     -5.91     -0.85
    2   22   20     -3.27      3.81
    0   22   20     14.87     -3.17
    7   23   20     15.59      3.35
    5   23   20      5.52     13.47
    3   23   20     -9.60      2.76
    1   23   20     -2.29     -5.64
    2   24   20     -7.45     -8.29
    0   24   20     -2.55     -8.74
    0    1   21    -13.18     -3.80
    1    2   21     11.47    -38.91
    2    3   21    -13.02      9.18
    0    3   21      0.40      2.64
    3    4   21    -27.37      0.74
    1    4   21     35.45    -14.53
    4    5   21     16.47    -29.09
    2    5   21      7.92     11.06
    0    5   21    -14.25     -2.58
    5    6   21     -3.92     -8.53
    3    6   21     16.14      5.33
    1    6   21    -41.23      1.09
    6    7   21    -13.01     10.34
    4    7   21      5.26     -2.57
    2    7   21     28.11      5.66
    0    7   21    -22.61     -0.60
    7    8   21     -7.13      9.15
    5    8   21    -28.22     -2.25
    3    8   21    -11.57      2.06
    1    8   21    -10.68    -10.99
    8    9   21     -5.06    -15.35
    6    9   21      0.78      8.13
    4    9   21    -17.34     -8.46
    2    9   21     14.22    -22.86
    0    9   21      6.59     -0.48
    9   10   21      4.77      4.68
    7   10   21     -0.80     -5.37
    5   10   21     -5.39     12.05
    3   10   21    -13.12     11.54
    1   10   21      5.57     -7.33
   10   11   21     -5.14     -0.72
    8   11   21     -7.36     -1.78
    6   11   21    -17.32    -10.79
    4   11   21      0.12     14.05
    2   11   21     -4.08     13.99
    0   11   21     -2.58      1.23
   11   12   21      0.06      1.10
    9   12   21     -1.94      6.76
    7   12   21     -1.89     -3.63
    5   12   21      1.27     -1.22
    3   12   21     -5.85     16.54
    1   12   21      7.09     12.26
   12   13   21     -3.19      7.39
   10   13   21     -4.65      3.98
    8   13   21      4.69     -0.08
    6   13   21    -13.67      4.09
    4   13   21      2.71     -3.01
    2   13   21      0.55     14.61
    0   13   21     -7.10      0.29
   13   14   21      3.26     -1.99
   11   14   21     -2.74      9.19
    9   14   21     -0.35     -6.09
    7   14   21      0.08      1.51
    5   14   21     -9.68      1.20
    3   14   21    -10.72    -13.38
    1   14   21     -2.13      4.62
   14   15   21     -5.00     -5.36
   12   15   21      8.01      3.50
   10   15   21     -5.28     -3.37
    8   15   21      2.16      1.63
    6   15   21     -6.72      0.20
    4   15   21     -8.77      4.64
    2   15   21     -1.46     -6.24
    0   15   21      7.55      0.13
   15   16   21     -5.48     10.08
   13   16   21     11.33     -5.81
   11   16   21      6.69      0.46
    9   16   21     -5.20     -8.17
    7   16   21     -5.77    -15.77
    5   16   21      0.66     -1.23
    3   16   21     -9.99     -2.65
    1   16   21     -0.48     -1.64
   16   17   21    -11.65     10.74
   14   17   21     13.48     -2.65
   12   17   21      4.75      1.73
   10   17   21      9.62      2.80
    8   17   21      4.23      7.72
    6   17   21      2.50    -11.84
    4   17   21     13.03     -0.45
    2   17   21     -4.61     -3.55
    0   17   21     -4.30      0.31
   15   18   21     -1.37      4.85
   13   18   21      0.66     17.19
   11   18   21     -4.34     13.49
    9   18   21      2.35      3.62
    7   18   21     -6.71     -5.47
    5   18   21      0.98     -2.41
    3   18   21      2.03     -6.60
    1   18   21     -3.41     -3.27
   14   19   21     -5.77    -12.92
   12   19   21      3.83     21.43
   10   19   21     12.31    -10.69
    8   19   21     10.24      5.19
    6   19   21     -2.55      9.19
    4   19   21     -3.58      1.04
    2   19   21     -0.71      2.10
    0   19   21     -9.88      1.09
   13   20   21    -17.98     11.77
   11   20   21     -8.24      6.05
    9   20   21    -12.52    -16.45
    7   20   21      3.36     -2.33
    5   20   21     -1.67     -5.76
    3   20   21     13.21     -2.63
    1   20   21     18.32      1.54
   10   21   21     -6.70    -10.54
    8   21   21      9.80      2.77
    6   21   21      4.66      0.08
    4   21   21     -2.61      6.64
    2   21   21     -3.02      3.40
    0   21   21      0.10      1.58
    9   22   21      1.78      7.30
    7   22   21     -6.42     -1.91
    5   22   21     -4.38     -4.00
    3   22   21    -11.36     -5.15
    1   22   21      0.93     -7.00
    6   23   21      3.36     -3.51
    4   23   21     -3.77      3.79
    2   23   21    -11.05      1.37
    0   23   21      0.99      1.95
    0    0   22    -12.00      0.24
    1    1   22      7.74      0.12
    0    2   22     14.46     -0.58
    2    2   22      9.49     -8.17
    1    3   22    -13.99     22.29
    3    3   22    -12.01     46.57
    2    4   22    -31.42     12.87
    0    4   22    -30.29     -2.52
    4    4   22    -11.20     26.85
    3    5   22     -4.03     24.44
    1    5   22    -10.90     -2.10
    5    5   22      5.72    -28.80
    4    6   22      2.56     -5.23
    2    6   22     11.06      0.39
    0    6   22     11.81      3.18
    6    6   22      5.78     -1.21
    5    7   22     -0.59     16.91
    3    7   22    -13.05     -9.00
    1    7   22    -21.54     -1.49
    7    7   22      1.40     11.80
    6    8   22     -0.87     19.41
    4    8   22      4.06      5.91
    2    8   22    -11.79      1.99
    0    8   22     -6.85      1.23
    8    8   22     23.04    -23.41
    7    9   22    -13.03     -4.84
    5    9   22     -4.32     11.24
    3    9   22     -0.80     -7.40
    1    9   22     -0.49      0.81
    9    9   22    -10.40     -5.67
    8   10   22      0.90     -8.28
    6   10   22    -15.66     -7.59
    4   10   22      0.55     -4.57
    2   10   22    -19.19      9.37
    0   10   22     13.59      1.15
   10   10   22      2.26    -13.97
    9   11   22     -5.65      1.55
    7   11   22    -12.90      5.78
    5   11   22     -8.80     -1.04
    3   11   22     -6.30     -7.12
    1   11   22      3.82      2.74
   11   11   22      3.16      0.92
   10   12   22     -2.86     -5.08
    8   12   22     -0.83     -1.86
    6   12   22      4.53     -1.69
    4   12   22     -1.42      2.19
    2   12   22    -15.16     -0.52
    0   12   22      4.57     -0.48
   12   12   22     -6.69      7.80
   11   13   22     -0.75     -0.39
    9   13   22     -5.08      1.33
    7   13   22      7.69     -5.52
    5   13   22      0.32     -3.02
    3   13   22     -3.27     -5.98
    1   13   22     -7.24     -9.69
   13   13   22     -0.40     -3.42
   12   14   22      3.48     -7.84
   10   14   22     -5.86      1.46
    8   14   22     -1.02     -4.36
    6   14   22     -0.41      3.34
    4   14   22      9.68      6.39
    2   14   22      6.68     -4.52
    0   14   22      6.34     -3.36
   14   14   22     -4.32     -8.79
   13   15   22      3.57    -14.50
   11   15   22      3.76     -4.42
    9   15   22     -2.04      0.66
    7   15   22     -6.89     -3.75
    5   15   22     -7.94     -4.75
    3   15   22      1.97      4.39
    1   15   22     -2.04     -0.83
   15   15   22     15.96     -5.85
   14   16   22      7.58     -4.38
   12   16   22     -5.02      5.35
   10   16   22      1.54      3.99
    8   16   22     -4.65      2.86
    6   16   22      2.40     -1.89
    4   16   22     -0.86    -13.33
    2   16   22      6.02     -1.56
    0   16   22      2.15     -7.46
   16   16   22     10.22      9.09
   15   17   22      9.73     -2.95
   13   17   22     -9.65     -0.10
   11   17   22     -0.95      3.00
    9   17   22     -8.40     -4.53
    7   17   22      3.31     13.51
    5   17   22     -8.66     -0.27
    3   17   22     -8.81      1.55
    1   17   22     -2.67      6.84
   14   18   22      1.72      6.02
   12   18   22      4.69     14.46
   10   18   22     -0.76     -4.85
    8   18   22      0.84     -5.61
    6   18   22      5.87     -0.44
    4   18   22     -4.84     -2.35
    2   18   22     -4.58     -0.20
    0   18   22      2.93     -2.09
   13   19   22      2.86      6.07
   11   19   22     -7.55     11.00
    9   19   22     -7.20      5.30
    7   19   22      2.57      9.98
    5   19   22      2.74      0.55
    3   19   22      2.80     -1.05
    1   19   22     10.95      3.12
   12   20   22      1.64      9.95
   10   20   22      6.74      6.67
    8   20   22    -13.56     -4.38
    6   20   22     -4.74     -2.76
    4   20   22    -11.89     -8.47
    2   20   22    -11.17     -1.42
    0   20   22      7.81      1.14
    9   21   22     -7.85      0.33
    7   21   22    -11.70     -3.33
    5   21   22     12.79     -1.94
    3   21   22     -1.14      0.39
    1   21   22      2.11     -1.49
    8   22   22    -22.97    -13.00
    6   22   22     -2.84     -3.43
    4   22   22      1.23      3.09
    2   22   22     10.08     -0.07
    0   22   22     13.95     -1.27
    5   23   22      7.61      7.69
    3   23   22     12.66      8.94
    1   23   22      1.75    -10.22
    0    1   23     -5.96      0.61
    1    2   23    -32.36     26.53
    2    3   23     -3.37      8.87
    0    3   23     -0.13     -1.32
    3    4   23      5.92    -13.39
    1    4   23      0.71      0.71
    4    5   23    -20.33     -3.53
    2    5   23      7.61      7.01
    0    5   23     12.35     -4.54
    5    6   23    -14.13     19.91
    3    6   23     -9.93    -18.60
    1    6   23     10.61     11.26
    6    7   23      9.52     -1.16
    4    7   23      4.69      7.27
    2    7   23     -2.95     -6.57
    0    7   23     29.17     -2.86
    7    8   23     -6.57     15.59
    5    8   23      9.59      3.03
    3    8   23      0.15     15.68
    1    8   23     -0.31      4.76
    8    9   23      7.24      1.95
    6    9   23     -8.49      4.58
    4    9   23     -3.93     11.56
    2    9   23    -10.43      0.72
    0    9   23     -3.42     -2.06
    9   10   23     10.03     -9.80
    7   10   23     -4.86      7.92
    5   10   23    -12.05     10.34
    3   10   23     12.66     10.01
    1   10   23     11.85     10.58
   10   11   23     -6.31     14.28
    8   11   23      1.74     -0.11
    6   11   23      2.10      4.45
    4   11   23    -20.11     -8.99
    2   11   23      6.53     -7.22
    0   11   23    -10.18     -1.14
   11   12   23     -4.04     12.99
    9   12   23     -6.32      3.39
    7   12   23      8.93      6.29
    5   12   23      5.05     -6.42
    3   12   23     -8.02      2.54
    1   12   23     -8.82      1.43
   12   13   23      3.83      5.80
   10   13   23     -6.80      1.37
    8   13   23     -7.72      5.34
    6   13   23      7.49      2.78
    4   13   23     -4.03      6.36
    2   13   23     -2.61     13.54
    0   13   23      8.01     -0.98
   13   14   23     -3.82     -1.27
   11   14   23      0.02      9.55
    9   14   23     -5.63    -12.05
    7   14   23     -3.87     -2.19
    5   14   23      0.35     -5.60
    3   14   23     -3.90     10.23
    1   14   23    -12.94      9.90
   14   15   23      7.50     -7.39
   12   15   23    -12.47      1.46
   10   15   23     -2.35     -0.33
    8   15   23     -4.37      4.03
    6   15   23     -2.00      7.24
    4   15   23      1.25     -8.34
    2   15   23      1.76     -7.29
    0   15   23      0.02     -0.12
   15   16   23    -24.54      1.80
   13   16   23     14.05      6.37
   11   16   23     -6.04      4.34
    9   16   23     -5.58     -5.35
    7   16   23     -4.91     -2.66
    5   16   23     -9.31      1.92
    3   16   23     -1.90      3.30
    1   16   23    -14.60      0.47
   16   17   23      1.00     13.37
   14   17   23      2.58      6.33
   12   17   23     21.64      0.14
   10   17   23    -15.23     13.39
    8   17   23      0.24     -6.48
    6   17   23     -2.67     13.52
    4   17   23     -8.07     -5.89
    2   17   23     -1.07     -5.60
    0   17   23      8.81      0.20
   15   18   23     -6.67    -13.21
   13   18   23      0.16     -4.45
   11   18   23     -4.65      5.74
    9   18   23     -7.04     -1.84
    7   18   23      4.67     -5.59
    5   18   23      5.28     -2.76
    3   18   23    -10.98     -0.88
    1   18   23      5.21      4.45
   12   19   23      3.82      1.30
   10   19   23      5.52      8.28
    8   19   23     -4.35     15.14
    6   19   23      2.26     14.08
    4   19   23      1.87     -1.65
    2   19   23    -11.58      3.44
    0   19   23     -8.58     -0.42
   11   20   23     -2.64      8.13
    9   20   23     -6.89      1.30
    7   20   23     -5.44     -0.29
    5   20   23      4.99     -2.15
    3   20   23     -2.25    -10.70
    1   20   23      7.22     -1.80
   10   21   23     -7.86      0.16
    8   21   23     -7.87      3.11
    6   21   23     -5.32      5.04
    4   21   23     -7.74      4.43
    2   21   23    -12.31     -2.89
    0   21   23     -6.53      0.48
    7   22   23     -0.26     -6.41
    5   22   23     -1.25      3.61
    3   22   23     -7.83    -11.44
    1   22   23     10.50      0.50
    4   23   23     -9.08      9.05
    2   23   23    -13.61      2.12
    0   23   23    -10.47     -1.78
    0    0   24    -60.87     -3.46
    1    1   24    -13.77    -36.75
    0    2   24     13.54      3.14
    2    2   24     -1.38    -37.36
    1    3   24      4.59      5.23
    3    3   24    -41.53     -0.64
    2    4   24      2.38      8.04
    0    4   24     36.27      4.89
    4    4   24     14.79    -12.73
    3    5   24     -1.69      6.25
    1    5   24     -7.58     10.50
    5    5   24     26.41     -5.07
    4    6   24     24.67      0.27
    2    6   24     -7.83      7.69
    0    6   24    -11.97     -0.13
    6    6   24     10.23     19.71
    5    7   24     13.65      0.43
    3    7   24      7.23      8.01
    1    7   24    -12.13     -8.49
    7    7   24     22.23     22.26
    6    8   24      8.07     22.92
    4    8   24     -6.73    -12.46
    2    8   24     13.60     -0.03
    0    8   24     -5.16      2.01
    8    8   24     10.43      2.48
    7    9   24      0.03      3.71
    5    9   24     -9.80     14.70
    3    9   24     -5.19      1.43
    1    9   24     11.71     -7.50
    9    9   24      3.69      5.40
    8   10   24      5.13      4.38
    6   10   24     -6.23     -0.39
    4   10   24     -4.24      6.00
    2   10   24     -8.71     -1.22
    0   10   24     -6.37      0.01
   10   10   24      3.83     -9.92
    9   11   24     -2.28      6.05
    7   11   24     -4.06      1.64
    5   11   24      1.49      4.42
    3   11   24     -4.38     16.65
    1   11   24      3.82     -1.16
   11   11   24      1.48      4.83
   10   12   24     -5.19      1.51
    8   12   24    -14.16     -0.78
    6   12   24     -6.68     -5.32
    4   12   24      4.89     10.68
    2   12   24      2.40     10.35
    0   12   24      2.56     -1.27
   12   12   24     -1.33     15.32
   11   13   24     -1.96      6.39
    9   13   24      9.14     13.40
    7   13   24      1.33      2.90
    5   13   24     -8.26     -6.11
    3   13   24    -11.13    -10.42
    1   13   24     -2.81     -2.12
   13   13   24      9.79     11.23
   12   14   24     10.79      1.13
   10   14   24     -5.32     -0.19
    8   14   24      8.57      4.71
    6   14   24      3.31      2.14
    4   14   24     -0.94    -10.59
    2   14   24      1.13     -3.63
    0   14   24     -3.58      0.98
   14   14   24    -25.23     -0.36
   13   15   24     -4.90     -5.83
   11   15   24      5.65      2.55
    9   15   24     -0.53     -1.60
    7   15   24      2.43      2.05
    5   15   24      1.22      4.79
    3   15   24    -15.10    -10.80
    1   15   24      9.15      1.28
   15   15   24    -12.29     -3.55
   14   16   24    -12.65    -17.11
   12   16   24      2.21     -4.70
   10   16   24      1.13    -10.09
    8   16   24      2.03     -9.48
    6   16   24      1.71     -9.20
    4   16   24      2.80     -5.60
    2   16   24     -5.21     -0.39
    0   16   24     14.62     -2.04
   16   16   24     -0.26     14.10
   15   17   24     12.96    -10.97
   13   17   24      2.53    -20.53
   11   17   24     -6.33    -10.16
    9   17   24     -0.60      3.74
    7   17   24     -7.63     -3.21
    5   17   24     10.31     -2.26
    3   17   24     -0.18     -0.72
    1   17   24      3.38      3.68
   14   18   24      6.87     -0.42
   12   18   24      1.70      0.72
   10   18   24      5.60     -9.69
    8   18   24     -0.61     10.29
    6   18   24     -4.12    -10.77
    4   18   24      2.52      3.54
    2   18   24      3.13      2.79
    0   18   24      6.00     -0.16
   13   19   24     -1.00      2.85
   11   19   24     -5.27     -5.23
    9   19   24      1.64      0.78
    7   19   24     -2.53      3.82
    5   19   24     -5.77     -9.52
    3   19   24      3.08     -1.48
    1   19   24      1.11     -6.74
   10   20   24     -8.29     -8.53
    8   20   24     -1.10     -5.06
    6   20   24     -4.57      1.66
    4   20   24     -5.83      7.17
    2   20   24      0.43      1.62
    0   20   24      2.28      0.06
    9   21   24     -0.37      3.49
    7   21   24      0.02      5.02
    5   21   24      5.25     -7.00
    3   21   24     14.92     -2.55
    1   21   24      2.69     -4.78
    6   22   24     -4.48     12.69
    4   22   24     -4.33      4.60
    2   22   24    -10.06      3.39
    0   22   24     -9.57      1.91
    1   23   24      2.84      5.37
    0    1   25     31.49      0.71
    1    2   25    -18.17      0.97
    2    3   25     13.85      5.09
    0    3   25    -13.42     -1.26
    3    4   25     -6.26     17.45
    1    4   25     -5.33     -9.39
    4    5   25    -23.39     -8.44
    2    5   25     20.50     11.15
    0    5   25     31.52      0.14
    5    6   25     17.80    -26.02
    3    6   25    -11.21     -4.00
    1    6   25     32.93      3.47
    6    7   25      7.91     -5.86
    4    7   25     -5.86      2.55
    2    7   25    -10.41      0.44
    0    7   25     12.49     -3.56
    7    8   25      3.41     -0.52
    5    8   25      1.21      3.77
    3    8   25      8.65      2.30
    1    8   25      2.37      3.86
    8    9   25      1.63      3.71
    6    9   25     -0.08    -15.24
    4    9   25      8.95     -0.64
    2    9   25     -5.18     -3.64
    0    9   25      7.96      0.60
    9   10   25     -3.38      2.82
    7   10   25    -10.88      8.36
    5   10   25      6.94     -3.14
    3   10   25     10.94     12.28
    1   10   25      9.10      2.67
   10   11   25     -6.68      2.69
    8   11   25      2.75     -9.50
    6   11   25    -13.00      6.18
    4   11   25     -7.33     -2.26
    2   11   25    -11.22      3.53
    0   11   25      7.82     -2.22
   11   12   25      5.40     -2.39
    9   12   25     -1.43     -7.89
    7   12   25      7.06     -3.40
    5   12   25     -0.34      6.06
    3   12   25     -7.04     -1.62
    1   12   25    -12.12      6.65
   12   13   25     -0.57      1.43
   10   13   25     -2.13     -3.38
    8   13   25     10.63     -5.48
    6   13   25      4.34     -1.29
    4   13   25     -0.12    -11.61
    2   13   25    -11.45     -8.77
    0   13   25      0.90     -2.47
   13   14   25     -7.30     -8.48
   11   14   25     -1.46      7.48
    9   14   25      0.89     -1.09
    7   14   25     -0.73     -4.47
    5   14   25      0.58      6.91
    3   14   25      1.88      1.97
    1   14   25      3.90     -0.76
   14   15   25     -7.81    -12.12
   12   15   25     -5.09     -9.57
   10   15   25      1.23      0.82
    8   15   25      2.25      1.28
    6   15   25     -0.76     -6.22
    4   15   25      3.21     -0.32
    2   15   25      1.99     -4.26
    0   15   25      4.60     -1.65
   15   16   25     -5.10     -5.30
   13   16   25     -1.74     -8.90
   11   16   25     -2.23     -5.84
    9   16   25     -1.39      1.09
    7   16   25      3.13      4.41
    5   16   25     -4.52     -3.08
    3   16   25      7.73      9.89
    1   16   25      1.32      3.90
   14   17   25     10.35      2.31
   12   17   25     -2.18     -2.52
   10   17   25     -1.73     -7.71
    8   17   25     -0.27      7.03
    6   17   25      1.28      0.50
    4   17   25     -4.92     -3.52
    2   17   25     -3.10     -2.68
    0   17   25      3.13     -0.21
   13   18   25      5.79    -19.65
   11   18   25     -5.73     -5.71
    9   18   25      3.07      2.96
    7   18   25      7.43      5.32
    5   18   25     -5.10     -1.99
    3   18   25    -10.99      3.25
    1   18   25     -9.69      9.03
   12   19   25      7.15    -11.57
   10   19   25      3.36     14.01
    8   19   25      0.57     14.68
    6   19   25     -0.20      3.94
    4   19   25     -1.87     -8.08
    2   19   25     -0.37      6.86
    0   19   25      6.32     -0.49
   11   20   25      8.26      0.97
    9   20   25     -3.09      2.26
    7   20   25     -4.06     -3.97
    5   20   25      9.88     -4.05
    3   20   25    -14.14     -1.64
    1   20   25     -3.56      1.78
    8   21   25    -18.10     -0.71
    6   21   25     -1.61     -4.30
    4   21   25     -2.74     -6.16
    2   21   25     -5.23     -3.27
    0   21   25      3.48     -1.28
    5   22   25     10.77      7.89
    3   22   25     11.35      9.05
    1   22   25      9.62     -6.28
    0    0   26    -37.11      1.94
    1    1   26     11.00     -4.80
    0    2   26     17.43      4.78
    2    2   26     29.82      4.18
    1    3   26     -2.79     -4.50
    3    3   26    -25.94     -8.72
    2    4   26    -13.42      3.30
    0    4   26     14.31      2.26
    4    4   26      9.33     -3.98
    3    5   26      4.94    -12.73
    1    5   26    -15.01      2.14
    5    5   26    -15.36     -7.86
    4    6   26     -3.33      0.85
    2    6   26     11.41      9.00
    0    6   26     -4.65     -0.99
    6    6   26    -10.01      3.00
    5    7   26      5.32     -8.61
    3    7   26      5.92     10.23
    1    7   26     -4.58      6.71
    7    7   26     -0.98     -0.60
    6    8   26      5.53      3.19
    4    8   26      6.26     -5.64
    2    8   26    -13.72      1.77
    0    8   26     -9.37      0.81
    8    8   26      7.24     20.99
    7    9   26     -9.18      0.10
    5    9   26      5.21      3.81
    3    9   26     -5.22      6.56
    1    9   26      0.51      0.59
    9    9   26      9.78      0.82
    8   10   26      1.18     -3.23
    6   10   26    -11.34      6.70
    4   10   26     -2.63      3.88
    2   10   26      9.07     -7.35
    0   10   26      8.51     -0.41
   10   10   26     11.69      1.66
    9   11   26      3.94      3.83
    7   11   26     -0.96     -7.94
    5   11   26     -9.00      7.23
    3   11   26    -11.17     -4.42
    1   11   26     -0.60     -3.25
   11   11   26      3.38     17.11
   10   12   26      1.21      8.12
    8   12   26     -7.17      2.07
    6   12   26      3.89      2.75
    4   12   26      0.48      4.48
    2   12   26     -4.10     -9.57
    0   12   26      3.24     -1.79
   12   12   26     -3.81     11.52
   11   13   26     11.83      9.66
    9   13   26     -2.03     -8.06
    7   13   26      1.32      9.54
    5   13   26     -5.65     -4.67
    3   13   26     -1.15      8.54
    1   13   26      2.52      3.10
   13   13   26      1.52     -5.43
   12   14   26      2.45     -1.47
   10   14   26      7.66     -8.47
    8   14   26     -4.87     -3.42
    6   14   26      0.22     -0.23
    4   14   26     -6.53      0.19
    2   14   26     -5.36      1.34
    0   14   26     -9.83     -0.52
   14   14   26     -0.34     -8.19
   13   15   26      0.05     16.31
   11   15   26     -4.44      2.53
    9   15   26     -5.54     -0.40
    7   15   26     -0.33      4.63
    5   15   26      2.26     -4.30
    3   15   26      5.73     -5.60
    1   15   26     -2.88     -8.65
   15   15   26    -11.01      3.22
   14   16   26     -2.60     20.92
   12   16   26      2.72      4.54
   10   16   26     -2.22      3.04
    8   16   26      2.35     -7.98
    6   16   26     -0.93      4.11
    4   16   26      3.44     -0.79
    2   16   26      1.43    -11.60
    0   16   26    -14.85      0.92
   13   17   26      8.06      3.66
   11   17   26      0.10      7.60
    9   17   26     -3.48      6.78
    7   17   26     -3.58      0.87
    5   17   26      9.92     -0.44
    3   17   26      6.38      1.11
    1   17   26     -1.63     -4.81
   12   18   26      6.49     -1.61
   10   18   26     10.71     -0.17
    8   18   26      1.02     -1.78
    6   18   26     -4.15      0.98
    4   18   26     -0.63      1.14
    2   18   26     -0.24      9.82
    0   18   26      2.95     -0.32
   11   19   26      7.31     10.40
    9   19   26      6.42     12.56
    7   19   26     -1.65      7.11
    5   19   26     -4.30    -10.16
    3   19   26     -3.20     -4.24
    1   19   26      4.37      6.53
   10   20   26      4.82      5.86
    8   20   26     -0.25      4.46
    6   20   26     -2.24     -7.96
    4   20   26     -4.70      5.86
    2   20   26     -5.14      5.93
    0   20   26      7.74     -2.07
    7   21   26      4.74     -0.39
    5   21   26     -0.86     -5.23
    3   21   26     -3.38    -12.73
    1   21   26      8.08      5.05
    4   22   26     -9.99     -3.46
    2   22   26    -18.15    -12.40
    0   22   26     -8.50      0.89
    0    1   27     26.85      1.59
    1    2   27     -2.84    -20.90
    2    3   27      0.39    -26.77
    0    3   27     36.33     -1.73
    3    4   27     -0.85    -10.17
    1    4   27     15.77     16.59
    4    5   27     12.61     -0.98
    2    5   27      1.18     18.86
    0    5   27     11.78      0.61
    5    6   27     26.55    -17.26
    3    6   27     -5.19     10.25
    1    6   27     10.48      7.17
    6    7   27    -10.83    -21.09
    4    7   27     22.38    -19.09
    2    7   27      1.14      4.95
    0    7   27     23.93     -4.98
    7    8   27     -1.60      7.46
    5    8   27     -4.25      1.14
    3    8   27     14.95      1.82
    1    8   27     16.52      7.08
    8    9   27      2.79      2.65
    6    9   27     -1.09     12.09
    4    9   27     -9.41      4.46
    2    9   27     -2.41      4.27
    0    9   27     -0.03      0.93
    9   10   27      4.26      2.32
    7   10   27     12.42     11.06
    5   10   27      4.14     15.20
    3   10   27     -2.69      4.72
    1   10   27     -7.30      2.43
   10   11   27      2.43      2.46
    8   11   27     -0.97      6.76
    6   11   27      7.66     -2.56
    4   11   27      6.11      7.90
    2   11   27      0.66     -5.12
    0   11   27      2.08     -1.50
   11   12   27     -1.69      2.99
    9   12   27     14.61     -2.22
    7   12   27     -0.44     -0.81
    5   12   27      3.29      3.71
    3   12   27     -2.59     13.65
    1   12   27     -8.91     -8.46
   12   13   27      0.92     -1.74
   10   13   27     -9.04      3.49
    8   13   27      9.41      2.54
    6   13   27      0.60     -1.04
    4   13   27     -6.22     -7.81
    2   13   27     -4.06     -3.34
    0   13   27    -19.60      1.49
   13   14   27     -9.62      6.35
   11   14   27     -9.14     -0.48
    9   14   27     10.69      8.83
    7   14   27      7.18      1.05
    5   14   27      7.49      3.31
    3   14   27      1.20     -7.88
    1   14   27      7.22     -2.04
   14   15   27    -19.32     -5.57
   12   15   27      0.10      0.62
   10   15   27      1.01     -2.13
    8   15   27     -0.84      2.87
    6   15   27      2.48      7.00
    4   15   27     11.53     -7.67
    2   15   27     -5.37      5.79
    0   15   27      1.41     -1.63
   15   16   27      1.77      8.87
   13   16   27    -17.49     -4.37
   11   16   27      0.15     14.69
    9   16   27     -1.53      1.15
    7   16   27     -0.17      8.85
    5   16   27      9.22      2.29
    3   16   27     -1.13      0.18
    1   16   27     -2.36      7.96
   14   17   27      3.66      2.48
   12   17   27      2.64      3.98
   10   17   27      0.81     -0.59
    8   17   27    -12.22     15.65
    6   17   27     -7.12      4.17
    4   17   27      6.18      1.96
    2   17   27     -1.10      7.18
    0   17   27      2.45     -1.69
   13   18   27      1.33     14.30
   11   18   27      0.48     -4.94
    9   18   27     12.88     21.99
    7   18   27     -1.32     10.38
    5   18   27      9.66     -0.02
    3   18   27      4.12     10.13
    1   18   27    -10.99      2.22
   10   19   27      0.64      6.60
    8   19   27     13.48     11.12
    6   19   27      2.64      0.16
    4   19   27     -3.61      3.02
    2   19   27     -5.22      4.57
    0   19   27      0.79     -1.05
    9   20   27     -0.02      8.96
    7   20   27     15.18      3.17
    5   20   27      1.98      0.87
    3   20   27     -7.19     12.84
    1   20   27     -6.71      0.99
    6   21   27      0.64      4.04
    4   21   27     -6.59     -1.04
    2   21   27      4.61     18.00
    0   21   27     -1.33     -0.64
    3   22   27     11.71     32.30
    1   22   27      3.67     13.50
    0    0   28     85.88     -6.64
    1    1   28     50.21    -23.46
    0    2   28     -1.18      2.73
    2    2   28     29.32      6.01
    1    3   28    -18.31    -14.93
    3    3   28     33.09      9.89
    2    4   28     12.65     -1.59
    0    4   28     -9.01      0.37
    4    4   28      8.01    -13.28
    3    5   28      5.13     -7.12
    1    5   28     26.07    -12.31
    5    5   28      6.74    -39.44
    4    6   28     -3.01    -13.29
    2    6   28     -0.61      0.06
    0    6   28     35.08     -0.10
    6    6   28     23.04     -5.90
    5    7   28      0.63     -1.46
    3    7   28     -1.30     -5.21
    1    7   28      9.19      2.73
    7    7   28      2.30      4.82
    6    8   28      7.47     -2.23
    4    8   28     -4.42      3.17
    2    8   28      1.11    -12.48
    0    8   28      3.59      1.13
    8    8   28     -0.57     10.69
    7    9   28    -12.94     -1.31
    5    9   28      7.27    -12.96
    3    9   28      6.11      8.86
    1    9   28     13.55    -14.66
    9    9   28      7.01      8.35
    8   10   28     22.21     -3.15
    6   10   28      4.94      1.74
    4   10   28     13.70      9.75
    2   10   28      6.33      1.17
    0   10   28     12.08     -0.08
   10   10   28      3.70      2.12
    9   11   28     -5.01     -5.04
    7   11   28      6.22     -9.14
    5   11   28     -2.66      4.77
    3   11   28     -6.41      6.94
    1   11   28     -8.38      4.03
   11   11   28     11.53     -8.52
   10   12   28      0.23     -5.02
    8   12   28      5.65     -3.29
    6   12   28     -0.29      5.60
    4   12   28      6.86     -2.76
    2   12   28      6.94     -0.93
    0   12   28     15.05      0.14
   12   12   28      8.15     -1.58
   11   13   28     24.57     -6.65
    9   13   28      1.32     -5.15
    7   13   28     -2.13     -2.95
    5   13   28      2.54      6.79
    3   13   28      8.79     -3.55
    1   13   28      4.12      5.30
   13   13   28      7.51    -19.92
   12   14   28     -6.22     -0.99
   10   14   28      0.52      5.00
    8   14   28      4.98      1.33
    6   14   28      0.18     -7.12
    4   14   28      8.82      8.74
    2   14   28      7.17     -6.28
    0   14   28      7.82     -1.65
   14   14   28     -1.04    -10.99
   13   15   28      6.80     -2.11
   11   15   28     -8.44     -5.56
    9   15   28      1.66      6.94
    7   15   28     -5.68     -2.71
    5   15   28      1.54     -0.30
    3   15   28     15.83      3.43
    1   15   28      7.33     -0.46
   15   15   28     -0.45    -13.69
   14   16   28      7.19      1.19
   12   16   28      0.86      9.34
   10   16   28      3.83     -4.42
    8   16   28      6.69      4.17
    6   16   28     -2.19     -7.66
    4   16   28     10.71      3.13
    2   16   28      2.86      0.51
    0   16   28     -5.81      2.48
   13   17   28     10.26      9.06
   11   17   28     -0.80      1.92
    9   17   28      7.55      1.88
    7   17   28      3.61      1.71
    5   17   28     10.75      4.31
    3   17   28      5.22     -3.69
    1   17   28     -5.92      0.94
   12   18   28      3.62      7.34
   10   18   28      1.70      0.48
    8   18   28     10.40      1.07
    6   18   28      2.43      0.73
    4   18   28     -2.00     -2.23
    2   18   28     -9.38     -5.21
    0   18   28      0.36      1.64
   11   19   28      1.81      9.81
    9   19   28      0.83      4.31
    7   19   28     13.54     -0.03
    5   19   28      9.35      1.82
    3   19   28     -3.96      2.60
    1   19   28      7.15      1.49
    8   20   28      1.55    -11.11
    6   20   28      7.42    -17.41
    4   20   28     -5.05     -1.82
    2   20   28     -7.22      0.23
    0   20   28      0.79      0.99
    5   21   28      2.43     -1.64
    3   21   28      1.58      2.35
    1   21   28     23.34      1.18
    0   22   28      1.09      0.00
    0    1   29    -16.64      1.74
    1    2   29     13.25     17.67
    2    3   29    -18.70    -11.03
    0    3   29     21.14     -0.54
    3    4   29    -12.42      3.12
    1    4   29    -12.06      5.64
    4    5   29     14.04     10.35
    2    5   29      9.19     -4.30
    0    5   29    -20.77      3.97
    5    6   29    -11.94    -10.37
    3    6   29     16.83      2.01
    1    6   29     -0.37      3.03
    6    7   29    -15.67     -0.27
    4    7   29     -4.46    -10.96
    2    7   29      3.40      8.37
    0    7   29      3.50      1.98
    7    8   29     -4.56      3.49
    5    8   29      4.22      8.81
    3    8   29    -14.27      3.17
    1    8   29      5.34     -1.58
    8    9   29     -1.56      0.98
    6    9   29     -3.42     -4.98
    4    9   29      6.31     -3.20
    2    9   29    -12.55    -16.10
    0    9   29      7.27     -2.05
    9   10   29     -0.75      2.17
    7   10   29     -4.37     -4.94
    5   10   29     -6.19      3.89
    3   10   29      4.97     -9.51
    1   10   29      2.36     -3.05
   10   11   29     11.91      8.69
    8   11   29     -2.55      1.55
    6   11   29      5.28     -3.44
    4   11   29     11.02      0.06
    2   11   29      3.43     -7.76
    0   11   29     -2.70     -1.01
   11   12   29     -0.04      3.98
    9   12   29     16.31     -1.27
    7   12   29      6.58     -3.30
    5   12   29      5.96     -4.36
    3   12   29      0.44      3.20
    1   12   29    -15.31     -2.03
   12   13   29      3.95      1.25
   10   13   29     -3.46     -4.28
    8   13   29     -4.91     -1.61
    6   13   29      7.06     -0.25
    4   13   29      8.10     -4.85
    2   13   29      0.17     -1.38
    0   13   29      2.07      0.57
   13   14   29     10.86      6.43
   11   14   29      4.68      7.86
    9   14   29     -1.32    -11.70
    7   14   29      4.67      0.94
    5   14   29      1.75     -8.39
    3   14   29     -3.72     11.66
    1   14   29      1.73      5.55
   14   15   29     19.17      4.79
   12   15   29     -1.98      8.76
   10   15   29     -1.13     -0.16
    8   15   29     -8.67     -4.99
    6   15   29     -2.86      2.25
    4   15   29      0.49      1.29
    2   15   29      0.47      1.23
    0   15   29      2.16      0.64
   13   16   29     -1.07     30.27
   11   16   29    -13.35     19.85
    9   16   29     -1.25      1.95
    7   16   29      2.03     -5.07
    5   16   29      3.45     -8.36
    3   16   29      2.80     -2.40
    1   16   29      2.76    -17.29
   12   17   29     -2.85     -2.49
   10   17   29     -1.18      1.01
    8   17   29    -13.58      2.02
    6   17   29     -1.48      1.51
    4   17   29      1.60      7.18
    2   17   29      7.29     -8.97
    0   17   29    -10.03     -2.01
   11   18   29     10.04     13.58
    9   18   29      2.51     -1.11
    7   18   29      0.15      2.62
    5   18   29      4.77     -0.54
    3   18   29     12.35     -5.86
    1   18   29     -5.95     -5.12
   10   19   29      2.15      6.46
    8   19   29     -0.53     -2.98
    6   19   29      5.20      3.31
    4   19   29     -0.44      9.31
    2   19   29      5.95     -6.31
    0   19   29      7.68     -2.19
    7   20   29      6.21     -4.68
    5   20   29      6.93      0.21
    3   20   29      6.43      1.58
    1   20   29     12.14      1.79
    4   21   29      1.72      0.27
    2   21   29     -8.29      7.21
    0   21   29      3.32     -1.99
    0    0   30     23.38      0.89
    1    1   30    -14.37    -19.93
    0    2   30      3.59      1.32
    2    2   30     -8.48    -16.56
    1    3   30     -5.23     -8.11
    3    3   30      5.12     26.80
    2    4   30      4.13     11.43
    0    4   30      3.75     -1.79
    4    4   30      5.42    -13.01
    3    5   30    -11.84      3.31
    1    5   30      3.81     16.45
    5    5   30      6.94      4.85
    4    6   30     10.12     -0.77
    2    6   30     -7.14     -6.22
    0    6   30     18.68     -0.02
    6    6   30     22.25    -12.22
    5    7   30      8.02    -10.41
    3    7   30      3.77    -12.84
    1    7   30     18.72    -11.47
    7    7   30     -5.41     -5.99
    6    8   30     13.59      8.14
    4    8   30      7.31     -2.24
    2    8   30      0.57     -4.71
    0    8   30     -1.75      0.89
    8    8   30     11.58      4.14
    7    9   30      1.27     11.61
    5    9   30      7.81     11.75
    3    9   30      0.78      3.48
    1    9   30      2.05     10.32
    9    9   30     -9.49     -3.31
    8   10   30      6.20     -4.42
    6   10   30     15.11     10.30
    4   10   30      2.88      2.90
    2   10   30      4.75      7.30
    0   10   30      4.95      2.43
   10   10   30     11.00     -6.00
    9   11   30     -1.75     -6.75
    7   11   30     -4.83     -6.01
    5   11   30     11.60     -9.85
    3   11   30      1.14     -0.66
    1   11   30     -1.65     -6.82
   11   11   30    -10.03      4.00
   10   12   30     -3.37      0.34
    8   12   30     11.39     -2.55
    6   12   30     -2.72     -5.18
    4   12   30      5.25     -9.13
    2   12   30     10.78      4.76
    0   12   30     -2.00      0.66
   12   12   30     -6.89     -2.00
   11   13   30    -23.51     -1.07
    9   13   30      0.57      7.03
    7   13   30      0.98      2.72
    5   13   30      2.16      3.67
    3   13   30      3.63      0.69
    1   13   30     -6.97      0.81
   13   13   30     -8.55     -3.02
   12   14   30    -12.78     11.38
   10   14   30     -9.17      5.67
    8   14   30     -1.23      3.33
    6   14   30     -2.73     -5.93
    4   14   30     -2.23     -6.60
    2   14   30      1.60     -4.80
    0   14   30     -0.59     -0.26
   14   14   30     13.87      9.90
   13   15   30    -16.11     -4.62
   11   15   30    -13.38      8.20
    9   15   30     -3.93      1.43
    7   15   30      4.41     -0.16
    5   15   30      8.28     -3.36
    3   15   30      1.03      0.57
    1   15   30      0.90      4.94
   15   15   30      4.20      2.49
   14   16   30      2.93     -5.62
   12   16   30     10.07     17.22
   10   16   30     -1.67      4.85
    8   16   30      0.24     -5.90
    6   16   30     -2.28     -5.56
    4   16   30     -3.84     -4.40
    2   16   30    -12.36     10.75
    0   16   30     -0.80      0.96
   11   17   30     -6.63     -2.68
    9   17   30      0.37     -8.63
    7   17   30      0.66     -0.09
    5   17   30      3.65      4.35
    3   17   30     -3.02      5.74
    1   17   30      2.65      2.32
   13   17   30      0.52      7.91
   10   18   30    -11.07     -7.76
    8   18   30      5.07     -1.14
    6   18   30      0.30     16.17
    4   18   30      9.74      4.99
    2   18   30     -2.58     -1.44
    0   18   30     -0.70      2.65
    9   19   30     -4.57     -2.90
    7   19   30     11.94     -0.78
    5   19   30     25.01      8.44
    3   19   30     -0.33      8.12
    1   19   30     -3.84     -4.52
    6   20   30     11.26     10.67
    4   20   30     -1.75     -6.88
    2   20   30     -6.89     -1.81
    0   20   30     -9.35      1.89
    3   21   30     -0.37     23.90
    1   21   30      8.43     12.55
    0    1   31     38.20      2.53
    1    2   31     13.75     10.48
    2    3   31     11.39     -3.36
    0    3   31    -21.20      3.05
    3    4   31      9.72      0.50
    1    4   31     -3.03     -4.92
    4    5   31     14.43      8.33
    2    5   31      5.88     -8.63
    0    5   31     33.51     10.95
    5    6   31      5.99     -2.93
    3    6   31     -7.89      2.27
    1    6   31     -1.33    -13.83
    6    7   31     12.36     16.45
    4    7   31     -1.78    -11.09
    2    7   31    -11.21     -5.53
    0    7   31      2.50      3.97
    7    8   31     -0.44     10.58
    5    8   31      4.70     -1.59
    3    8   31     -2.33     -7.33
    1    8   31      5.41     -3.70
    8    9   31      2.36      3.07
    6    9   31      4.25     -9.03
    4    9   31     13.85     -2.74
    2    9   31      2.24     -2.09
    0    9   31      2.77      1.64
    9   10   31     10.80     -0.54
    7   10   31      5.89      1.34
    5   10   31     10.04     -1.88
    3   10   31     14.95      6.90
    1   10   31      4.99      1.70
   10   11   31     -1.69     -3.75
    8   11   31     10.76      1.21
    6   11   31     11.12      2.61
    4   11   31     14.89      4.44
    2   11   31     -2.76     -4.51
    0   11   31      7.26     -2.69
   11   12   31     12.71      0.42
    9   12   31    -13.16     -8.30
    7   12   31      4.62      4.49
    5   12   31     -1.12     10.64
    3   12   31      4.83     -2.18
    1   12   31      5.93      2.24
   12   13   31     13.37     -3.73
   10   13   31      7.78    -12.76
    8   13   31     -1.36     -6.50
    6   13   31      4.97     -3.76
    4   13   31      3.25      6.50
    2   13   31      2.58     -9.49
    0   13   31      5.42     -1.71
   13   14   31     13.34     -4.11
   11   14   31      2.31    -14.36
    9   14   31      4.31      7.20
    7   14   31      3.40     -2.35
    5   14   31      2.38      4.36
    3   14   31     11.04     15.37
    1   14   31      9.03      0.95
   14   15   31      7.89     -5.05
   12   15   31      4.20     -7.99
   10   15   31     -6.52     -7.15
    8   15   31     15.41      1.30
    6   15   31     -3.91     -2.75
    4   15   31     -2.46      7.25
    2   15   31      7.36      2.18
    0   15   31      6.57      1.24
   13   16   31     12.90     10.33
   11   16   31     -9.36     -3.31
    9   16   31      8.19     -1.70
    7   16   31      3.34     -7.30
    5   16   31      7.37     12.80
    3   16   31      5.28      2.66
    1   16   31     14.37      4.94
   12   17   31     -9.57      7.87
   10   17   31      7.84     -2.62
    8   17   31      6.43      1.37
    6   17   31      7.96     -2.02
    4   17   31      2.31      8.75
    2   17   31      0.98      0.67
    0   17   31     26.24      1.65
    9   18   31     -3.15    -10.90
    7   18   31      8.60     -1.95
    5   18   31      4.55      5.64
    3   18   31     -5.14     -3.27
    1   18   31     16.81     -4.49
    8   19   31     -2.75     -8.90
    6   19   31      6.70     -1.70
    4   19   31      8.35      9.10
    2   19   31      1.95     -4.33
    0   19   31     13.16      1.68
    5   20   31     -0.02      3.74
    3   20   31     11.78     -3.12
    1   20   31      1.09     -0.65
    0   21   31      2.51     -0.12
    0    0   32     -8.78      4.48
    1    1   32    -19.32     17.72
    0    2   32      9.53      2.31
    2    2   32      4.70     19.42
    1    3   32     18.68      1.06
    3    3   32     -7.17      8.94
    2    4   32     10.27     -8.78
    0    4   32     21.64      0.11
    4    4   32     -0.64     12.96
    3    5   32      3.86     -9.40
    1    5   32      4.52     -4.84
    5    5   32     -6.80      1.35
    4    6   32      6.53     -8.35
    2    6   32     23.44      3.12
    0    6   32      3.38      2.39
    6    6   32      2.64     -7.48
    5    7   32     -3.86     -4.84
    3    7   32      1.23     -6.04
    1    7   32     15.32     14.90
    7    7   32    -10.26     -7.85
    6    8   32     -0.24     -3.65
    4    8   32      7.33      4.98
    2    8   32     -8.68     -0.69
    0    8   32      7.54     -0.17
    8    8   32      6.30      6.59
    7    9   32      4.25     -3.55
    5    9   32      0.14     -1.95
    3    9   32      5.41    -12.03
    1    9   32      3.36     -7.80
    9    9   32     -6.69    -15.17
    8   10   32      3.44    -10.08
    6   10   32      3.81     10.14
    4   10   32      5.12      2.09
    2   10   32     13.13      0.00
    0   10   32     -0.28      0.24
   10   10   32      5.35      0.41
    9   11   32     10.72     -2.54
    7   11   32     -4.05    -14.24
    5   11   32      0.87     -2.25
    3   11   32     10.98     -3.47
    1   11   32      0.21      4.04
   11   11   32     -2.22      6.04
   10   12   32     10.11     -0.60
    8   12   32     10.92     -2.34
    6   12   32      0.45     -1.55
    4   12   32      6.81     -8.12
    2   12   32      6.05     -4.69
    0   12   32     -4.25     -1.20
   12   12   32     -7.96     -6.69
   11   13   32    -22.45     11.75
    9   13   32      1.09     -4.62
    7   13   32      2.77      2.48
    5   13   32     12.44      0.48
    3   13   32     -1.63     -3.86
    1   13   32     -0.91      0.24
   13   13   32    -13.94     13.33
   12   14   32      0.63     11.44
   10   14   32      0.14    -13.35
    8   14   32     -1.41    -13.43
    6   14   32      0.50      3.53
    4   14   32      4.57     -6.87
    2   14   32     -2.09     -4.40
    0   14   32     11.73     -0.55
   14   14   32     37.39     10.53
   13   15   32     -0.61      6.18
   11   15   32     -9.17     10.55
    9   15   32      3.83     -9.10
    7   15   32      7.67      0.57
    5   15   32      0.09     -5.24
    3   15   32     -2.71      2.78
    1   15   32      7.13     -4.06
   12   16   32     -3.93      2.72
   10   16   32      2.55      2.14
    8   16   32      2.39     -5.89
    6   16   32      1.77     -9.44
    4   16   32     -8.55      2.66
    2   16   32      4.87     -5.38
    0   16   32     10.39     -0.56
   11   17   32     -1.56     -4.12
    9   17   32      4.73     -2.91
    7   17   32      5.03     -8.25
    5   17   32     -1.79     -7.03
    3   17   32      0.98      4.77
    1   17   32     -0.51     -5.49
   10   18   32      3.07      6.38
    8   18   32    -10.61     -2.99
    6   18   32      1.74     -1.88
    4   18   32      7.53      1.67
    2   18   32     13.73     -7.61
    0   18   32     -2.74      0.60
    7   19   32     -1.15     -5.73
    5   19   32      7.03      2.95
    3   19   32     11.30     -0.63
    1   19   32      6.24     -2.46
    4   20   32      4.70     -8.29
    2   20   32     11.33    -12.75
    0   20   32      0.78      0.48
    0    1   33     -6.37      3.45
    1    2   33     14.17    -36.55
    2    3   33     -0.59     -3.42
    0    3   33      3.03      2.37
    3    4   33      2.33      9.98
    1    4   33     -6.54     16.44
    4    5   33      2.79     -9.87
    2    5   33      7.74     16.96
    0    5   33     13.86      2.71
    5    6   33     -2.98     -1.82
    3    6   33     -1.57      5.33
    1    6   33      3.83    -10.14
    6    7   33      8.22    -13.75
    4    7   33      0.89     -7.57
    2    7   33     -2.53    -25.21
    0    7   33      4.13      2.66
    7    8   33      7.43     -8.45
    5    8   33     13.72     -0.60
    3    8   33     -1.77      3.88
    1    8   33     -1.07     -5.18
    8    9   33     -0.86     -1.74
    6    9   33      4.07      8.84
    4    9   33     -2.00     -8.98
    2    9   33     -0.92     10.62
    0    9   33      1.42      2.21
    9   10   33    -10.17     -3.68
    7   10   33     -4.25      0.56
    5   10   33      6.46     -1.39
    3   10   33     -1.80     -2.80
    1   10   33     16.82      1.89
   10   11   33     -8.68     -4.89
    8   11   33     -1.31     -7.81
    6   11   33      5.00      1.57
    4   11   33     -3.24     -2.67
    2   11   33     -7.02     -0.18
    0   11   33      8.45      2.19
   11   12   33    -15.47     17.82
    9   12   33     -7.41     -5.39
    7   12   33     -3.81      0.46
    5   12   33     -1.93      5.99
    3   12   33      2.17      7.08
    1   12   33     10.99      1.82
   12   13   33     -7.05      6.99
   10   13   33     -3.86      0.61
    8   13   33     -2.19     -7.65
    6   13   33    -10.68     -1.63
    4   13   33     -5.95      0.74
    2   13   33     -2.75     -5.12
    0   13   33     -2.79      1.28
   13   14   33     -2.48      1.16
   11   14   33    -13.08     -3.52
    9   14   33     -5.76      3.12
    7   14   33     -9.20      5.19
    5   14   33      1.80      7.41
    3   14   33      0.86      1.84
    1   14   33     -1.28     -5.70
   12   15   33     -5.54      7.57
   10   15   33      3.10     -1.92
    8   15   33     -1.31      1.27
    6   15   33      1.96     -6.43
    4   15   33     -1.51      0.71
    2   15   33     -5.48      0.86
    0   15   33      7.14      1.52
   11   16   33     11.37     -3.55
    9   16   33      8.94      1.07
    7   16   33      3.67     -0.89
    5   16   33      9.28     -4.64
    3   16   33     -0.94      1.38
    1   16   33     -0.61      8.29
   10   17   33      0.66     -0.45
    8   17   33      7.67      0.11
    6   17   33     -8.01      0.39
    4   17   33     -2.41     -2.24
    2   17   33      7.67     12.14
    0   17   33      8.72      2.65
    9   18   33     -0.40     -3.10
    7   18   33      6.75      8.98
    5   18   33      5.84      8.32
    3   18   33      0.78     14.04
    1   18   33      7.08      6.11
    6   19   33     -4.24     -2.53
    4   19   33      2.78    -11.32
    2   19   33     -6.10     -4.37
    0   19   33      4.31      1.82
    3   20   33     -8.19      1.91
    1   20   33     -7.94      2.58
    0    0   34     34.43      3.63
    1    1   34     21.77     12.42
    0    2   34     -0.74     -0.66
    2    2   34     -3.39     17.79
    1    3   34      3.05      1.44
    3    3   34     16.82    -18.07
    2    4   34     15.43    -12.85
    0    4   34     10.86      1.95
    4    4   34     14.15     14.35
    3    5   34      0.96     -0.63
    1    5   34      5.39     -9.36
    5    5   34     11.20     10.52
    4    6   34      6.30     -3.59
    2    6   34     -5.53      2.01
    0    6   34     11.25      2.17
    6    6   34     -4.62     -9.98
    5    7   34     -9.58     -3.32
    3    7   34     -2.46     -0.67
    1    7   34      3.13     12.53
    7    7   34      2.87     14.52
    6    8   34      2.78     -4.73
    4    8   34     -5.98     -2.20
    2    8   34     -1.91      5.23
    0    8   34      5.16     -2.19
    8    8   34      2.10     -4.71
    7    9   34      5.47     -6.08
    5    9   34      3.11      1.06
    3    9   34      1.23      2.37
    1    9   34      4.86      3.45
    9    9   34      1.61    -18.35
    8   10   34      4.04      2.18
    6   10   34      8.68      1.95
    4   10   34     12.53     15.29
    2   10   34     -3.83      4.32
    0   10   34      1.13     -1.04
   10   10   34      1.41      0.26
    9   11   34     -2.37    -13.80
    7   11   34     -2.08      3.21
    5   11   34      0.28     -1.02
    3   11   34      9.27     -3.69
    1   11   34      9.40     -1.31
   11   11   34     10.87      5.78
   10   12   34      9.54    -12.30
    8   12   34     -1.18     -6.75
    6   12   34     10.91      4.13
    4   12   34      4.82      2.61
    2   12   34     -2.03     -8.27
    0   12   34     -2.90     -1.47
   12   12   34      4.95      4.30
   11   13   34     14.39     -1.14
    9   13   34      1.10    -10.97
    7   13   34     -3.12     -4.97
    5   13   34      2.39      1.88
    3   13   34     -0.01      7.14
    1   13   34      7.36     -2.31
   13   13   34      6.24      9.17
   12   14   34      1.49    -15.41
   10   14   34      9.52     -2.69
    8   14   34     10.29      1.80
    6   14   34      3.04      1.34
    4   14   34     10.81      2.97
    2   14   34     13.85      1.42
    0   14   34      4.26     -0.99
   14   14   34    -23.87     -5.27
   13   15   34     15.19    -18.01
   11   15   34      0.45     -9.78
    9   15   34      4.52      1.98
    7   15   34     -0.04      2.84
    5   15   34     -3.42      3.56
    3   15   34      8.19      0.54
    1   15   34    -10.49     -5.75
   10   16   34     -7.20     -1.71
    8   16   34      1.87     11.93
    6   16   34      2.79     10.41
    4   16   34     11.81      5.01
    2   16   34      6.22     -5.99
    0   16   34      5.63     -0.29
    9   17   34      7.32     11.91
    7   17   34     -2.95      7.46
    5   17   34     -4.40      4.73
    3   17   34     -9.02      2.95
    1   17   34      7.15     -3.19
    8   18   34     -8.57      5.49
    6   18   34     -4.25     -6.49
    4   18   34     -0.17      1.30
    2   18   34     -7.79      3.68
    0   18   34     13.34      1.28
    5   19   34     -6.83     14.13
    3   19   34      4.37      9.04
    1   19   34      6.30      3.02
    0    1   35     -0.11     -2.10
    1    2   35     15.51      4.35
    2    3   35     13.14     -0.12
    0    3   35     11.98      4.74
    3    4   35      1.98      6.06
    1    4   35     -3.18     -8.91
    4    5   35      7.66     -8.82
    2    5   35      3.77     -4.21
    0    5   35      3.98     -4.40
    5    6   35      4.18      4.68
    3    6   35      6.93      1.70
    1    6   35      6.38     10.83
    6    7   35      3.24      0.29
    4    7   35     -7.88     -3.90
    2    7   35      1.91      4.69
    0    7   35     -0.81      3.76
    7    8   35      3.97      4.51
    5    8   35      0.20      6.36
    3    8   35     -6.31      6.45
    1    8   35     -6.57      5.90
    8    9   35      0.67      6.33
    6    9   35      0.53      9.69
    4    9   35     -6.13     -0.07
    2    9   35     -2.34     -1.41
    0    9   35     -0.21      2.37
    9   10   35     -6.92     -1.79
    7   10   35      5.29    -12.11
    5   10   35     -3.46      7.32
    3   10   35     -4.57      7.04
    1   10   35      2.67      0.79
   10   11   35      1.66      6.32
    8   11   35     -1.39     -6.01
    6   11   35     -1.44     -3.40
    4   11   35     -8.87      4.81
    2   11   35     -6.19      1.77
    0   11   35     -5.26      7.14
   11   12   35     -0.19      0.34
    9   12   35      9.02     12.81
    7   12   35     -7.21     -6.87
    5   12   35      4.55     -1.25
    3   12   35      4.40      1.67
    1   12   35      4.99      6.44
   12   13   35    -21.30     14.90
   10   13   35      4.38     -4.18
    8   13   35     -5.56      3.42
    6   13   35     -3.17      0.23
    4   13   35     13.58     -0.47
    2   13   35     -1.78      0.43
    0   13   35      1.30      1.81
   13   14   35      3.35      8.98
   11   14   35      4.83      2.79
    9   14   35      8.89     -9.98
    7   14   35     -5.69     -0.67
    5   14   35      7.12     -2.53
    3   14   35      2.64    -11.54
    1   14   35     -9.53      0.52
   12   15   35     -0.33      2.43
   10   15   35     -0.14     -6.75
    8   15   35     -4.97     -4.54
    6   15   35     -3.30     -3.48
    4   15   35      2.05      5.04
    2   15   35      6.58     -6.82
    0   15   35      9.20      0.46
   11   16   35     10.28     -8.27
    9   16   35     11.28      6.87
    7   16   35      1.75    -11.93
    5   16   35      7.64     -7.53
    3   16   35     -6.73      2.51
    1   16   35    -15.78     -4.56
    8   17   35     -9.65     -2.43
    6   17   35     -9.71     -3.08
    4   17   35      2.56      3.25
    2   17   35      2.01     -9.87
    0   17   35      0.17      1.13
    7   18   35      1.36      2.77
    5   18   35     10.51     -1.76
    3   18   35      4.34      3.47
    1   18   35     -8.39      1.93
    4   19   35    -11.42    -11.60
    2   19   35      7.49    -12.03
    0   19   35      2.94      0.48
    0    0   36     12.15      6.63
    1    1   36      8.21    -15.09
    0    2   36      1.01     -2.92
    2    2   36     -2.74    -19.07
    1    3   36     -8.65     -5.26
    3    3   36    -11.01     -5.06
    2    4   36     17.02     13.22
    0    4   36     -7.01      2.67
    4    4   36      0.69     -9.06
    3    5   36      5.16      4.13
    1    5   36     -1.31     14.15
    5    5   36    -11.73     -4.46
    4    6   36     -0.04     -0.62
    2    6   36      3.68     -7.33
    0    6   36     -4.30     -0.43
    6    6   36     -3.64     -6.70
    5    7   36      7.46     -3.34
    3    7   36     -7.36     -4.12
    1    7   36      0.70    -13.87
    7    7   36     -2.39     -7.18
    6    8   36      3.38      1.53
    4    8   36      8.06      2.35
    2    8   36     -6.94      0.43
    0    8   36     11.43     -2.45
    8    8   36      2.92     -0.41
    7    9   36     -7.23      0.50
    5    9   36     -3.15     -3.46
    3    9   36     -1.42     -3.88
    1    9   36      4.42      8.32
    9    9   36    -25.50     11.89
    8   10   36    -14.04     15.45
    6   10   36      4.76     -3.01
    4   10   36      9.18     -2.21
    2   10   36      2.15      4.80
    0   10   36      0.24     -1.12
   10   10   36    -16.78      2.38
    9   11   36    -18.03      0.04
    7   11   36     -3.21      1.47
    5   11   36     12.41     -3.69
    3   11   36      5.07      1.80
    1   11   36     15.51     -1.41
   11   11   36    -15.54      4.08
   10   12   36      4.46     -1.75
    8   12   36      8.20    -10.60
    6   12   36      2.64     -4.91
    4   12   36     -1.45      5.27
    2   12   36    -10.99      6.65
    0   12   36     -4.03      0.64
   12   12   36     25.06     16.83
   11   13   36     -0.32     10.36
    9   13   36     -4.84     -4.31
    7   13   36     -4.79     -4.25
    5   13   36     -1.85     -1.41
    3   13   36     -0.01      4.62
    1   13   36      7.19     -5.39
   13   13   36     17.68     12.49
   12   14   36      1.82      4.14
   10   14   36     13.81     -3.29
    8   14   36     -1.21     -1.65
    6   14   36     -2.46     -2.24
    4   14   36     10.72     -4.35
    2   14   36      2.11      2.92
    0   14   36     10.23      3.60
   11   15   36      6.10      6.21
    9   15   36      3.31      2.72
    7   15   36    -14.91      6.78
    5   15   36      1.35      0.26
    3   15   36     -0.21     -2.79
    1   15   36      1.82      1.93
   10   16   36     16.79     -4.28
    8   16   36     -4.88      6.71
    6   16   36     -1.11     -7.26
    4   16   36      8.25    -13.59
    2   16   36      1.35     -0.46
    0   16   36     -7.07      1.70
    7   17   36     -1.94      1.30
    5   17   36     -8.26      1.40
    3   17   36     -0.13      5.94
    1   17   36     -3.45      8.97
    6   18   36      2.73     -5.64
    4   18   36     -1.74     -3.33
    2   18   36      0.71      2.45
    0   18   36     -2.38      0.26
    0    1   37      0.89     -1.56
    1    2   37     -5.70     12.43
    2    3   37      3.03     17.30
    0    3   37     -8.86      3.94
    3    4   37     14.14     -2.66
    1    4   37    -10.98     -3.06
    4    5   37      6.22      7.75
    2    5   37    -17.42    -10.69
    0    5   37     10.95      0.92
    5    6   37      2.40      7.11
    3    6   37      0.37     -0.81
    1    6   37      5.78     -0.96
    6    7   37      5.03      1.59
    4    7   37     -8.73      1.89
    2    7   37     -2.44      8.81
    0    7   37     -4.92      0.48
    7    8   37      3.83     -1.73
    5    8   37     -9.18     -2.04
    3    8   37     -4.80      7.82
    1    8   37    -10.32      5.72
    8    9   37     -2.36     -8.17
    6    9   37      8.50     -1.74
    4    9   37     -3.34      7.62
    2    9   37     -0.24      2.55
    0    9   37      2.93      1.63
    9   10   37      3.70     -3.92
    7   10   37     -2.17      2.02
    5   10   37     -0.89      9.58
    3   10   37     -4.46     13.55
    1   10   37      0.56      4.04
   10   11   37     10.87    -10.97
    8   11   37     -2.13     -1.19
    6   11   37      1.87     -3.12
    4   11   37      0.46     -8.87
    2   11   37     -1.18     -5.92
    0   11   37    -15.06      1.40
   11   12   37     10.51    -14.86
    9   12   37      1.68    -15.32
    7   12   37     -2.69      8.38
    5   12   37     10.83     -9.12
    3   12   37     10.32     -4.17
    1   12   37     -0.30     -0.13
   12   13   37     -3.13     -6.16
   10   13   37     11.30     -9.21
    8   13   37     -4.00     -2.11
    6   13   37      7.12     -0.86
    4   13   37      2.82     -1.14
    2   13   37      5.16     -1.95
    0   13   37      1.03     -0.21
   11   14   37     14.95      5.47
    9   14   37      6.82     -2.42
    7   14   37     -4.90      0.19
    5   14   37      0.85     -4.58
    3   14   37      3.21      5.72
    1   14   37     -7.35     -3.51
   10   15   37    -10.77      5.16
    8   15   37     -3.45     -5.04
    6   15   37     -1.67     -0.23
    4   15   37      2.19     -3.46
    2   15   37      2.19     -5.68
    0   15   37    -18.81     -0.10
    9   16   37      4.51     -1.89
    7   16   37      1.14      1.73
    5   16   37     -5.64     -3.79
    3   16   37     -3.88     -1.66
    1   16   37    -14.42     -9.05
    6   17   37     -2.64      8.90
    4   17   37     -4.98     -0.32
    2   17   37    -10.53     -7.63
    0   17   37      3.48      0.66
    3   18   37    -10.91     11.85
    1   18   37    -15.44     -9.48
    0    0   38     -1.12      5.21
    1    1   38     -3.90     12.97
    0    2   38      8.87      0.96
    2    2   38     11.52     -2.84
    1    3   38      5.94      3.90
    3    3   38    -22.69     -2.98
    2    4   38     -3.63      1.11
    0    4   38     -4.50      4.15
    4    4   38     -4.13     10.63
    3    5   38      0.89      5.14
    1    5   38     -1.61      6.80
    5    5   38      3.98     -1.54
    4    6   38      3.85     -3.64
    2    6   38     -0.45      1.96
    0    6   38    -17.95      2.52
    6    6   38     -4.37     16.04
    5    7   38      1.98     -1.27
    3    7   38     -5.08     -8.96
    1    7   38     -9.30      4.85
    7    7   38     -1.34     -5.26
    6    8   38     13.82     11.22
    4    8   38     14.88      3.00
    2    8   38     -1.77      5.34
    0    8   38     -1.05      2.57
    8    8   38      2.91     20.09
    7    9   38      1.14     -0.02
    5    9   38      8.61    -12.55
    3    9   38     -0.07      1.54
    1    9   38     -5.99      4.33
    9    9   38     -8.01     12.51
    8   10   38      4.54      2.05
    6   10   38      4.84     -7.45
    4   10   38      5.83     -5.36
    2   10   38     -7.63      7.68
    0   10   38      4.25      2.03
   10   10   38      1.15     -1.30
    9   11   38     -3.14     13.20
    7   11   38      7.94     -5.45
    5   11   38     -1.37     -0.99
    3   11   38     -6.29      3.51
    1   11   38     -1.70      1.08
   11   11   38    -17.15     -4.26
   10   12   38      8.32     -6.50
    8   12   38     -1.31     -0.43
    6   12   38     -4.61     -4.17
    4   12   38      0.45     10.07
    2   12   38     -8.80      9.57
    0   12   38     -3.94      1.17
   12   12   38      4.68      4.25
   11   13   38     -8.53     -0.08
    9   13   38     -6.97      7.46
    7   13   38     -6.74      4.81
    5   13   38      2.07      2.89
    3   13   38      3.17     -0.68
    1   13   38     -7.03      5.96
   10   14   38      8.24    -18.73
    8   14   38     -5.17     -4.16
    6   14   38     -4.57     -1.13
    4   14   38      3.13      2.35
    2   14   38      1.84      1.17
    0   14   38      6.98      0.21
    9   15   38      5.51     -2.66
    7   15   38     -1.31     -9.99
    5   15   38      2.86      7.31
    3   15   38    -12.40      6.86
    1   15   38      7.50      0.48
    8   16   38      2.22     -9.67
    6   16   38      5.77    -11.23
    4   16   38      4.96     12.83
    2   16   38     -1.75    -15.44
    0   16   38     10.01      0.51
    5   17   38      3.30      5.43
    3   17   38     -4.03      3.80
    1   17   38     -0.73     -3.02
    0   18   38     10.15      0.17
    0    1   39      3.09      1.45
    1    2   39      2.31     -2.22
    2    3   39      6.67      3.30
    0    3   39      0.24      0.00
    3    4   39      7.80     -4.15
    1    4   39     10.48     -7.17
    4    5   39    -19.60     -2.43
    2    5   39      8.02      1.32
    0    5   39     -7.41     -1.77
    5    6   39     -4.36      1.10
    3    6   39      2.95     -0.94
    1    6   39      4.34      3.32
    6    7   39      0.70     -5.26
    4    7   39      9.59     -0.37
    2    7   39      0.91      2.28
    0    7   39     -0.10     -3.47
    7    8   39     -4.90     -5.78
    5    8   39      1.70     -1.48
    3    8   39      0.67     -4.35
    1    8   39      8.87      6.01
    8    9   39      1.69     -3.44
    6    9   39      4.88     -2.68
    4    9   39      1.55     -3.11
    2    9   39      4.42     -8.19
    0    9   39      0.54     -1.46
    9   10   39    -10.75      0.27
    7   10   39     -3.49      6.96
    5   10   39      7.27     12.04
    3   10   39      2.94      1.12
    1   10   39     13.04      0.96
   10   11   39    -12.84     -8.14
    8   11   39      7.49      2.76
    6   11   39      4.20     -4.18
    4   11   39      3.55     -0.85
    2   11   39      4.24     -5.15
    0   11   39      0.48      1.01
   11   12   39     -8.92     -5.03
    9   12   39      2.45     -1.52
    7   12   39      8.36      8.89
    5   12   39      3.94      6.48
    3   12   39     -0.61      2.88
    1   12   39     -0.70     -1.45
   10   13   39     -7.23      1.90
    8   13   39      2.83      5.82
    6   13   39     -0.57      2.89
    4   13   39      2.52     -5.25
    2   13   39      2.82     -2.59
    0   13   39      5.67      0.62
    9   14   39     -0.44     -1.74
    7   14   39     -4.75      6.97
    5   14   39      3.62     -1.97
    3   14   39     11.88    -11.10
    1   14   39      9.10     -3.00
    8   15   39    -12.29      7.45
    6   15   39     -5.79      5.32
    4   15   39      7.98    -13.41
    2   15   39     -0.78     -7.19
    0   15   39     -0.33      1.25
    7   16   39     -5.25     -3.37
    5   16   39     -7.72     -3.12
    3   16   39      2.35     -5.14
    1   16   39     -0.95      2.65
    4   17   39     -1.71     -0.34
    2   17   39      0.48     11.35
    0   17   39     -6.78      1.17
    0    0   40     -6.17     -0.33
    1    1   40     -8.83      5.02
    0    2   40      0.06      0.67
    2    2   40      7.23      0.66
    1    3   40     -0.37     10.04
    3    3   40     10.85     -7.34
    2    4   40     -6.24      2.14
    0    4   40     -1.44      4.13
    4    4   40      7.72      0.99
    3    5   40     -7.80      7.95
    1    5   40      4.59     -3.84
    5    5   40      0.57      7.76
    4    6   40      4.91      8.72
    2    6   40      2.38      1.04
    0    6   40     24.69      4.71
    6    6   40      9.62    -10.49
    5    7   40     -6.86     -7.68
    3    7   40      1.16      8.84
    1    7   40     -5.09     -6.25
    7    7   40      9.73    -11.34
    6    8   40      7.51     -6.20
    4    8   40      0.12     -7.59
    2    8   40     -0.40      2.50
    0    8   40     -9.89      3.67
    8    8   40     10.74    -14.41
    7    9   40      1.28    -10.38
    5    9   40     -4.98      0.23
    3    9   40      3.55      0.73
    1    9   40     -1.53      4.23
    9    9   40      3.66     -6.78
    8   10   40     14.68     -4.09
    6   10   40      6.58      1.00
    4   10   40     -7.59      4.14
    2   10   40     -3.78      1.80
    0   10   40      2.73     -0.87
   10   10   40     25.10     -4.85
    9   11   40      1.19     -0.54
    7   11   40      5.65     10.57
    5   11   40     -3.03     -9.00
    3   11   40     -1.81     -1.99
    1   11   40    -14.15     -3.29
   11   11   40      3.01     -1.87
   10   12   40      3.45     -4.39
    8   12   40     -1.57      7.40
    6   12   40      5.74      6.12
    4   12   40      3.17     -1.69
    2   12   40      3.03      1.40
    0   12   40     -7.63     -1.63
    9   13   40     -1.49     -5.74
    7   13   40     -7.00      4.68
    5   13   40     -2.27     -3.74
    3   13   40     -2.20     10.22
    1   13   40     -5.59     -2.42
    8   14   40     -6.48      3.79
    6   14   40     -1.27      7.45
    4   14   40     -2.14     10.77
    2   14   40      4.39      3.18
    0   14   40     -3.35     -0.85
    7   15   40     -2.93     -6.03
    5   15   40     -1.41     -2.37
    3   15   40     -4.84      9.61
    1   15   40     -3.74     -0.16
    4   16   40     -1.37      0.84
    2   16   40      3.04     -1.52
    0   16   40      7.55      0.05
    0    1   41      0.55     -1.01
    1    2   41      1.70     -8.71
    2    3   41     -6.22      2.51
    0    3   41     -1.63     -4.59
    3    4   41     -7.30      7.29
    1    4   41      2.02      2.53
    4    5   41      6.23     -1.57
    2    5   41      2.17      7.36
    0    5   41    -13.66      0.55
    5    6   41     -7.50      5.27
    3    6   41      2.23     -5.79
    1    6   41    -12.53     19.94
    6    7   41      1.90     -0.91
    4    7   41     15.55     -2.53
    2    7   41      2.35     -7.12
    0    7   41    -10.06      0.14
    7    8   41      8.38     -0.48
    5    8   41     12.59      6.88
    3    8   41     10.38      4.75
    1    8   41     21.24     -5.42
    8    9   41      5.28      2.44
    6    9   41     10.27     -4.51
    4    9   41      6.78     -8.51
    2    9   41     -3.05    -10.11
    0    9   41     -0.15     -3.34
    9   10   41      6.36     -0.28
    7   10   41      3.38      0.87
    5   10   41      0.72    -13.79
    3   10   41     -1.56     -4.87
    1   10   41      5.67     -3.46
   10   11   41    -10.57     -0.10
    8   11   41      6.83      2.06
    6   11   41     -5.62     -4.36
    4   11   41     -0.79     -2.08
    2   11   41     -4.28      6.41
    0   11   41     -0.82     -3.11
   11   12   41    -11.03      1.69
    9   12   41     -0.44      8.34
    7   12   41      2.42     -7.85
    5   12   41     -6.98     -2.24
    3   12   41     -8.56      4.56
    1   12   41     -4.78     -1.52
    8   13   41    -20.65     17.83
    6   13   41     -6.71      3.83
    4   13   41     -0.35      4.26
    2   13   41      0.95      5.10
    0   13   41     -0.54     -1.36
    7   14   41      3.33      2.40
    5   14   41      4.56     -1.54
    3   14   41     -1.14     -1.03
    1   14   41      9.74      1.05
    6   15   41     -2.09      1.05
    4   15   41     -0.65     10.23
    2   15   41     -0.75     -7.57
    0   15   41      6.63     -1.18
    3   16   41     -3.23     -7.62
    1   16   41      3.54    -17.06
    0    0   42    -17.65     -2.77
    1    1   42      0.85      6.18
    0    2   42     -0.07      1.41
    2    2   42     -3.78     -1.95
    1    3   42     -2.55     -2.07
    3    3   42     -0.82     -9.36
    2    4   42      2.13      4.87
    0    4   42     -2.42     -3.31
    4    4   42     -8.05      4.64
    3    5   42     -1.43      3.62
    1    5   42     -5.35     -4.18
    5    5   42    -19.52      1.37
    4    6   42     -5.20      6.44
    2    6   42     12.72      8.30
    0    6   42      7.52      0.09
    6    6   42      4.44     -1.35
    5    7   42     -6.00      5.97
    3    7   42     -7.18      4.73
    1    7   42     -5.03      0.30
    7    7   42     -8.46     -1.81
    6    8   42     -5.63     -2.45
    4    8   42     -9.11     -1.26
    2    8   42     -4.50     -2.48
    0    8   42     -1.21      2.98
    8    8   42      4.42     -3.11
    7    9   42      0.83      4.90
    5    9   42      5.25      9.41
    3    9   42      0.77     -6.72
    1    9   42     -0.93     -9.98
    9    9   42     -2.92     -0.06
    8   10   42      5.61      9.80
    6   10   42      0.79     15.87
    4   10   42     -6.44     15.50
    2   10   42     -2.17    -11.30
    0   10   42      1.84      0.53
   10   10   42      1.67      3.16
    9   11   42     -1.36      4.72
    7   11   42     -1.10      3.34
    5   11   42      1.21      3.40
    3   11   42     -3.89     -1.64
    1   11   42     -4.22      2.13
   11   11   42     -9.44    -10.34
   10   12   42     -0.91     10.66
    8   12   42     16.12     26.59
    6   12   42      7.10      9.25
    4   12   42      2.46      9.01
    2   12   42     -0.03      5.32
    0   12   42      2.08      2.16
    7   13   42      0.09     -1.27
    5   13   42      0.59     -8.20
    3   13   42      7.87     -0.95
    1   13   42      9.77      3.93
    6   14   42      0.46      0.48
    4   14   42      4.91     -8.33
    2   14   42      0.39    -13.04
    0   14   42      9.37      1.97
    3   15   42      0.25     -6.88
    1   15   42     -5.25     -1.30
    0    1   43      8.06      2.90
    1    2   43     -6.10     13.24
    2    3   43      1.42      9.20
    0    3   43     -6.77     -2.42
    3    4   43      3.17     -0.72
    1    4   43     -3.15      6.65
    4    5   43      8.43      5.81
    2    5   43     -4.95     -0.75
    0    5   43     -7.66      5.27
    5    6   43      4.04      1.33
    3    6   43     -2.10     12.68
    1    6   43     11.55      2.53
    6    7   43      6.56     -3.33
    4    7   43     -0.08     -5.75
    2    7   43      1.30     -6.42
    0    7   43      3.35      0.62
    7    8   43     12.94      0.47
    5    8   43     -3.11      7.84
    3    8   43     -2.29     -7.80
    1    8   43      2.50      2.62
    8    9   43      3.77     -2.15
    6    9   43     -5.57      2.42
    4    9   43     -5.01      0.45
    2    9   43     -4.62      0.40
    0    9   43     -1.89     -2.49
    9   10   43      6.62     -3.34
    7   10   43     -0.66     -3.02
    5   10   43     -3.60     -4.32
    3   10   43      2.71      3.18
    1   10   43     -8.23      3.19
   10   11   43     12.85     -0.75
    8   11   43     -2.35      7.85
    6   11   43      1.31      5.04
    4   11   43     10.56     -3.40
    2   11   43      6.04      5.95
    0   11   43     -8.00    -15.45
    7   12   43     -1.69     -1.17
    5   12   43     -3.94    -14.46
    3   12   43      7.89      0.36
    1   12   43     -2.74     -5.36
    6   13   43     -2.34      6.33
    4   13   43      1.06      2.35
    2   13   43      5.85      5.28
    0   13   43     -2.55     -5.53
    5   14   43     -6.83     -2.27
    3   14   43     -0.96      8.05
    1   14   43     12.30     -1.81
    0    0   44    -16.80     -7.06
    1    1   44     -2.31     -9.46
    0    2   44     -4.19      3.75
    2    2   44      6.87     -6.70
    1    3   44    -10.67     -4.39
    3    3   44      0.53      3.30
    2    4   44     -1.43      0.34
    0    4   44      2.20     -4.83
    4    4   44      9.69     -4.79
    3    5   44      6.62     -6.89
    1    5   44      5.63      3.74
    5    5   44     -4.75     -2.70
    4    6   44      3.04     -8.86
    2    6   44     -1.46     -1.65
    0    6   44      1.88     -0.62
    6    6   44     -7.34      8.50
    5    7   44     -7.08      3.50
    3    7   44      4.81     -4.88
    1    7   44      2.99     -3.65
    7    7   44      8.22      4.92
    6    8   44      5.45     -0.23
    4    8   44     -1.63      2.98
    2    8   44      8.74     -8.47
    0    8   44      7.18     -0.72
    8    8   44     -7.87      2.14
    7    9   44      0.25      6.62
    5    9   44     -0.76     -0.30
    3    9   44     -5.99      0.09
    1    9   44      5.21    -10.38
    9    9   44      5.18     -0.67
    8   10   44      0.12      6.57
    6   10   44     -5.64      3.26
    4   10   44      3.21     -2.42
    2   10   44      0.24     -7.98
    0   10   44     -0.44      1.30
   10   10   44      6.92     -3.16
    9   11   44      4.24    -12.25
    7   11   44     -1.41     -8.73
    5   11   44     -1.25     -6.34
    3   11   44     -1.67      2.69
    1   11   44      1.01     -0.56
    6   12   44      7.44     -2.80
    4   12   44     -4.40      6.16
    2   12   44     -4.58     -7.81
    0   12   44     -4.21      1.12
    5   13   44     -0.13     -2.73
    3   13   44     -7.75      0.53
    1   13   44      8.10     -6.23
    2   14   44      2.34     -1.87
    0   14   44     -1.60      0.58
    0    1   45      4.96      4.34
    1    2   45    -10.10     13.48
    2    3   45     -2.51      2.62
    0    3   45      2.88     -5.44
    3    4   45      1.38     -7.04
    1    4   45     13.51      9.72
    4    5   45    -12.00      2.04
    2    5   45      5.00      2.13
    0    5   45     -5.10     -0.25
    5    6   45      5.78      3.43
    3    6   45      0.53     -4.84
    1    6   45     10.55     -3.27
    6    7   45     -1.51      0.36
    4    7   45     -8.62      6.27
    2    7   45    -16.37      0.07
    0    7   45      8.32      0.56
    7    8   45     -1.04      2.41
    5    8   45     -0.67     -1.48
    3    8   45     -4.90     -4.41
    1    8   45    -14.14     -3.40
    8    9   45      5.81      3.46
    6    9   45     -2.83     -1.54
    4    9   45      9.47     -0.04
    2    9   45      0.96      1.93
    0    9   45     -3.25     -0.24
    9   10   45      2.63     -4.13
    7   10   45      2.59      2.76
    5   10   45      6.24     -1.46
    3   10   45      3.86      1.10
    1   10   45    -14.47     -1.76
    6   11   45      2.13      7.57
    4   11   45      3.21      0.09
    2   11   45     -0.46     -4.55
    0   11   45      5.74     -2.13
    5   12   45      2.73      4.05
    3   12   45      1.29      0.39
    1   12   45      9.12      4.69
    2   13   45      9.63    -11.18
    0   13   45     26.73     -0.12
    0    0   46    -11.48     -0.70
    1    1   46     -7.12      0.65
    0    2   46      6.52      2.55
    2    2   46     16.27     -1.22
    1    3   46     -3.22      6.22
    3    3   46      6.89      6.55
    2    4   46      1.04     -9.16
    0    4   46      1.23     -0.37
    4    4   46     15.68    -15.08
    3    5   46      2.55     -0.22
    1    5   46      7.51      2.35
    5    5   46      5.22     -0.90
    4    6   46     -3.94      2.89
    2    6   46      5.68     -2.00
    0    6   46      3.78     -2.21
    6    6   46      1.39      8.02
    5    7   46     -1.89     -1.35
    3    7   46     -2.25      1.65
    1    7   46     24.08      6.58
    7    7   46     -0.09    -10.31
    6    8   46      6.15      4.32
    4    8   46     -2.43     -0.31
    2    8   46      5.37      2.03
    0    8   46     11.83     -1.09
    8    8   46     10.16     -1.85
    7    9   46      0.07     -9.40
    5    9   46     -4.31      2.65
    3    9   46    -17.80     -0.03
    1    9   46      8.54     10.52
    6   10   46      1.11     -1.14
    4   10   46      0.61     -5.59
    2   10   46     -3.41      3.78
    0   10   46     -9.56     -3.01
    5   11   46      1.35      1.21
    3   11   46      9.25      3.00
    1   11   46      1.42     -0.05
    2   12   46      0.85     -4.38
    0   12   46    -13.94     -4.59
    0    1   47    -16.99     -4.08
    1    2   47     -8.43     -2.37
    2    3   47     -1.96    -11.50
    0    3   47     -1.05      0.96
    3    4   47     -2.59     -2.12
    1    4   47      5.02     -6.08
    4    5   47      1.97      7.81
    2    5   47      0.72      2.54
    0    5   47      4.43     -1.72
    5    6   47     -3.95      3.35
    3    6   47      9.61     -6.02
    1    6   47      3.45     -5.29
    6    7   47      3.91      3.71
    4    7   47     -2.31      2.02
    2    7   47     -6.00      3.90
    0    7   47     -6.82     -0.71
    7    8   47      0.88      3.73
    5    8   47     -4.28     -7.24
    3    8   47     -2.84     -3.17
    1    8   47     -7.07     -3.94
    6    9   47      2.57     -5.17
    4    9   47      5.21      3.14
    2    9   47     -4.62      2.34
    0    9   47      0.23      2.92
    5   10   47     -3.44     -3.60
    3   10   47     -0.42      4.63
    1   10   47      3.98      3.64
    2   11   47     -0.21    -10.68
    0   11   47     10.01      5.42
    0    0   48     23.80     -6.20
    1    1   48     -0.89      4.27
    0    2   48     -3.73     -8.17
    2    2   48    -11.48     17.69
    1    3   48     -8.15      7.69
    3    3   48      5.28      7.50
    2    4   48      2.99      2.29
    0    4   48      4.61     -2.44
    4    4   48      1.87     -7.32
    3    5   48     -3.94     -1.40
    1    5   48      0.89      6.40
    5    5   48     -1.08     -0.60
    4    6   48     -1.73      5.00
    2    6   48    -10.65      2.19
    0    6   48     10.38     -0.99
    6    6   48      7.83      8.77
    5    7   48      5.24     -1.99
    3    7   48     -5.21     -0.23
    1    7   48      3.37      1.55
    7    7   48     -7.47    -12.68
    6    8   48     -4.23      3.00
    4    8   48     -1.10      8.88
    2    8   48     -5.81      2.54
    0    8   48      1.66     -0.58
    5    9   48     -3.31    -13.82
    3    9   48      2.10      5.12
    1    9   48     -2.57     -2.23
    2   10   48     -6.04      3.24
    0   10   48    -12.48     -0.30
    0    1   49    -20.73     -2.06
    1    2   49     -2.47     -6.53
    2    3   49     -2.79    -14.06
    0    3   49    -15.21      7.45
    3    4   49     -6.53     -2.22
    1    4   49     -8.01      7.36
    4    5   49      6.14      1.40
    2    5   49     -2.83     -5.44
    0    5   49     -7.24     -2.88
    5    6   49      4.25      1.00
    3    6   49     -6.51      6.04
    1    6   49      6.23     -5.01
    6    7   49     -4.26     -1.65
    4    7   49     -5.30      4.69
    2    7   49     -2.35      2.22
    0    7   49     -0.51     -0.06
    3    8   49    -10.40      8.05
    1    8   49     14.20     14.22
    2    9   49     -9.75      4.75
    0    9   49     -1.00     -0.86
    1    1   50     -2.49      4.49
    0    2   50      2.89     -7.33
    2    2   50    -10.27     21.80
    1    3   50     -1.70     -2.40
    3    3   50     -4.55      8.00
    2    4   50     -2.49      2.33
    0    4   50      1.65      0.97
    4    4   50     -4.94      7.75
    3    5   50      0.92     -2.95
    1    5   50     -3.11     -2.96
    5    5   50     -2.11     19.68
    4    6   50      0.35      6.91
    2    6   50     -1.11      0.59
    0    6   50     -6.11     -0.88
    3    7   50      3.63     -3.17
    1    7   50     -7.40     -3.33
    0    8   50    -17.58      0.19
    0    1   51      5.05     -4.89
    1    2   51      7.21      7.07
    2    3   51     -3.02     -1.66
    0    3   51      2.48      0.58
    3    4   51      1.83     -2.17
    1    4   51      3.26      3.10
    2    5   51     -5.53     -6.81
    0    5   51     12.99     -2.28
    1    6   51      9.42     -0.05
    0    0   52      8.46      6.97
    1    1   52     -1.44      4.60
    0    2   52      5.27      0.17
    2    2   52     10.48     -6.72
    1    3   52      9.67     -0.51
    1    1    0    365.97    -11.95
    0    2    0    437.03      9.78
    2    2    0    228.55    -13.91
   19   19    0     10.69     -0.82
   18   20    0     -3.42      0.85
   20   20    0     18.41     -0.55
   17   21    0    -13.92      1.74
   19   21    0     10.65      1.09
   14   22    0     -2.11      0.24
   16   22    0     -4.38     -0.40
   18   22    0     -2.48      0.02
   13   23    0     12.42     -0.33
   15   23    0      8.40     -0.35
   12   24    0     13.21     -0.55
   14   24    0      9.00     -1.04
    9   25    0      9.86      1.68
   11   25    0      9.99      1.09
   13   25    0      9.65     -0.34
    2   26    0      3.10     -1.47
    4   26    0      1.16      2.02
    6   26    0      1.53     -0.20
    8   26    0     10.28      0.53
   10   26    0     -7.81      1.33
    1   27    0    -13.25      2.06
    3   27    0      7.13      0.03
    5   27    0     -4.13      0.10
    7   27    0      4.84      1.41
    9   27    0      0.87      0.82
    0    1    1    -76.74     -4.88
    1    2    1    253.45    163.99
    0    3    1   -181.10    -17.59
   18   19    1     16.32      4.46
   17   20    1     10.46     16.29
   19   20    1      4.19     -2.88
   16   21    1     -1.83      4.44
   18   21    1      5.25      2.86
   15   22    1     -2.55      5.05
   17   22    1     -1.41     -1.94
   14   23    1      8.50      7.51
   16   23    1     -5.01      0.19
   11   24    1     -0.77     -5.40
   13   24    1      7.64      6.14
   15   24    1     -5.78     -2.21
    8   25    1      8.07     -1.79
   10   25    1     -9.83     -7.92
   12   25    1     -0.54      5.02
    3   26    1     -3.13     10.92
    5   26    1      3.01     -4.05
    7   26    1     14.23     -1.94
    9   26    1      8.12     -4.26
   11   26    1     -5.93      1.08
    0   27    1     -5.93      0.44
    2   27    1      9.58      3.70
    4   27    1     10.92     -8.08
    6   27    1    -10.31     -2.43
    8   27    1     -6.50     -0.41
    0    0    2    453.52      5.32
    1    1    2   -143.63    103.63
    0    2    2    282.24     21.63
    2    2    2     94.34    -78.80
   19   19    2     12.61     -0.67
   18   20    2      0.20    -15.63
   20   20    2      9.66     -9.40
   17   21    2     -1.20     -6.83
   19   21    2      5.43     -7.98
   14   22    2      1.94      7.85
   16   22    2     -9.54      2.29
   18   22    2     -3.55     -4.45
   13   23    2      9.44     12.54
   15   23    2      5.30      2.40
   12   24    2     -7.75     -2.43
   14   24    2      9.39     -0.37
    9   25    2     -0.58      1.81
   11   25    2     -5.16     -0.09
   13   25    2      4.52     -1.99
    4   26    2     -6.53     -4.83
    6   26    2     -0.98     -5.38
    8   26    2      6.27      3.99
   10   26    2     -9.42      6.41
    1   27    2      5.04     -0.61
    3   27    2      2.14      5.18
    5   27    2     -1.46     -7.33
    7   27    2      1.33      1.38
    9   27    2      4.63      6.74
    0    1    3    610.01      4.12
    1    2    3   -149.09     88.09
   18   19    3      5.17      4.66
   17   20    3     -1.82      9.00
   19   20    3      8.73      1.92
   16   21    3     -1.12     10.90
   18   21    3      0.91      4.71
   15   22    3     -3.33     10.56
   17   22    3     -6.53     -2.03
   14   23    3      6.71      0.60
   16   23    3      3.27      5.25
   11   24    3      8.93      4.46
   13   24    3      2.27      1.62
   15   24    3     -1.22      6.72
    8   25    3     -0.79     -7.44
   10   25    3     -0.46     -9.04
   12   25    3     -1.60      2.15
    3   26    3      9.61     10.99
    5   26    3     -1.07    -12.00
    7   26    3     11.79     -1.42
    9   26    3      7.55      7.00
   11   26    3     -4.50      1.85
    0   27    3     -5.18      1.62
    2   27    3     -1.84      9.24
    4   27    3     -6.07     -7.81
    6   27    3     -4.67     -7.45
    8   27    3      1.05      8.22
    0    0    4   -721.23     -7.45
    0    2    4     24.69     12.18
   19   19    4      9.54     11.09
   18   20    4      2.35     -1.11
   20   20    4    -13.37     -3.13
   17   21    4      7.26     -0.72
   19   21    4     -2.96      2.06
   14   22    4      3.42      5.15
   16   22    4     -7.45     -3.57
   18   22    4     -5.65     -2.48
   13   23    4     -0.31      9.30
   15   23    4     -1.07      1.62
   10   24    4     -9.16     -9.92
   12   24    4     -7.19     -5.32
   14   24    4     -7.34     -4.45
    9   25    4     12.95     -2.24
   11   25    4    -10.87     -7.73
   13   25    4     -3.28      0.81
    0   26    4     -6.78     -2.85
    2   26    4      4.43     13.21
    4   26    4      2.29     -9.20
    6   26    4     -2.71     -3.53
    8   26    4     -2.27      1.17
   10   26    4     -3.33      1.14
    1   27    4      8.34      0.91
    3   27    4      0.29      4.80
    5   27    4      0.57     -4.43
    7   27    4     -3.68      0.94
    9   27    4      1.89      5.90
    0    1    5      2.23      4.67
   18   19    5      3.79      3.44
   17   20    5     -4.05     -5.17
   19   20    5     11.10     -4.13
   16   21    5      3.70     -8.34
   18   21    5     -5.19      3.40
   15   22    5     -1.79     -7.18
   17   22    5     -5.16     -0.06
   14   23    5      9.32     -5.47
   16   23    5     -0.41      1.70
   11   24    5     -0.60      3.55
   13   24    5      7.28     -4.11
   15   24    5      5.66      5.73
    8   25    5      0.16     -6.06
   10   25    5     -7.08     -3.29
   12   25    5      2.76     -9.99
    1   26    5     11.45      5.80
    3   26    5      5.71      3.98
    5   26    5      2.42     -6.37
    7   26    5      1.04      1.38
    9   26    5      1.31     10.27
   11   26    5      2.13      1.60
    0   27    5     17.84     -2.62
    2   27    5     -6.44      4.77
    4   27    5    -10.18     -4.76
    6   27    5     -0.31     -5.74
    8   27    5     10.41     10.30
    0    0    6      1.92     24.19
   19   19    6      7.48     22.60
   18   20    6      0.38      9.73
   20   20    6    -10.72     10.05
   17   21    6      3.80     -2.14
   19   21    6      2.52     10.07
   14   22    6     10.06     -8.70
   16   22    6     -5.44     -9.11
   13   23    6      7.51     -0.99
   15   23    6     -4.46     -1.60
   10   24    6     13.23      0.83
   12   24    6      5.48     -5.03
   14   24    6     -0.02     -4.27
    7   25    6      2.34      3.95
    9   25    6     11.05      7.50
   11   25    6     -3.58     -2.90
   13   25    6      0.88     -2.37
    0   26    6    -11.64      3.11
    2   26    6      3.29     10.59
    4   26    6     16.20     -4.95
    6   26    6     -4.41     -1.76
    8   26    6     -0.15      8.07
   10   26    6      7.51      0.94
    1   27    6     -2.78      2.49
    3   27    6      0.18      4.72
    5   27    6     -2.41     -5.02
    7   27    6      8.01      2.54
   18   19    7     -3.31      2.03
   17   20    7     -4.75     -6.80
   19   20    7     -7.79      6.12
   16   21    7     -6.45     -6.88
   18   21    7     -5.52     -0.96
   15   22    7     -9.82     -3.92
   17   22    7     -4.86     -8.12
   12   23    7      2.51    -10.03
   14   23    7     -8.99     -2.75
   16   23    7      2.71     -5.65
   11   24    7     -8.50    -10.76
   13   24    7     -5.18      3.63
   15   24    7      3.14      2.61
    8   25    7     10.06      0.45
   10   25    7     -0.05     -7.68
   12   25    7      0.89     -0.32
    1   26    7      9.22     -3.64
    3   26    7      6.30     -8.72
    5   26    7     -0.35      3.96
    7   26    7     -7.53      1.86
    9   26    7      1.97      1.64
   11   26    7      1.57     -0.12
    0   27    7     12.15     -2.97
    2   27    7     -0.79     -7.74
    4   27    7     -6.54     -1.54
    6   27    7      0.65     -1.73
    8   27    7      2.52      1.26
   19   19    8      7.11      1.83
   18   20    8     -5.83      4.62
   20   20    8      2.40      4.30
   15   21    8      0.66    -20.57
   17   21    8     -3.87     -4.44
   14   22    8      3.48     -4.37
   16   22    8     -2.41     -1.97
   13   23    8     -0.23      4.53
   15   23    8     -7.44      5.65
   10   24    8     11.49     -5.37
   12   24    8     14.14      8.02
   14   24    8      6.38      7.11
    7   25    8     -3.92     -9.76
    9   25    8     -8.18      2.23
   11   25    8      0.74      2.48
   13   25    8      2.47     -1.89
    0   26    8      8.72      2.82
    2   26    8     -0.17      0.65
    4   26    8      6.28      5.55
    6   26    8     -0.05     -9.78
    8   26    8     -1.50      0.59
   10   26    8     -0.88      0.85
    1   27    8      5.90     -2.34
    3   27    8     -8.07     -0.42
    5   27    8      5.88     -0.35
    7   27    8      4.73      3.54
   18   19    9      8.36     11.35
   17   20    9     -0.40     -6.36
   19   20    9     -4.55      6.74
   16   21    9     -0.44      4.22
   18   21    9     -3.87      2.88
   15   22    9     -7.03      4.72
   17   22    9     -5.02     -2.61
   12   23    9      4.19      3.27
   14   23    9     -3.33      9.76
   16   23    9      1.14     -5.41
   11   24    9     -3.02     -0.90
   13   24    9     -5.31      8.69
    6   25    9     -5.32     -1.32
    8   25    9      1.92     -0.52
   10   25    9      4.91     -4.20
   12   25    9     -0.62     -4.60
    1   26    9     -0.81     -4.67
    3   26    9      4.75      2.69
    5   26    9     -4.75     10.39
    7   26    9     -4.03      7.71
    9   26    9      6.25      1.30
    0   27    9     -7.79     -1.33
    2   27    9     -3.49      0.62
    4   27    9     -0.41      4.83
    6   27    9     -0.39      2.24
    8   27    9      2.62     -3.22
   19   19   10      0.81      0.30
   18   20   10     -5.37      0.40
   15   21   10     -7.34     -1.11
   17   21   10     -1.90      7.18
   14   22   10     -9.18      2.66
   16   22   10     -2.88      1.20
   13   23   10     -1.27      1.23
   15   23   10      0.64      9.45
   10   24   10      2.76    -11.36
   12   24   10      1.47     11.50
   14   24   10      1.73     17.22
    7   25   10     -2.19     -4.96
    9   25   10     -0.45     -7.11
   11   25   10     -1.24     -4.75
    0   26   10     14.88     -0.80
    2   26   10     -3.61     -3.11
    4   26   10    -11.07      2.93
    6   26   10      2.88     -0.90
    8   26   10      3.25     -9.45
   10   26   10      0.72     -1.34
    1   27   10      0.35     -3.59
    3   27   10     -7.27     -3.99
    5   27   10     -3.79      4.59
    7   27   10      3.75      1.53
   18   19   11     -1.27      0.80
   17   20   11     -3.52    -13.06
   19   20   11     -0.49      3.16
   16   21   11      5.19     -9.55
   18   21   11      3.68      4.33
   13   22   11     -3.39     -3.48
   15   22   11      7.17      4.29
   17   22   11      1.76      3.37
   12   23   11     -0.97      0.19
   14   23   11      3.97      5.20
   16   23   11     -2.80      6.21
    9   24   11      7.42     -9.03
   11   24   11      4.90      6.22
   13   24   11      2.91     10.93
    6   25   11     -1.36     -7.45
    8   25   11     -6.46      3.99
   10   25   11      0.95     -0.02
   12   25   11      8.35     -3.62
    1   26   11     -3.40     -1.85
    3   26   11     -5.84     14.32
    5   26   11      2.71      2.28
    7   26   11      0.38      0.18
    9   26   11     -1.64      1.02
    0   27   11     -1.26     -0.07
    2   27   11     -7.10      0.23
    4   27   11      6.82      8.52
    6   27   11      3.20      3.76
   18   18   12     13.35      0.48
   17   19   12     19.23     -0.12
   19   19   12     23.61      9.94
   16   20   12      2.40     -5.41
   18   20   12      6.03     -1.30
   15   21   12     10.90     -1.05
   17   21   12      8.90      6.85
   14   22   12     -2.37      2.40
   16   22   12      0.38     -0.64
   11   23   12     -2.38     -7.72
   13   23   12     -0.42      0.36
   15   23   12      9.53     -4.47
   10   24   12      7.14      1.83
   12   24   12     10.88      1.88
   14   24   12      6.26      4.67
    5   25   12      6.33      9.84
    7   25   12     -3.81      0.07
    9   25   12      9.00     -3.69
   11   25   12      9.41     -5.62
    0   26   12     -7.15     -1.78
    2   26   12     -0.80     -3.45
    4   26   12     -3.96      8.52
    6   26   12     -2.36      8.09
    8   26   12     10.19      2.42
   10   26   12      4.31     -1.99
    1   27   12      2.41      0.69
    3   27   12     -3.30      0.12
    5   27   12     -5.82      5.22
    7   27   12     -1.45     -2.27
   18   19   13     -9.90    -10.34
   17   20   13     -8.87     -1.99
   19   20   13      5.57      7.37
   16   21   13     -0.26     -9.65
   18   21   13      5.03      4.65
   13   22   13      7.94     -9.57
   15   22   13     14.04    -10.80
   17   22   13      0.25     -0.07
   12   23   13     -1.21     -2.60
   14   23   13      6.58     -4.70
    9   24   13     -6.79      1.66
   11   24   13     -2.65     -1.68
   13   24   13     10.13      4.42
    4   25   13     -3.88     -0.85
    6   25   13      2.31      3.08
    8   25   13     -2.05     -0.09
   10   25   13      4.75     -0.13
   12   25   13      3.62      0.07
    1   26   13     -2.14     -9.35
    3   26   13     -4.00      1.15
    5   26   13      7.32      5.44
    7   26   13      8.40     -3.22
    9   26   13     -4.14     -2.48
    0   27   13      2.65      1.74
    2   27   13     -1.93     -4.09
    4   27   13     -2.26      4.85
    6   27   13      6.47     -0.20
   18   18   14    -22.73      6.90
   17   19   14    -16.39      2.82
   19   19   14     -4.81      7.86
   16   20   14    -21.81      3.78
   18   20   14     -5.60      7.60
   15   21   14     -5.15     -0.56
   17   21   14      8.18     -5.82
   14   22   14     -9.94      3.63
   16   22   14     -2.77     -1.50
   11   23   14    -16.36     11.45
   13   23   14    -21.16      0.19
   15   23   14      4.93     -7.60
    8   24   14     -1.47      9.25
   10   24   14     -6.18      0.97
   12   24   14     -2.08     -2.95
    3   25   14     -4.70     -8.56
    5   25   14     -4.14      3.80
    7   25   14     -3.74      3.86
    9   25   14     -6.04      1.89
   11   25   14      1.72      1.11
    0   26   14     -3.09     -0.99
    2   26   14     -0.81     -9.23
    4   26   14      2.82      4.33
    6   26   14     -2.95      2.33
    8   26   14      0.98      4.08
    1   27   14      4.90      1.35
    3   27   14      4.76     -0.68
    5   27   14     -1.52     -1.76
   18   19   15      2.75     12.56
   17   20   15      1.91      4.77
   19   20   15      6.88      3.03
   14   21   15      4.52      6.84
   16   21   15     -4.13      2.26
   13   22   15      2.44     13.41
   15   22   15      1.09      2.94
   10   23   15     -6.94      9.27
   12   23   15    -12.12      5.12
   14   23   15      1.58     -3.12
    9   24   15    -10.99     10.01
   11   24   15     -2.62      2.57
   13   24   15      3.11      1.97
    0   25   15      7.87     -0.45
    2   25   15     -2.08      0.51
    4   25   15      4.60     -7.74
    6   25   15      6.10     -1.29
    8   25   15      3.70     -4.45
   10   25   15      5.50     -2.19
    1   26   15      4.40    -12.44
    3   26   15      0.03     -5.88
    5   26   15      8.21     -1.46
    7   26   15      6.49     -1.44
    9   26   15     -1.59     -3.98
    0   27   15     -3.73      0.74
    2   27   15      7.70     -3.11
    4   27   15     -4.54     -2.13
   18   18   16    -21.70     -4.46
   17   19   16    -22.08    -10.35
   19   19   16      0.05     -2.34
   16   20   16    -17.46      9.53
   18   20   16     -6.30      3.97
   15   21   16      6.87     -0.17
   17   21   16     -4.43     -2.84
   12   22   16     -4.90     -1.91
   14   22   16      1.18      6.71
   16   22   16      3.19      1.13
   11   23   16     -5.89      5.03
   13   23   16     -5.63      4.26
    8   24   16      4.59      1.25
   10   24   16      0.00     -3.50
   12   24   16     -0.08     -5.60
    1   25   16     -3.12      0.17
    3   25   16    -13.73     -2.85
    5   25   16     -2.16      2.30
    7   25   16     -0.95      5.43
    9   25   16      2.07     -2.21
   11   25   16     -1.06     -2.64
    0   26   16     17.96      1.35
    2   26   16     -1.06     -8.91
    4   26   16     -0.42      2.77
    6   26   16      3.05      2.71
    8   26   16     -7.11     -2.00
    1   27   16     -0.50     -2.29
    3   27   16      1.04      0.97
   17   18   17     -1.18      9.78
   16   19   17     -7.28      6.82
   18   19   17     -5.42     14.81
   15   20   17     -9.39     13.56
   17   20   17      3.24     14.04
   14   21   17     -1.37     11.83
   16   21   17     -6.77      1.84
   13   22   17    -13.06     16.15
   15   22   17     -5.35      5.72
   10   23   17      5.55      0.44
   12   23   17     -8.92      7.91
   14   23   17     -4.57     -2.45
    7   24   17      3.09      4.44
    9   24   17     -8.25      3.29
   11   24   17     -2.27      1.96
   13   24   17     -9.92     -2.14
    0   25   17      8.33     -3.27
    2   25   17      2.12    -10.22
    4   25   17     -7.75      0.39
    6   25   17     -1.51      0.25
    8   25   17      0.72      2.72
   10   25   17      1.96      0.83
    1   26   17      0.50      7.38
    3   26   17     -2.89     -0.82
    5   26   17     -4.23      2.90
    7   26   17     -0.31     -1.90
    0   27   17     -3.25      0.13
    2   27   17      0.17      1.15
    4   27   17      4.90     -5.58
   18   18   18      1.87      7.41
   17   19   18      7.59      1.77
   19   19   18      4.86     -0.82
   16   20   18      6.52     -1.35
   18   20   18     -1.29     -6.41
   13   21   18      5.92      4.43
   15   21   18     10.62     -1.72
   17   21   18      1.36     -3.61
   12   22   18      4.87     -9.31
   14   22   18     14.41      3.83
    9   23   18      4.98      5.10
   11   23   18      0.42     -0.42
   13   23   18      4.53     -1.09
    6   24   18     -1.25      6.08
    8   24   18      0.71     -1.99
   10   24   18      9.69      4.16
   12   24   18      1.70     -0.29
    1   25   18      1.16      2.14
    3   25   18     -5.62      7.39
    5   25   18      7.07     -2.72
    7   25   18     -0.51      2.57
    9   25   18      1.52     -2.21
    0   26   18      3.37     -0.63
    2   26   18      2.11     -3.07
    4   26   18      0.09     -8.08
    6   26   18      2.98      1.26
    1   27   18     -1.99     -2.78
   17   18   19      5.42      9.99
   16   19   19     -2.89     -4.27
   18   19   19      9.16     -7.62
   15   20   19      0.48      5.36
   17   20   19     -1.55     -4.39
   14   21   19      1.01     -4.92
   16   21   19      4.30     -5.44
   11   22   19      7.61     -4.05
   13   22   19     -8.48     -5.53
   15   22   19      4.82     -1.52
    8   23   19      0.25     -6.41
   10   23   19     11.76      2.50
   12   23   19      9.42     -7.28
   14   23   19     -0.94     -3.16
    5   24   19      0.16     -2.91
    7   24   19     -2.01      2.69
    9   24   19      7.94      2.67
   11   24   19      4.76      0.77
    0   25   19     -1.57     -0.10
    2   25   19    -13.17     -9.18
    4   25   19     -5.51      1.57
    6   25   19      2.32      0.47
    8   25   19      5.34     -0.61
   10   25   19      7.03      0.53
    1   26   19      3.52      5.94
    3   26   19     -5.18     -1.49
    5   26   19     -1.90      2.21
    7   26   19     -2.73      0.09
   18   18   20    -12.94      9.40
   15   19   20     -5.08     -3.78
   17   19   20      8.07      9.98
   14   20   20      3.46      8.21
   16   20   20     -0.17     -1.50
   13   21   20      7.66      4.10
   15   21   20     -0.02     -7.75
   10   22   20     -8.83     -4.43
   12   22   20     -0.79      6.27
   14   22   20      2.76     -3.68
    9   23   20     -3.55      4.12
   11   23   20     -0.50      5.99
   13   23   20      2.60     -2.25
    4   24   20    -10.39      5.07
    6   24   20      3.34      5.86
    8   24   20     -1.42      5.11
   10   24   20      2.57      6.18
    1   25   20      2.72     -3.11
    3   25   20      0.98      3.06
    5   25   20      4.82      7.61
    7   25   20      8.60     -3.64
    9   25   20     -7.28      4.76
    0   26   20    -11.15     -1.85
    2   26   20     -2.81      2.50
    4   26   20      2.24     -5.04
    6   26   20      5.22     -0.96
   17   18   21     -3.04      6.11
   16   19   21     -3.64     -4.64
   18   19   21      1.33     -3.15
   15   20   21     -1.45     -7.01
   17   20   21      1.54     -2.66
   12   21   21      0.01     -2.76
   14   21   21      1.25      1.57
   16   21   21      3.86      0.53
   11   22   21     -1.19     -1.59
   13   22   21      1.09      0.80
    8   23   21      2.55     -9.87
   10   23   21      2.20     -0.24
   12   23   21      0.93     -7.04
    1   24   21      8.96      9.14
    3   24   21      4.86     -4.61
    5   24   21      7.87     -2.88
    7   24   21     -5.26      1.86
    9   24   21      5.71     -0.19
   11   24   21     -0.88      8.02
    0   25   21     -9.88      1.78
    2   25   21     -5.41      4.23
    4   25   21      2.48     -2.56
    6   25   21      1.23      4.98
    8   25   21      4.17     -2.66
    1   26   21      5.22     -1.59
    3   26   21      6.71     -1.66
    5   26   21      1.98     -3.88
   17   17   22     -8.03      1.51
   16   18   22     -3.31      5.95
   18   18   22      7.29      9.01
   15   19   22     -6.00      5.44
   17   19   22      3.19    -10.49
   14   20   22     -3.11      6.58
   16   20   22     -3.71     -4.03
   11   21   22      6.72      1.55
   13   21   22     -7.17      2.67
   15   21   22     -6.37     -1.21
   10   22   22      2.18     -4.63
   12   22   22     -4.90      2.45
   14   22   22     -9.53      0.44
    7   23   22      3.53     -0.66
    9   23   22    -14.86      3.29
   11   23   22     -1.08      3.49
   13   23   22      0.69      0.07
    0   24   22     -4.51     -1.53
    2   24   22      0.88    -11.58
    4   24   22      1.67     -0.24
    6   24   22     -2.74     -5.17
    8   24   22      3.39     -6.33
   10   24   22     -1.05     -2.12
    1   25   22      1.14     -4.00
    3   25   22      2.39      0.98
    5   25   22      5.19      1.35
    7   25   22      7.85     -0.84
    0   26   22      1.23     -0.38
    2   26   22      0.10     -2.01
    4   26   22     -1.25     -6.58
   17   18   23     -1.70     10.15
   14   19   23      9.40      2.68
   16   19   23      0.46      0.27
   18   19   23     -4.49      2.58
   13   20   23     -9.35     20.39
   15   20   23     -2.47      1.25
   12   21   23      6.39      7.26
   14   21   23      2.24      8.18
    9   22   23     -8.13    -11.66
   11   22   23     -8.08      8.60
   13   22   23     -0.97      4.71
    6   23   23     12.35      7.18
    8   23   23      6.62     -0.36
   10   23   23      3.12     -0.02
   12   23   23      2.39      0.24
    1   24   23      8.05      4.90
    3   24   23     -2.66      3.92
    5   24   23     -0.96     13.19
    7   24   23      4.47      4.70
    9   24   23      2.52      4.39
    0   25   23    -12.62     -1.51
    2   25   23     -5.29      4.17
    4   25   23     -4.15      4.06
    6   25   23      9.59      6.71
    1   26   23     -0.70      5.84
    3   26   23      4.22     -2.99
   17   17   24     -6.77     -2.90
   16   18   24      0.57     13.02
   18   18   24      4.36     11.75
   15   19   24     -1.71     -7.65
   17   19   24      3.28     -3.67
   12   20   24     -0.64      0.37
   14   20   24     -4.20     -8.24
   16   20   24      4.42     -0.16
   11   21   24     -0.50      0.69
   13   21   24      2.85      7.83
   15   21   24     -3.00      2.71
    8   22   24     -1.25     -4.87
   10   22   24      4.01     -5.37
   12   22   24      8.55     -2.40
    3   23   24      4.96     -3.23
    5   23   24      6.49     -0.79
    7   23   24     -3.68      2.00
    9   23   24      4.57     -6.15
   11   23   24      9.89     -0.80
    0   24   24    -15.04      2.07
    2   24   24     -6.37      1.24
    4   24   24      4.95     -9.70
    6   24   24     -2.76      6.60
    8   24   24      3.12     -2.36
    1   25   24      0.25      7.28
    3   25   24      6.22      3.48
    5   25   24      0.17     -0.12
    7   25   24     -2.21      3.21
   16   17   25     -2.75      3.64
   15   18   25      6.57     -1.58
   17   18   25      2.89      0.56
   14   19   25     13.35     -5.95
   16   19   25      9.91     -5.91
   13   20   25     -5.34    -10.07
   15   20   25      1.53      0.48
   10   21   25     14.86     -4.76
   12   21   25      7.07      0.70
   14   21   25     -2.76     -6.13
    7   22   25     -4.11     -3.59
    9   22   25    -20.37     -7.65
   11   22   25     -0.97     -3.41
   13   22   25     -3.04     -0.70
    0   23   25    -13.91     -0.21
    2   23   25      4.51     -2.92
    4   23   25      4.04      5.38
    6   23   25     -0.57      4.83
    8   23   25     -3.97      4.41
   10   23   25     -2.32     -1.96
    1   24   25      5.46     -3.42
    3   24   25      9.99      9.95
    5   24   25     -3.46      8.06
    7   24   25      3.99      4.96
    9   24   25     -1.03     -7.82
    0   25   25      3.11     -0.82
    2   25   25     -0.69     -2.33
    4   25   25     -2.70     -0.94
    6   25   25     -1.68      3.38
   16   16   26    -11.36     19.27
   15   17   26      2.86      4.12
   17   17   26     15.74     15.14
   14   18   26      8.20     -3.12
   16   18   26      8.73     18.70
   18   18   26     -2.48      7.73
   13   19   26      1.48      5.26
   15   19   26     11.96     -6.46
   17   19   26      1.45      4.79
   12   20   26      1.51     -0.27
   14   20   26      8.80      2.82
    9   21   26      5.03      8.35
   11   21   26     -4.35      6.59
   13   21   26      0.64      2.97
    6   22   26      5.22      1.10
    8   22   26      2.63     -5.26
   10   22   26     -1.13      0.56
   12   22   26      3.39     -4.77
    1   23   26     11.53     10.52
    3   23   26     -1.83     -7.56
    5   23   26      0.27      7.25
    7   23   26      3.42      4.47
    9   23   26     13.71      1.65
   11   23   26      6.99      1.89
    0   24   26    -15.31      0.32
    2   24   26     -6.63     -1.22
    4   24   26     -3.09      5.09
    6   24   26      5.60      9.40
    8   24   26      4.04      8.81
    1   25   26     -5.49      6.00
    3   25   26      0.28     -4.25
    5   25   26     -2.46      5.22
   16   17   27      4.06     -2.75
   15   18   27      2.44      3.25
   17   18   27     -1.18      2.97
   12   19   27      3.80     -5.15
   14   19   27      2.67      0.00
   16   19   27      5.84      1.45
   11   20   27    -11.00      4.77
   13   20   27     -0.25     -4.21
   15   20   27     -1.93      0.85
    8   21   27     15.00      0.48
   10   21   27     -1.95      2.85
   12   21   27      6.65      5.83
   14   21   27     -1.39     -2.48
    5   22   27      1.92     13.87
    7   22   27      2.19      4.02
    9   22   27     -0.93     -4.10
   11   22   27      5.60     -0.72
    0   23   27    -10.29     -0.06
    2   23   27      3.56      6.59
    4   23   27      4.24     -3.37
    6   23   27     -5.58      4.66
    8   23   27      1.14     -3.00
   10   23   27      8.05     -0.48
    1   24   27     -4.85     -2.23
    3   24   27      5.93      3.15
    5   24   27      0.94     -0.41
    7   24   27     -3.56     -0.45
    0   25   27     -1.63      0.24
    2   25   27      5.87      4.19
   16   16   28     -2.90    -14.12
   15   17   28      4.87      0.30
   17   17   28     -1.29      2.64
   14   18   28     12.82     -1.15
   16   18   28      1.02     -1.37
   13   19   28      6.35     -4.69
   15   19   28      5.48      1.81
   10   20   28     14.63      1.20
   12   20   28     -2.75      5.83
   14   20   28     -1.41     -0.90
    7   21   28      6.67    -13.33
    9   21   28      1.99     -1.88
   11   21   28     -2.26      7.44
   13   21   28     -5.31      1.19
    2   22   28     -2.03    -12.96
    4   22   28     -6.55     -5.24
    6   22   28      6.38    -14.20
    8   22   28     -2.63     -5.70
   10   22   28     -6.77      3.40
    1   23   28      9.79      4.63
    3   23   28      8.69     11.07
    5   23   28     -1.11      4.01
    7   23   28      6.32      5.54
    9   23   28     -3.40      1.71
    0   24   28      9.59      1.19
    2   24   28      4.85     -1.96
    4   24   28      0.44      0.65
    6   24   28      3.61      1.86
   15   16   29      9.04     -3.53
   14   17   29      8.77      4.37
   16   17   29      3.80     -8.28
   13   18   29      0.37     12.71
   15   18   29      0.24      3.88
   12   19   29      1.94      3.36
   14   19   29      1.08      4.96
    9   20   29      1.51      4.52
   11   20   29     -8.92      4.41
   13   20   29     -0.80      5.35
    6   21   29     14.15     -9.11
    8   21   29      6.08     -6.39
   10   21   29     -8.29      1.37
   12   21   29     -5.40     -3.64
    1   22   29     10.86     14.12
    3   22   29     -9.08      4.36
    5   22   29     -0.61      2.91
    7   22   29     -3.28     -0.59
    9   22   29     -1.33      0.25
   11   22   29     -1.21      2.18
    0   23   29     10.19     -0.79
    2   23   29      2.94      6.68
    4   23   29     -1.49     -0.48
    6   23   29      2.08      1.72
    8   23   29      7.54      1.80
    1   24   29     -3.51      2.62
    3   24   29     -3.38     -1.94
    5   24   29     -3.08      6.03
   16   16   30     -1.87     -6.02
   15   17   30     -6.35     -5.75
   17   17   30     -4.12     -5.10
   12   18   30      1.85      6.81
   14   18   30      2.18     -2.15
   16   18   30     -6.30    -14.13
   11   19   30     -6.90    -10.35
   13   19   30      1.45      0.12
   15   19   30      0.95     -3.96
    8   20   30      3.21      5.57
   10   20   30    -11.64     -0.39
   12   20   30      1.36      4.68
   14   20   30     -3.04     -2.37
    5   21   30     -1.53      9.29
    7   21   30      8.12      1.19
    9   21   30     -6.68     -4.26
   11   21   30      2.22      3.79
    0   22   30     -3.57      1.28
    2   22   30      8.25     15.38
    4   22   30     -2.97      3.27
    6   22   30     -0.15      3.29
    8   22   30      4.21      0.49
   10   22   30      1.95     -0.20
    1   23   30     -1.03      7.65
    3   23   30      5.06     14.73
    5   23   30     -3.70      0.87
    7   23   30     -4.37     -0.47
    0   24   30      2.93      0.18
    2   24   30      5.94      4.19
    4   24   30     -0.93      2.20
   15   16   31      7.35    -15.11
   14   17   31     -2.31     -8.09
   16   17   31     -5.72     -7.40
   11   18   31      6.10      7.17
   13   18   31      2.40     -0.26
   15   18   31     -3.51     -2.00
   10   19   31     -0.35     -9.42
   12   19   31      1.38      1.25
   14   19   31     -5.85     -0.97
    7   20   31     -3.90     -1.53
    9   20   31      0.16     -6.57
   11   20   31     -2.36     -0.54
   13   20   31      4.88     -2.46
    2   21   31      1.49    -14.54
    4   21   31     12.41     -5.89
    6   21   31      8.21    -12.94
    8   21   31      4.89     -3.66
   10   21   31      1.72      4.07
    1   22   31     -0.07     -6.07
    3   22   31     -7.53     -8.18
    5   22   31     -9.45     -2.06
    7   22   31      2.09      1.31
    9   22   31     -2.18      7.39
    0   23   31     12.12      1.16
    2   23   31      1.84      1.42
    4   23   31     -3.76      5.09
    6   23   31      3.61     -1.41
    1   24   31      0.46      0.30
   15   15   32      7.08     -3.94
   14   16   32      5.72      9.96
   16   16   32    -10.30     -3.93
   13   17   32     -4.78     -0.97
   15   17   32     -4.44     -0.86
   12   18   32      8.71    -10.51
   14   18   32      4.50      3.57
    9   19   32      3.50     13.04
   11   19   32      5.59     -3.37
   13   19   32      0.61     -2.14
    6   20   32     14.44     -3.22
    8   20   32     -0.73      1.36
   10   20   32     -7.15      1.14
   12   20   32     -3.05     -6.71
    1   21   32      2.08      1.88
    3   21   32     -1.33      3.67
    5   21   32      3.31     -1.92
    7   21   32     -5.58     -1.62
    9   21   32     -4.23     -4.27
   11   21   32      1.73      0.01
    0   22   32      4.08     -0.56
    2   22   32      4.39      7.83
    4   22   32      3.23     -4.89
    6   22   32     -1.70      5.63
    8   22   32     -0.21      1.31
    1   23   32     -0.52      3.53
    3   23   32     -4.19     -1.43
    5   23   32     -2.43      0.12
   14   15   33      5.96     -0.51
   13   16   33      5.63     -8.01
   15   16   33     -0.88      6.05
   12   17   33      9.55     -0.09
   14   17   33     -4.00     -2.79
   16   17   33     -7.21      9.42
   11   18   33     -8.66     -2.37
   13   18   33     -0.57     -1.30
   15   18   33     -2.52      0.79
    8   19   33     -2.06      0.62
   10   19   33      3.93     -3.99
   12   19   33     -0.44      6.54
    5   20   33      2.38      5.11
    7   20   33     -7.46      8.54
    9   20   33     -2.23      2.99
   11   20   33      4.59      1.01
    0   21   33     -4.53      3.58
    2   21   33     -1.60     -8.17
    4   21   33     -1.42     -4.71
    6   21   33      1.52      2.51
    8   21   33      3.67      2.49
   10   21   33      7.87      0.37
    1   22   33     -6.52      0.63
    3   22   33     -3.28     -5.54
    5   22   33     -3.07      0.20
    7   22   33      1.88      4.72
    0   23   33      4.25      1.82
    2   23   33      5.92     -0.19
    4   23   33      0.04     -1.70
   15   15   34      0.31     -8.94
   12   16   34    -14.51    -11.50
   14   16   34     -0.19     -9.37
   16   16   34     -2.12      2.73
   11   17   34      2.12      3.79
   13   17   34     -2.14     -3.62
   15   17   34      0.98     -2.99
   10   18   34      7.85      8.92
   12   18   34     -0.87      0.80
   14   18   34    -12.61      0.07
    7   19   34     -8.27      4.48
    9   19   34      3.40      3.88
   11   19   34      8.55      5.65
   13   19   34     -2.89     -0.58
    0   20   34     -9.58      1.34
    2   20   34     -0.97     -1.16
    4   20   34     11.54     -3.76
    6   20   34     -0.84     -0.55
    8   20   34      3.55     -0.07
   10   20   34     -3.81      7.44
    1   21   34      1.21     -7.21
    3   21   34      7.87     -9.42
    5   21   34      0.08     -2.95
    7   21   34      3.10      2.38
    9   21   34      1.18      7.03
    0   22   34      1.33      0.87
    2   22   34     -1.31     -3.93
    4   22   34      1.81      0.68
    6   22   34      2.85     -4.95
    1   23   34      3.57     -5.35
   14   15   35     15.24     -0.67
   13   16   35     -5.57     -1.41
   15   16   35     -6.92     -0.35
   10   17   35     -5.21      4.47
   12   17   35      5.80    -12.40
   14   17   35      2.07      2.59
    9   18   35      3.18     15.42
   11   18   35      0.88     -3.90
   13   18   35      1.87     -3.81
    6   19   35      1.13    -11.13
    8   19   35     -2.31     11.39
   10   19   35      2.96      6.19
   12   19   35      1.75      2.02
    1   20   35      1.47     -3.36
    3   20   35     -4.37      0.51
    5   20   35      2.86     -7.96
    7   20   35      9.34     -4.03
    9   20   35     -0.36      0.40
    0   21   35      9.68      0.98
    2   21   35      3.57     -9.43
    4   21   35    -11.40     -5.02
    6   21   35     -1.47     -1.04
    8   21   35      1.06     -7.34
    1   22   35     -2.27      1.45
    3   22   35      1.82     -0.66
    5   22   35      2.41     -0.87
   14   14   36     -7.99    -12.02
   13   15   36      2.35     -5.57
   15   15   36      8.82     -8.36
   12   16   36     -2.00    -11.55
   14   16   36     -1.65    -13.47
    9   17   36     -3.19      0.01
   11   17   36      2.90     -1.55
   13   17   36      3.63     -8.81
    8   18   36     -3.17     -0.61
   10   18   36     -2.24     -1.47
   12   18   36     -6.44     -2.38
    1   19   36      5.00      3.69
    3   19   36     -8.60      1.89
    5   19   36     -4.98     14.44
    7   19   36     -5.41      4.07
    9   19   36      0.29     -6.42
   11   19   36     -2.52     -0.37
    0   20   36    -11.54      0.20
    2   20   36    -13.07      2.48
    4   20   36      3.58      1.43
    6   20   36     -7.56     -0.58
    8   20   36      1.12     -2.38
   10   20   36      1.83      2.82
    1   21   36     -2.95      1.95
    3   21   36     -0.83      0.00
    5   21   36      1.13      3.71
    7   21   36      0.66     -0.01
    0   22   36     -6.11      1.08
    2   22   36      1.78      0.02
    4   22   36      1.87      0.66
   13   14   37      0.85      2.45
   12   15   37     -4.43     -5.44
   14   15   37     -8.27     -6.60
   11   16   37     -2.87      5.32
   13   16   37      1.99     -7.61
   15   16   37      1.72     -3.27
    8   17   37      4.42     -0.92
   10   17   37     -8.91     -0.77
   12   17   37    -10.24      0.43
    5   18   37     -2.58      6.48
    7   18   37     -4.79     -1.95
    9   18   37      3.38      3.86
   11   18   37     -0.10     -4.94
    0   19   37      6.26      0.31
    2   19   37      1.11      1.01
    4   19   37     -1.72      6.19
    6   19   37      0.86      2.99
    8   19   37     -2.68     -1.87
   10   19   37     -5.29      6.47
    1   20   37     -2.60     -2.77
    3   20   37      1.43      3.35
    5   20   37      4.71      2.33
    7   20   37      6.17      0.65
    9   20   37     -0.60      0.66
    0   21   37      8.36     -0.09
    2   21   37      3.52     -0.54
    4   21   37     -1.85     -2.53
    6   21   37      2.54      1.77
   13   13   38    -17.23     14.20
   12   14   38     13.64      9.92
   14   14   38     13.04     -3.22
   11   15   38      6.09     -0.75
   13   15   38      1.20     16.53
   15   15   38      4.56     -7.78
   10   16   38      4.17     -2.58
   12   16   38      3.80     -1.96
   14   16   38      1.39      1.25
    7   17   38     -3.84     -6.91
    9   17   38     -5.55      2.17
   11   17   38     -2.80      0.94
   13   17   38     -1.47     -4.46
    2   18   38      9.79     -7.55
    4   18   38      5.07     -0.01
    6   18   38      7.29     -4.45
    8   18   38      4.31      3.19
   10   18   38     -4.54      1.53
    1   19   38      0.58      7.30
    3   19   38     -1.94      2.45
    5   19   38      0.62     -3.99
    7   19   38      8.65      3.20
    9   19   38     -4.41     -5.57
    0   20   38      6.37     -0.21
    2   20   38      2.87     -6.90
    4   20   38     -1.36     -4.36
    6   20   38      2.03     -3.66
    8   20   38     -0.29      0.83
    1   21   38      0.57     -0.38
    3   21   38     -3.93      2.66
   12   13   39     10.10     10.02
   11   14   39      3.97     11.81
   13   14   39      5.68      3.38
   10   15   39      9.83      5.59
   12   15   39     -8.88     -1.03
   14   15   39     -3.96     -4.73
    9   16   39      4.61     -2.15
   11   16   39      6.79      4.47
   13   16   39      0.06     -5.78
    6   17   39     -0.31     -9.02
    8   17   39      2.51     -9.59
   10   17   39      7.62     -2.47
   12   17   39     -7.02      6.75
    1   18   39      7.52      1.62
    3   18   39     -2.45     -2.42
    5   18   39     -4.55     10.85
    7   18   39     -6.50     -9.63
    9   18   39     -0.37     -5.70
   11   18   39     -3.94     -2.85
    0   19   39      1.68     -0.37
    2   19   39     -0.72      0.46
    4   19   39      4.13      1.54
    6   19   39     -2.79      4.05
    8   19   39      1.48     -7.88
    1   20   39     -5.33      1.41
    3   20   39     -3.25      2.48
    5   20   39     -3.45      7.08
    0   21   39     -7.03     -0.07
    2   21   39      2.69      4.05
   12   12   40    -10.39     -5.58
   11   13   40     -2.92    -14.15
   13   13   40     -0.50     -2.33
   10   14   40     -8.56     -0.80
   12   14   40      4.11     -3.46
   14   14   40      5.44      5.55
    9   15   40     -0.11     -6.74
   11   15   40      7.57      1.71
   13   15   40     -0.17      6.44
    6   16   40     10.35     12.86
    8   16   40      9.47     -6.18
   10   16   40      2.11      1.97
   12   16   40     -1.13      4.99
    1   17   40    -10.83     -8.53
    3   17   40     -7.47      5.22
    5   17   40      2.42      6.84
    7   17   40      6.83      4.09
    9   17   40      4.87     -3.32
   11   17   40     -1.43      3.29
    0   18   40      2.96     -0.04
    2   18   40     -1.51     -9.12
    4   18   40     -7.08      6.75
    6   18   40      5.21      5.81
    8   18   40      6.15      4.61
   10   18   40      1.02      3.55
    1   19   40     -5.33     -5.41
    3   19   40     -2.42     12.43
    5   19   40     -3.09     -4.66
    7   19   40     -1.70     -0.35
    0   20   40     13.44      0.83
    2   20   40      4.34     -4.93
    4   20   40     -1.47     -1.80
   10   13   41    -14.78      7.69
   12   13   41     -6.82      1.96
    9   14   41      1.13     -3.12
   11   14   41      5.59     -2.90
   13   14   41     -0.66      0.15
    8   15   41     -9.64      1.64
   10   15   41      1.39    -11.42
   12   15   41      5.79      4.75
    5   16   41      2.20     -3.02
    7   16   41     -0.36     -0.29
    9   16   41      2.87     -3.94
   11   16   41      0.83     -2.61
    0   17   41     -1.80      0.16
    2   17   41     -1.78     -3.17
    4   17   41      0.85      6.76
    6   17   41     -5.14     -8.45
    8   17   41     -4.92     -3.48
   10   17   41      1.69      1.74
    1   18   41      9.70      7.67
    3   18   41      3.77      1.04
    5   18   41     -0.99      1.19
    7   18   41     -2.79     -0.52
    9   18   41     -2.81      2.63
    0   19   41      0.38      0.73
    2   19   41      5.14      3.99
    4   19   41      6.70     -1.39
    6   19   41     -2.99     -0.55
    1   20   41      0.70      1.03
   12   12   42     -9.65     -4.78
    9   13   42      7.85      4.42
   11   13   42      4.44     -0.73
   13   13   42      8.17      4.21
    8   14   42     -2.22     15.73
   10   14   42      0.89     12.63
   12   14   42     -4.71      0.47
    5   15   42      5.16     -0.81
    7   15   42     -4.95     -0.38
    9   15   42     -4.03      1.18
   11   15   42      8.15     -4.54
    0   16   42     -4.97      1.06
    2   16   42     -5.31      4.01
    4   16   42      1.96     -6.68
    6   16   42     -3.27     -0.32
    8   16   42      0.75      0.80
   10   16   42      5.09      0.20
    1   17   42     -6.87      5.14
    3   17   42      2.13     -0.03
    5   17   42     -1.03      5.23
    7   17   42     -6.65     -1.95
    9   17   42      3.56      0.32
    0   18   42     -1.18      0.69
    2   18   42     -1.09     -4.46
    4   18   42     -0.04     -3.82
    6   18   42     -8.50      3.27
    1   19   42     -4.76     -3.12
    3   19   42     -3.14     -1.45
    5   19   42     -2.31      4.29
    9   12   43      6.37      1.34
   11   12   43      5.40      1.41
    8   13   43     -0.58      6.95
   10   13   43     -9.48     -0.20
   12   13   43     -0.12     -4.97
    7   14   43      5.76     -0.12
    9   14   43     -0.22      0.78
   11   14   43      2.06    -13.93
   13   14   43      2.39     -3.21
    0   15   43     10.33     -1.58
    2   15   43      3.33      1.79
    4   15   43     -6.33      1.12
    6   15   43      3.38      1.19
    8   15   43     -3.09     -3.59
   10   15   43      2.94     -6.52
    1   16   43     -1.87     -1.69
    3   16   43     -4.65      3.11
    5   16   43      9.28      5.98
    7   16   43     10.00      6.81
    9   16   43      4.61     -4.59
    0   17   43     -4.06     -0.01
    2   17   43     -6.31     -7.66
    4   17   43     -4.77      4.77
    6   17   43     11.41      4.35
    8   17   43     -0.01     -3.17
    1   18   43     -1.08     -7.08
    3   18   43     -3.07      1.07
    5   18   43     -2.45     -0.68
    0   19   43      6.30      1.55
    2   19   43      3.87     -1.42
   11   11   44     -2.16     -1.58
    8   12   44     -3.10      4.82
   10   12   44      0.14     -0.73
   12   12   44     -6.21     -1.34
    7   13   44     -5.00     -3.19
    9   13   44     -9.12     -2.76
   11   13   44     -2.69      9.87
   13   13   44     -2.35     -2.92
    4   14   44     -2.18      4.43
    6   14   44     10.81      1.70
    8   14   44     -2.39      6.21
   10   14   44      3.53      4.90
   12   14   44      2.34     -1.06
    1   15   44     -2.55     -9.95
    3   15   44     -3.43     -2.17
    5   15   44     -1.93      0.72
    7   15   44     -2.06      4.12
    9   15   44     -2.73     -1.43
    0   16   44     -4.02      0.40
    2   16   44      0.16     -6.56
    4   16   44     -4.51     -7.02
    6   16   44     -5.01     -5.16
    8   16   44     -3.95     -0.28
    1   17   44     -4.54     -1.38
    3   17   44     -5.57     -0.03
    5   17   44     -1.64     -4.45
    7   17   44     -7.93     -1.00
    0   18   44     -5.16      1.01
    2   18   44     -1.70      5.40
    4   18   44      6.53     -0.77
    8   11   45      0.34      2.44
   10   11   45      3.76     -0.15
    7   12   45     -3.22     -2.39
    9   12   45      5.87      7.23
   11   12   45      4.62     -5.26
    4   13   45      4.72      1.09
    6   13   45     -2.81     -0.48
    8   13   45     12.17      2.10
   10   13   45      3.83      4.35
   12   13   45      0.47     -0.03
    1   14   45     10.58     -3.24
    3   14   45     -6.88     -6.09
    5   14   45      0.84     -3.44
    7   14   45     -0.11     -2.59
    9   14   45      0.60      4.03
   11   14   45     -3.06      0.44
    0   15   45     15.77      0.60
    2   15   45     -5.29     -1.71
    4   15   45     -0.01     -1.14
    6   15   45      1.85     -0.82
    8   15   45      4.86     -1.06
    1   16   45     -5.67      7.42
    3   16   45     -2.25      3.24
    5   16   45      6.15      2.90
    7   16   45      6.18      1.40
    0   17   45     -1.31      0.26
    2   17   45      1.66     -2.97
    4   17   45      0.83     -2.00
    9    9   46      7.42     -5.28
    8   10   46     -4.03     -1.47
   10   10   46      1.49     -6.82
    7   11   46     -5.16     -6.24
    9   11   46      2.67    -11.78
   11   11   46      4.67     -3.42
    4   12   46      9.69     -8.11
    6   12   46      3.86      3.54
    8   12   46     -1.69     -0.02
   10   12   46      0.16      0.29
   12   12   46      3.85      5.20
    1   13   46     -2.09     -7.83
    3   13   46      4.14     -2.71
    5   13   46     -5.77      3.80
    7   13   46     -0.69      2.98
    9   13   46    -11.20      2.06
   11   13   46     -5.02      4.52
    0   14   46      3.95     -1.04
    2   14   46      5.69      3.25
    4   14   46     -3.03      8.49
    6   14   46      3.92      7.82
    8   14   46     -4.27     -0.60
   10   14   46     -0.60     -2.57
    1   15   46      0.13     -6.11
    3   15   46     -0.96      0.00
    5   15   46     -2.72     -0.92
    7   15   46      1.19      2.10
    0   16   46      1.18     -1.29
    2   16   46      1.55      3.97
    4   16   46      3.04      7.05
    6   16   46      8.28      2.86
    1   17   46      3.78     -1.66
    3   17   46     -4.90      1.09
    8    9   47     -8.69      6.73
    7   10   47      3.70     -0.45
    9   10   47      2.68      3.52
    4   11   47     -1.95     -4.37
    6   11   47      4.35    -10.88
    8   11   47      1.08     -0.02
   10   11   47     -0.81      2.52
    1   12   47      2.94     -1.24
    3   12   47    -13.34      4.31
    5   12   47     -0.74     -0.28
    7   12   47      3.97     -1.39
    9   12   47     -4.49    -10.72
   11   12   47     -1.89     13.35
    0   13   47      5.86      1.59
    2   13   47      2.55     -6.26
    4   13   47     -9.30      5.82
    6   13   47      0.92      2.24
    8   13   47     -9.07     -7.43
   10   13   47      1.90     -0.30
    1   14   47     -7.64     -2.10
    3   14   47     -3.34      3.68
    5   14   47      5.27      4.28
    7   14   47     -1.13     -2.05
    9   14   47      1.46      2.78
    0   15   47      0.86     -0.60
    2   15   47      6.49      2.35
    4   15   47     -0.48      5.04
    6   15   47     -1.38      3.82
    1   16   47      0.11      0.91
    3   16   47     -0.65      1.54
    8    8   48      4.18      6.00
    7    9   48     -4.58     -4.67
    9    9   48      4.36     -5.86
    4   10   48      0.64     -5.86
    6   10   48      9.10     -0.60
    8   10   48      3.98     -0.01
   10   10   48     -6.67      9.34
    1   11   48     -8.13     -3.24
    3   11   48     -7.19     -3.27
    5   11   48      7.96     -1.38
    7   11   48     -0.99     -6.41
    9   11   48     -1.60      1.88
   11   11   48      0.82     -0.69
    0   12   48      9.49     -0.13
    2   12   48     -0.64     -4.28
    4   12   48      0.18      1.67
    6   12   48     -4.80     -0.06
    8   12   48     -2.07      0.57
   10   12   48     -3.08      9.35
    1   13   48      1.93     -2.01
    3   13   48      2.16     -4.91
    5   13   48      1.43     -0.90
    7   13   48     -2.75      0.17
    9   13   48      0.78      6.94
    0   14   48     11.96      0.16
    2   14   48      3.31      3.09
    4   14   48      0.72      2.70
    6   14   48     -5.53      1.55
    1   15   48     -1.49      3.25
    3   15   48     -2.10     -1.39
    5   15   48     -1.60     -4.35
    5    8   49     -3.39      4.55
    7    8   49     -4.30     -5.25
    4    9   49     -0.95     -0.05
    6    9   49      4.19      2.32
    8    9   49      1.07      0.95
    1   10   49      5.06      5.50
    3   10   49    -12.29      0.72
    5   10   49    -10.69      6.13
    7   10   49     -3.87     -2.21
    9   10   49     -2.28      2.96
    0   11   49     -1.46      0.28
    2   11   49      4.91     -0.24
    4   11   49      4.63     -2.73
    6   11   49      2.63     -2.99
    8   11   49     -4.43      4.05
   10   11   49      3.27     -0.07
    1   12   49     -7.80      1.81
    3   12   49     -2.10      3.98
    5   12   49      3.03     -3.41
    7   12   49      3.52      1.19
    9   12   49      1.17      1.55
    0   13   49     -2.77     -0.76
    2   13   49     -0.79      4.00
    4   13   49      2.44     -0.12
    6   13   49     -0.97     -0.52
    1   14   49     -8.82     -0.77
    3   14   49     -1.19      6.59
    5   14   49     -1.68      1.96
    0   15   49     -6.37     -1.53
    2   15   49     -0.79      2.96
    0    0   50     20.32     -3.33
    6    6   50      2.13      7.85
    5    7   50      1.65      4.31
    7    7   50      1.93      6.50
    2    8   50    -10.29     -4.21
    4    8   50     -6.38      3.25
    6    8   50     -1.68      3.87
    8    8   50     -6.76     12.29
    1    9   50     -8.17     -0.46
    3    9   50      2.84      2.38
    5    9   50     -3.07     -0.45
    7    9   50     -5.66      1.02
    9    9   50     -5.27      6.65
    0   10   50      5.13      0.52
    2   10   50     -0.77      8.73
    4   10   50      0.27      3.05
    6   10   50     -2.01     -2.59
    8   10   50      0.51      4.13
   10   10   50     -6.16      4.19
    1   11   50      2.19      1.69
    3   11   50     -0.83     -4.00
    5   11   50     -3.01    -13.36
    7   11   50      4.67     -2.23
    9   11   50      0.73      2.76
    0   12   50     15.69      0.50
    2   12   50      6.67      4.60
    4   12   50     -7.58     -1.64
    6   12   50     -1.53      0.56
    1   13   50     -0.62      2.12
    3   13   50     -4.19     -1.11
    5   13   50     -0.71     -2.00
    0   14   50      1.55     -0.82
    2   14   50      2.02     -0.43
    4    5   51     -2.14    -12.86
    3    6   51     -5.82      5.73
    5    6   51     -2.55      0.96
    0    7   51      6.56      0.48
    2    7   51     -6.07     -7.76
    4    7   51     -3.52     -4.50
    6    7   51     -0.63     -0.43
    1    8   51      8.04      2.52
    3    8   51     -4.57     11.99
    5    8   51     -3.62      0.99
    7    8   51     -5.35     -3.69
    0    9   51     -2.75      0.51
    2    9   51     -1.77      0.29
    4    9   51     -3.65     -0.27
    6    9   51     -1.09      1.05
    8    9   51     -1.19     -0.68
    1   10   51     -3.71      0.20
    3   10   51     -6.93      2.53
    5   10   51      1.87     -0.36
    7   10   51     -2.69      2.47
    9   10   51      3.00     -2.56
    0   11   51     -4.49      0.37
    2   11   51     -2.64     -1.30
    4   11   51      3.01      5.17
    6   11   51      4.01      1.18
    1   12   51    -10.73     -2.93
    3   12   51     -5.54     -4.71
    5   12   51      0.17     -0.54
    0   13   51      0.89      0.11
    2   13   51      4.02      2.02
    3    3   52     -4.18    -13.49
    0    4   52     -1.17      2.83
    2    4   52      2.54     -6.69
    4    4   52     -5.90      7.07
    1    5   52      3.74     -4.81
    3    5   52     -3.12     -4.64
    5    5   52      9.88      7.92
    0    6   52     -1.31     -1.50
    2    6   52     -2.46     -8.38
    4    6   52      3.60     -0.60
    6    6   52      6.06     -9.70
    1    7   52      2.59      5.09
    3    7   52     -1.66     -2.86
    5    7   52      3.12      0.64
    7    7   52      0.11      3.21
    0    8   52      0.60     -1.21
    2    8   52     -5.79      6.87
    4    8   52      4.49     -2.02
    6    8   52     -1.97      1.70
    8    8   52      3.54      2.15
    1    9   52      3.63      6.73
    3    9   52      5.08     -2.52
    5    9   52     -1.76      2.43
    7    9   52      2.43     -2.56
    0   10   52      4.35     -1.37
    2   10   52      3.77     -1.17
    4   10   52     -2.51      0.64
    6   10   52     -3.88      2.37
    1   11   52      8.33     -4.28
    3   11   52      1.37     -5.30
    5   11   52     -0.94     -4.90
    0   12   52      6.28      0.05
    2   12   52      5.04      1.47
    0    1   53      8.11     -1.10
    1    2   53      5.59      2.94
    0    3   53      8.47     -0.69
    2    3   53     -0.76      4.43
    1    4   53      5.51     -5.24
    3    4   53     -2.79     -1.58
    0    5   53     13.37     -0.47
    2    5   53     -1.90     -4.04
    4    5   53     -7.79      0.77
    1    6   53      5.21      0.93
    3    6   53      3.13      5.05
    5    6   53     -2.37      9.81
    0    7   53     -6.13      1.16
    2    7   53      9.88     -5.14
    4    7   53     -0.07     -1.69
    6    7   53     -2.79      1.92
    1    8   53     -1.20     -3.92
    3    8   53      6.49      3.33
    5    8   53     -1.70      0.21
    7    8   53     -4.31      1.23
    0    9   53     -4.21      1.43
    2    9   53      1.68     -0.79
    4    9   53     -3.15     -0.83
    6    9   53     -1.65      1.42
    1   10   53     -2.38      2.51
    3   10   53     -0.16     -0.44
    5   10   53      0.47     -1.75
    0   11   53      3.46      1.76
    2   11   53      0.65      3.78
    0    0    0      0.00      0.00
# SQUEEZE RESULTS (Version = 190619)
# Note: Data are Listed for all Voids in the P1 Unit Cell
# i.e. Centre of Gravity, Solvent Accessible Volume,
# Recovered number of Electrons in the Void and
# Details about the Squeezed Material
loop_
  _platon_squeeze_void_nr
  _platon_squeeze_void_average_x
  _platon_squeeze_void_average_y
  _platon_squeeze_void_average_z
  _platon_squeeze_void_volume
  _platon_squeeze_void_count_electrons
  _platon_squeeze_void_content
   1  0.000  0.000  0.000      1185       368 ' '
   2 -0.023  0.483  0.000      4214       991 ' '
   3 -0.023 -0.018  0.500      4214       991 ' '
   4  0.500  0.500  0.500      1185       368 ' '
# Missing Reflections Below sin(th)/lambda = 0.25
loop_
  _platon_missing_refln_index_h
  _platon_missing_refln_index_k
  _platon_missing_refln_index_l
  _platon_missing_refln_theta
    1    1    0     1.318
    0    2    0     1.864
    2    2    0     2.636
    0    1    1     1.039
    1    2    1     2.134
    0    3    1     2.834
    0    0    2     0.920
    1    1    2     1.607
    0    2    2     2.078
    2    2    2     2.792
    0    1    3     1.665
    1    2    3     2.500
    0    0    4     1.840
    0    2    4     2.619
    0    1    5     2.482
    0    0    6     2.760
_platon_squeeze_void_probe_radius                  1.20
_platon_squeeze_details
)
TITL mo_gongyr171027_0m_a.res in I-4 New:I-42m
CELL   21.8540   21.8540   44.2730     90.00     90.00     90.00
SPGR I-42m
# Solvent Accessible Volume =     10797
# Electrons Found in S.A.V. =      2602
# Note: Atoms in Void are Labelled as Cxxx and Qxxx for all Others
C101 1.000 1.001 0.031 !       7.19 eA-3
C102 0.831 0.161 0.356 !       5.72 eA-3
C103 0.308 0.308 0.174 !       4.51 eA-3
C104 0.500 1.001 0.000 !       3.73 eA-3
C105 1.000 0.999 0.067 !       3.20 eA-3
C106 0.500 0.500 0.176 !       2.98 eA-3
C107 0.104 0.840 0.355 !       2.94 eA-3
C108 0.369 0.371 0.435 !       2.87 eA-3
C109 0.929 0.070 0.422 !       2.78 eA-3
C110 0.485 0.517 0.203 !       2.71 eA-3
C111 0.558 0.254 0.206 !       2.65 eA-3
C112 0.048 0.531 0.022 !       2.52 eA-3
C113 0.232 0.805 0.320 !       2.49 eA-3
C114 0.804 0.804 0.398 !       2.41 eA-3
Q115 0.323 0.328 0.203 !       2.39 eA-3
Q116 0.632 0.659 0.459 !       2.35 eA-3
C117 0.499 0.855 0.099 !       2.35 eA-3
Q118 0.840 0.870 0.957 !       2.34 eA-3
C119 0.135 0.872 0.346 !       2.30 eA-3
C120 0.102 0.501 0.101 !       2.21 eA-3
C121 0.486 0.481 0.189 !       2.19 eA-3
Q122 0.843 0.872 0.972 !       2.15 eA-3
Q123 0.116 0.887 0.324 !       2.14 eA-3
Q124 0.149 0.861 0.331 !       2.10 eA-3
Q125 0.281 0.723 0.067 !       2.08 eA-3
Q126 0.921 0.649 0.441 !       2.08 eA-3
C127 0.791 0.854 0.399 !       2.07 eA-3
Q128 0.670 0.617 0.442 !       2.06 eA-3
C129 0.476 0.477 0.156 !       2.05 eA-3
Q130 0.596 0.679 0.465 !       2.05 eA-3
C131 0.016 0.541 0.013 !       2.03 eA-3
C132 0.960 0.632 0.409 !       2.00 eA-3
Q133 0.595 0.598 0.359 !       2.00 eA-3
C134 0.953 0.667 0.424 !       1.98 eA-3
Q135 0.232 0.604 0.058 !       1.97 eA-3
Q136 0.932 0.700 0.438 !       1.97 eA-3
C137 0.140 0.143 0.375 !       1.94 eA-3
Q138 0.603 0.705 0.452 !       1.92 eA-3
C139 0.343 0.342 0.434 !       1.91 eA-3
C140 0.108 0.532 0.110 !       1.90 eA-3
C141 0.645 0.610 0.418 !       1.89 eA-3
Q142 0.627 0.626 0.368 !       1.88 eA-3
Q143 0.085 0.912 0.324 !       1.87 eA-3
Q144 0.256 0.682 0.066 !       1.85 eA-3
C145 0.592 0.594 0.460 !       1.84 eA-3
Q146 0.315 0.097 0.422 !       1.84 eA-3
C147 0.978 0.023 0.152 !       1.83 eA-3
C148 0.603 0.392 0.847 !       1.82 eA-3
C149 0.103 0.892 0.347 !       1.82 eA-3
Q150 0.892 0.647 0.443 !       1.81 eA-3
Q151 0.581 0.687 0.448 !       1.80 eA-3
C152 1.000 0.495 0.023 !       1.80 eA-3
C153 0.600 0.633 0.394 !       1.80 eA-3
C154 0.962 0.041 0.140 !       1.79 eA-3
C155 0.118 0.145 0.396 !       1.78 eA-3
Q156 0.298 0.352 0.187 !       1.77 eA-3
Q157 0.621 0.618 0.474 !       1.77 eA-3
Q158 0.800 0.162 0.063 !       1.77 eA-3
Q159 0.154 0.388 0.941 !       1.77 eA-3
C160 0.574 1.000 0.000 !       1.77 eA-3
C161 0.469 0.470 0.176 !       1.76 eA-3
C162 0.779 0.875 0.390 !       1.75 eA-3
C163 0.109 0.111 0.410 !       1.74 eA-3
C164 0.582 0.642 0.449 !       1.74 eA-3
C165 0.017 0.820 0.016 !       1.74 eA-3
Q166 0.258 0.706 0.081 !       1.71 eA-3
C167 1.000 0.157 0.001 !       1.71 eA-3
Q168 0.874 0.713 0.436 !       1.71 eA-3
C169 0.711 0.510 0.183 !       1.68 eA-3
C170 0.060 0.534 0.000 !       1.68 eA-3
C171 0.554 0.603 0.446 !       1.67 eA-3
C172 0.848 0.848 0.401 !       1.67 eA-3
C173 0.038 0.035 0.679 !       1.66 eA-3
Q174 0.254 0.651 0.058 !       1.64 eA-3
C175 0.927 0.657 0.423 !       1.64 eA-3
Q176 0.881 0.665 0.422 !       1.64 eA-3
Q177 0.264 0.269 0.152 !       1.64 eA-3
Q178 0.247 0.313 0.164 !       1.63 eA-3
C179 0.624 0.627 0.410 !       1.61 eA-3
C180 0.872 0.946 0.107 !       1.61 eA-3
C181 0.074 0.081 0.413 !       1.61 eA-3
Q182 0.298 0.299 0.141 !       1.60 eA-3
C183 1.000 1.002 0.254 !       1.58 eA-3
C184 0.073 0.462 0.111 !       1.57 eA-3
Q185 0.923 0.631 0.411 !       1.55 eA-3
C186 0.730 0.892 0.423 !       1.54 eA-3
C187 0.049 0.853 0.006 !       1.52 eA-3
C188 0.936 0.680 0.412 !       1.52 eA-3
C189 0.898 0.055 0.417 !       1.51 eA-3
Q190 0.578 0.648 0.481 !       1.51 eA-3
C191 0.207 1.001 0.000 !       1.51 eA-3
C192 0.338 0.071 0.400 !       1.50 eA-3
C193 0.561 0.076 0.108 !       1.50 eA-3
C194 0.570 0.343 0.519 !       1.50 eA-3
C195 0.618 0.617 0.449 !       1.49 eA-3
C196 0.386 0.520 0.109 !       1.47 eA-3
Q197 0.241 0.756 0.309 !       1.46 eA-3
C198 0.048 0.843 0.047 !       1.45 eA-3
Q199 0.327 0.762 0.082 !       1.44 eA-3
)
;
_shelx_fab_checksum              16945
_olex2_submission_special_instructions 'No special instructions were received'
loop_
_space_group_symop_operation_xyz
'x, y, z'
'y, -x, -z'
'-x, -y, z'
'-y, x, -z'
'x, -y, -z'
'-y, -x, z'
'-x, y, -z'
'y, x, z'
'x+1/2, y+1/2, z+1/2'
'y+1/2, -x+1/2, -z+1/2'
'-x+1/2, -y+1/2, z+1/2'
'-y+1/2, x+1/2, -z+1/2'
'x+1/2, -y+1/2, -z+1/2'
'-y+1/2, -x+1/2, z+1/2'
'-x+1/2, y+1/2, -z+1/2'
'y+1/2, x+1/2, z+1/2'
loop_
_atom_site_label
_atom_site_type_symbol
_atom_site_fract_x
_atom_site_fract_y
_atom_site_fract_z
_atom_site_U_iso_or_equiv
_atom_site_adp_type
_atom_site_occupancy
_atom_site_site_symmetry_order
_atom_site_calc_flag
_atom_site_refinement_flags_posn
_atom_site_refinement_flags_adp
_atom_site_refinement_flags_occupancy
_atom_site_disorder_assembly
_atom_site_disorder_group
Nb1 Nb 0.28426(4) 0.28426(4) 0.05961(3) 0.0427(4) Uani 1 2 d DS T P . .
V1 V 0.16384(8) 0.34466(8) 0.03392(4) 0.0413(4) Uani 1 1 d D . . . .
V2 V 0.18127(8) 0.29572(8) 0.11025(4) 0.0403(4) Uani 1 1 d D . . . .
V3 V 0.28130(7) 0.28130(7) -0.01218(5) 0.0355(5) Uani 1 2 d DS T P A .
V4 V -0.21153(9) 0.21153(9) 0.23742(6) 0.0500(7) Uani 1 2 d S T P . .
V5 V -0.11935(9) 0.11935(9) 0.24831(6) 0.0469(7) Uani 1 2 d S T P . .
V6 V -0.09974(9) 0.25725(8) 0.21024(4) 0.0441(5) Uani 1 1 d . . . . .
V7 V -0.24055(8) 0.24055(8) 0.17486(6) 0.0449(6) Uani 1 2 d S T P . .
Cl1 Cl -0.14389(14) 0.14389(14) 0.18257(9) 0.0550(10) Uani 1 2 d S T P . .
S1 S 0.1778(4) 0.1778(4) 0.0525(2) 0.083(2) Uani 0.5 2 d DS TU P A 1
S2 S 0.1793(5) 0.1793(5) 0.0225(3) 0.111(2) Uani 0.5 2 d DS TU P A 2
O1 O 0.2032(4) 0.2926(5) -0.0365(2) 0.0686(19) Uani 1 1 d . U . . .
O2 O 0.1587(4) 0.2305(4) 0.14122(19) 0.0604(18) Uani 1 1 d . U . . .
O3 O -0.0733(4) 0.3180(4) 0.22427(18) 0.058(2) Uani 1 1 d . U . . .
O4 O 0.1880(4) 0.3509(4) 0.13372(18) 0.060(2) Uani 1 1 d . U . . .
O5 O 0.2450(4) 0.3239(4) 0.02132(19) 0.0615(17) Uani 1 1 d . U . . .
O6 O -0.1790(3) 0.2670(4) 0.14410(17) 0.0502(17) Uani 1 1 d . U . . .
O7 O -0.1053(4) 0.1053(4) 0.2829(2) 0.055(3) Uani 1 2 d S TU P . .
O8 O 0.3276(4) 0.3276(4) -0.0296(3) 0.059(3) Uani 1 2 d S TU P . .
O9 O -0.0211(3) 0.2104(4) 0.20651(16) 0.0489(16) Uani 1 1 d . U . . .
O10 O -0.1276(3) 0.2087(4) 0.24532(16) 0.0484(16) Uani 1 1 d . U . . .
O11 O -0.0867(3) 0.2750(4) 0.16544(16) 0.0496(16) Uani 1 1 d . U . . .
O12 O -0.2915(4) 0.2915(4) 0.1703(3) 0.064(3) Uani 1 2 d S TU P . .
O13 O 0.2628(4) 0.2628(4) 0.1050(3) 0.058(2) Uani 1 2 d S TU P . .
O14 O -0.0338(4) 0.1226(4) 0.23148(17) 0.0505(17) Uani 1 1 d . U . . .
O15 O 0.1271(4) 0.3207(5) -0.0068(2) 0.072(2) Uani 1 1 d . U . . .
O16 O 0.0801(4) 0.3275(4) 0.05109(19) 0.0661(18) Uani 1 1 d . U . . .
O17 O 0.0923(4) 0.3011(4) 0.10032(18) 0.0631(18) Uani 1 1 d . U . . .
O18 O 0.1582(5) 0.4173(4) 0.0311(2) 0.076(3) Uani 1 1 d . U . . .
O19 O 0.2041(4) 0.3287(4) 0.07099(18) 0.0588(17) Uani 1 1 d . U . . .
O20 O 0.3385(3) 0.3385(3) 0.0679(2) 0.051(3) Uani 1 2 d S TU P . .
O21 O -0.2696(3) 0.1884(3) 0.20832(16) 0.0493(18) Uani 1 1 d . U . . .
O22 O -0.2464(4) 0.2464(4) 0.2643(3) 0.062(3) Uani 1 2 d S TU P . .
O23 O 0.1366(5) 0.1366(5) 0.0393(4) 0.099(3) Uani 1 2 d S TU P . .
O24 O 0.1471(5) 0.2350(5) 0.0324(3) 0.099(2) Uani 1 1 d D U . . .
O25 O 0.1492(9) 0.2041(8) 0.0816(4) 0.079(2) Uani 0.5 1 d D U . . .
O26 O 0.2151(4) 0.2151(4) 0.0439(3) 0.095(2) Uani 1 2 d DS TU P A .
O27 O 0.2022(5) 0.2022(5) -0.0064(4) 0.100(3) Uani 1 2 d DS TU P . .
C1 C 0.1796(5) 0.1796(5) 0.1487(4) 0.052(3) Uani 1 2 d S TU P . .
C2 C 0.0906(5) 0.1680(5) 0.1833(3) 0.049(2) Uani 1 1 d . U . . .
H2 H 0.076599 0.205812 0.176534 0.059 Uiso 1 1 calc R . . . .
C3 C 0.0570(5) 0.1350(5) 0.2045(3) 0.051(2) Uani 1 1 d . U . . .
C4 C -0.0038(5) 0.1563(5) 0.2153(2) 0.048(2) Uani 1 1 d . U . . .
C5 C 0.0591(6) 0.3150(6) 0.0776(3) 0.060(2) Uani 1 1 d . U . . .
C6 C -0.1227(5) 0.2753(5) 0.1436(2) 0.045(2) Uani 1 1 d . U . . .
C7 C 0.0783(5) 0.0783(5) 0.2141(4) 0.047(3) Uani 1 2 d S TU P . .
H7 H 0.054259 0.054260 0.226733 0.057 Uiso 1 2 d RS T P . .
C8 C 0.1445(6) 0.1445(6) 0.1723(4) 0.051(3) Uani 1 2 d S TU P . .
C9 C -0.0953(5) 0.2887(6) 0.1129(2) 0.049(2) Uani 1 1 d . U . . .
C10 C -0.0057(6) 0.3079(6) 0.0806(3) 0.055(2) Uani 1 1 d . U . . .
C11 C -0.0447(5) 0.3113(6) 0.0556(3) 0.052(2) Uani 1 1 d . U . . .
H11 H -0.028509 0.320030 0.036652 0.062 Uiso 1 1 calc R . . . .
C12 C -0.0330(5) 0.2943(6) 0.1097(3) 0.0515(19) Uani 1 1 d . U . . .
H12 H -0.007875 0.289267 0.126490 0.062 Uiso 1 1 calc R . . . .
C13 C -0.1080(5) 0.3019(6) 0.0587(3) 0.053(2) Uani 1 1 d . U . . .
C14 C -0.1341(5) 0.2908(6) 0.0877(2) 0.049(2) Uani 1 1 d . U . . .
H14 H -0.175991 0.284967 0.089818 0.059 Uiso 1 1 calc R . . . .
C15 C 0.1509(7) 0.3077(7) -0.0329(3) 0.071(3) Uani 1 1 d . U . . .
S3 S -0.1219(9) 0.4073(9) 0.2952(4) 0.098(5) Uani 0.25 1 d D U . . .
O28 O -0.1423(17) 0.4434(15) 0.3212(7) 0.067(8) Uani 0.25 1 d D U . . .
O29 O -0.105(2) 0.4424(18) 0.2688(8) 0.081(8) Uani 0.25 1 d D U . . .
O30 O -0.1714(16) 0.3629(17) 0.2859(9) 0.081(8) Uani 0.25 1 d D U . . .
O31 O -0.0734(15) 0.3619(17) 0.3037(8) 0.078(8) Uani 0.25 1 d D U . . .
S4 S 0.500000 0.2964(16) 0.000000 0.114(8) Uani 0.25 2 d S TU P . .
O32 O 0.4624(13) 0.2566(17) -0.0255(9) 0.067(8) Uani 0.25 1 d . U . . .
O33 O 0.4518(14) 0.3303(19) 0.0172(9) 0.075(8) Uani 0.25 1 d . U . . .
loop_
_atom_site_aniso_label
_atom_site_aniso_U_11
_atom_site_aniso_U_22
_atom_site_aniso_U_33
_atom_site_aniso_U_23
_atom_site_aniso_U_13
_atom_site_aniso_U_12
Nb1 0.0466(5) 0.0466(5) 0.0349(7) -0.0027(4) -0.0027(4) -0.0060(7)
V1 0.0470(10) 0.0435(10) 0.0333(9) -0.0001(8) 0.0001(8) -0.0047(8)
V2 0.0476(10) 0.0453(10) 0.0279(9) -0.0040(8) -0.0042(8) -0.0025(8)
V3 0.0381(8) 0.0381(8) 0.0302(12) -0.0001(7) -0.0001(7) -0.0046(11)
V4 0.0578(10) 0.0578(10) 0.0344(13) -0.0098(9) 0.0098(9) 0.0111(15)
V5 0.0563(10) 0.0563(10) 0.0280(13) -0.0055(8) 0.0055(8) 0.0053(14)
V6 0.0528(11) 0.0483(10) 0.0313(9) -0.0103(8) 0.0029(8) 0.0051(9)
V7 0.0495(9) 0.0495(9) 0.0359(14) -0.0075(8) 0.0075(8) 0.0076(12)
Cl1 0.0620(15) 0.0620(15) 0.041(2) -0.0081(13) 0.0081(13) 0.008(2)
S1 0.090(3) 0.090(3) 0.068(4) -0.011(3) -0.011(3) -0.026(4)
S2 0.118(3) 0.118(3) 0.098(4) -0.001(3) -0.001(3) -0.009(4)
O1 0.055(4) 0.097(4) 0.054(4) -0.013(4) -0.003(3) 0.001(4)
O2 0.061(4) 0.067(4) 0.054(4) 0.008(3) 0.001(3) 0.003(4)
O3 0.075(5) 0.056(5) 0.043(4) -0.019(4) 0.005(4) -0.002(4)
O4 0.069(5) 0.068(5) 0.042(5) -0.016(4) -0.009(4) 0.001(4)
O5 0.064(3) 0.077(4) 0.044(3) -0.005(3) -0.001(3) -0.008(3)
O6 0.046(3) 0.066(4) 0.038(3) -0.005(3) 0.007(3) -0.005(3)
O7 0.066(4) 0.066(4) 0.034(6) -0.002(4) 0.002(4) -0.004(6)
O8 0.059(4) 0.059(4) 0.059(7) 0.008(4) 0.008(4) -0.001(6)
O9 0.052(3) 0.057(3) 0.038(3) -0.002(3) 0.004(3) 0.011(3)
O10 0.053(4) 0.056(4) 0.036(3) -0.010(3) 0.005(3) 0.008(3)
O11 0.053(3) 0.060(4) 0.036(3) 0.000(3) 0.004(3) 0.001(3)
O12 0.070(5) 0.070(5) 0.052(7) 0.003(4) -0.003(4) 0.002(6)
O13 0.064(3) 0.064(3) 0.044(4) 0.000(3) 0.000(3) -0.011(4)
O14 0.053(4) 0.059(4) 0.039(3) 0.006(3) 0.009(3) 0.006(3)
O15 0.066(4) 0.100(4) 0.052(4) -0.013(4) -0.002(3) -0.003(4)
O16 0.061(4) 0.090(4) 0.048(3) 0.010(3) 0.002(3) -0.005(4)
O17 0.060(3) 0.086(4) 0.044(3) 0.006(3) -0.007(3) -0.002(3)
O18 0.111(7) 0.047(4) 0.068(6) -0.004(4) 0.021(5) 0.004(5)
O19 0.061(3) 0.071(4) 0.045(3) 0.001(3) 0.000(3) -0.004(3)
O20 0.052(4) 0.052(4) 0.051(6) -0.009(3) -0.009(3) -0.010(5)
O21 0.057(4) 0.051(4) 0.040(4) -0.007(3) 0.009(3) 0.010(4)
O22 0.069(5) 0.069(5) 0.047(7) -0.018(4) 0.018(4) -0.012(6)
O23 0.098(4) 0.098(4) 0.101(6) -0.008(4) -0.008(4) -0.025(5)
O24 0.104(4) 0.108(4) 0.085(4) -0.005(4) 0.001(3) -0.005(4)
O25 0.083(4) 0.087(4) 0.066(4) 0.001(4) 0.000(4) -0.015(4)
O26 0.104(3) 0.104(3) 0.079(4) -0.008(3) -0.008(3) -0.016(4)
O27 0.107(3) 0.107(3) 0.086(5) -0.004(3) -0.004(3) -0.013(5)
C1 0.055(4) 0.055(4) 0.045(5) 0.005(3) 0.005(3) -0.001(5)
C2 0.052(4) 0.051(4) 0.044(4) -0.001(4) 0.007(4) 0.008(4)
C3 0.060(4) 0.053(4) 0.039(4) 0.005(4) 0.004(4) 0.004(4)
C4 0.055(4) 0.053(4) 0.037(4) -0.003(4) 0.004(4) 0.005(4)
C5 0.057(4) 0.078(4) 0.044(4) 0.003(4) -0.002(4) -0.003(4)
C6 0.046(4) 0.057(5) 0.031(4) -0.001(4) 0.001(4) 0.000(4)
C7 0.052(3) 0.052(3) 0.039(5) 0.003(3) 0.003(3) 0.007(5)
C8 0.054(3) 0.054(3) 0.044(5) 0.001(3) 0.001(3) 0.010(5)
C9 0.047(4) 0.065(4) 0.036(4) 0.002(4) 0.000(3) -0.002(4)
C10 0.051(4) 0.076(5) 0.037(4) 0.007(4) 0.001(4) -0.004(4)
C11 0.045(4) 0.073(4) 0.038(4) 0.007(4) -0.002(4) -0.001(4)
C12 0.048(4) 0.070(4) 0.036(4) 0.004(4) 0.001(3) -0.003(4)
C13 0.047(4) 0.072(5) 0.038(4) 0.002(4) -0.004(4) -0.006(4)
C14 0.047(4) 0.067(4) 0.033(4) 0.000(4) -0.002(4) -0.007(4)
C15 0.070(5) 0.088(5) 0.056(5) -0.014(5) -0.001(5) -0.009(5)
S3 0.100(11) 0.102(11) 0.093(11) 0.007(10) 0.024(10) 0.007(10)
O28 0.079(16) 0.068(16) 0.055(15) -0.007(14) 0.030(14) 0.003(15)
O29 0.091(17) 0.081(16) 0.072(16) 0.021(15) 0.017(15) 0.003(15)
O30 0.093(15) 0.081(15) 0.068(15) -0.008(14) 0.036(14) -0.020(14)
O31 0.068(15) 0.098(17) 0.067(15) 0.002(15) 0.043(14) 0.018(15)
S4 0.072(13) 0.121(19) 0.15(2) 0.000 0.025(15) 0.000
O32 0.033(13) 0.076(17) 0.091(19) -0.006(16) 0.019(14) -0.004(13)
O33 0.034(13) 0.097(18) 0.093(18) 0.006(16) -0.009(14) -0.006(14)
loop_
_atom_type_symbol
_atom_type_description
_atom_type_scat_dispersion_real
_atom_type_scat_dispersion_imag
_atom_type_scat_source
C C 0.0033 0.0016 'International Tables Vol C Tables 4.2.6.8 and 6.1.1.4'
H H 0.0000 0.0000 'International Tables Vol C Tables 4.2.6.8 and 6.1.1.4'
Cl Cl 0.1484 0.1585 'International Tables Vol C Tables 4.2.6.8 and 6.1.1.4'
Nb Nb -2.0727 0.6215 'International Tables Vol C Tables 4.2.6.8 and 6.1.1.4'
O O 0.0106 0.0060 'International Tables Vol C Tables 4.2.6.8 and 6.1.1.4'
S S 0.1246 0.1234 'International Tables Vol C Tables 4.2.6.8 and 6.1.1.4'
V V 0.3005 0.5294 'International Tables Vol C Tables 4.2.6.8 and 6.1.1.4'
N N 0.0061 0.0033 'International Tables Vol C Tables 4.2.6.8 and 6.1.1.4'
loop_
_geom_angle_atom_site_label_1
_geom_angle_atom_site_label_2
_geom_angle_atom_site_label_3
_geom_angle
_geom_angle_site_symmetry_1
_geom_angle_site_symmetry_3
V1 Nb1 V1 124.58(8) 8 .
V1 Nb1 V2 68.39(5) . .
V1 Nb1 V2 68.39(5) 8 8
V1 Nb1 V2 127.91(6) . 8
V1 Nb1 V2 127.91(6) 8 .
V1 Nb1 V3 68.36(4) 8 .
V1 Nb1 V3 68.36(4) . .
V2 Nb1 V2 67.42(7) . 8
V3 Nb1 V2 133.67(5) . .
V3 Nb1 V2 133.67(5) . 8
O5 Nb1 V1 103.0(2) . 8
O5 Nb1 V1 36.0(2) 8 8
O5 Nb1 V1 103.0(2) 8 .
O5 Nb1 V1 36.0(2) . .
O5 Nb1 V2 104.4(2) 8 8
O5 Nb1 V2 153.7(2) 8 .
O5 Nb1 V2 153.7(2) . 8
O5 Nb1 V2 104.4(2) . .
O5 Nb1 V3 35.8(2) 8 .
O5 Nb1 V3 35.8(2) . .
O5 Nb1 O5 71.4(5) . 8
O5 Nb1 O13 140.5(3) . .
O5 Nb1 O13 140.5(3) 8 .
O5 Nb1 O26 75.6(4) 8 .
O5 Nb1 O26 75.6(4) . .
O13 Nb1 V1 104.50(13) . 8
O13 Nb1 V1 104.50(13) . .
O13 Nb1 V2 36.19(11) . .
O13 Nb1 V2 36.19(11) . 8
O13 Nb1 V3 160.1(3) . .
O13 Nb1 O26 89.8(5) . .
O19 Nb1 V1 35.3(2) 8 8
O19 Nb1 V1 35.3(2) . .
O19 Nb1 V1 146.6(2) . 8
O19 Nb1 V1 146.6(2) 8 .
O19 Nb1 V2 36.1(2) 8 8
O19 Nb1 V2 103.1(2) 8 .
O19 Nb1 V2 103.1(2) . 8
O19 Nb1 V2 36.1(2) . .
O19 Nb1 V3 103.7(2) 8 .
O19 Nb1 V3 103.7(2) . .
O19 Nb1 O5 138.0(3) . 8
O19 Nb1 O5 138.0(3) 8 .
O19 Nb1 O5 69.8(3) 8 8
O19 Nb1 O5 69.8(3) . .
O19 Nb1 O13 71.6(2) 8 .
O19 Nb1 O13 71.6(2) . .
O19 Nb1 O19 137.5(5) 8 .
O19 Nb1 O26 79.7(3) 8 .
O19 Nb1 O26 79.7(3) . .
O20 Nb1 V1 111.36(12) . .
O20 Nb1 V1 111.36(12) . 8
O20 Nb1 V2 106.4(3) . .
O20 Nb1 V2 106.4(3) . 8
O20 Nb1 V3 104.0(4) . .
O20 Nb1 O5 99.9(4) . 8
O20 Nb1 O5 99.9(4) . .
O20 Nb1 O13 95.9(5) . .
O20 Nb1 O19 102.1(3) . 8
O20 Nb1 O19 102.1(3) . .
O20 Nb1 O26 174.4(5) . .
O26 Nb1 V1 67.00(12) . .
O26 Nb1 V1 67.00(12) . 8
O26 Nb1 V2 78.2(3) . .
O26 Nb1 V2 78.2(3) . 8
O26 Nb1 V3 70.4(4) . .
O5 V1 Nb1 39.9(3) . .
O5 V1 O15 92.6(4) . .
O5 V1 O16 155.0(4) . .
O5 V1 O24 84.1(4) . .
O15 V1 Nb1 122.6(3) . .
O15 V1 O24 70.3(4) . .
O16 V1 Nb1 122.9(3) . .
O16 V1 O15 85.9(4) . .
O16 V1 O24 71.9(4) . .
O18 V1 Nb1 120.6(4) . .
O18 V1 O5 106.5(5) . .
O18 V1 O15 98.9(5) . .
O18 V1 O16 98.3(5) . .
O18 V1 O19 106.7(5) . .
O18 V1 O24 165.5(5) . .
O19 V1 Nb1 39.0(3) . .
O19 V1 O5 77.2(4) . .
O19 V1 O15 154.2(4) . .
O19 V1 O16 93.5(4) . .
O19 V1 O24 85.0(4) . .
O24 V1 Nb1 73.9(3) . .
O2 V2 Nb1 126.1(3) . .
O4 V2 Nb1 116.8(3) . .
O4 V2 O2 96.5(4) . .
O4 V2 O13 105.8(4) . .
O4 V2 O17 100.8(4) . .
O4 V2 O19 106.1(4) . .
O13 V2 Nb1 40.2(3) . .
O13 V2 O2 92.5(4) . .
O13 V2 O17 153.2(4) . .
O13 V2 O19 78.1(4) . .
O17 V2 Nb1 122.5(2) . .
O17 V2 O2 87.4(3) . .
O19 V2 Nb1 38.7(2) . .
O19 V2 O2 157.1(4) . .
O19 V2 O17 91.8(3) . .
O1 V3 Nb1 123.0(3) . .
O1 V3 Nb1 123.0(3) 8 .
O1 V3 O1 85.6(5) . 8
O1 V3 O27 63.3(4) . .
O1 V3 O27 63.3(4) 8 .
O5 V3 Nb1 39.4(3) . .
O5 V3 Nb1 39.4(3) 8 .
O5 V3 O1 90.2(4) . .
O5 V3 O1 90.2(4) 8 8
O5 V3 O1 149.9(4) 8 .
O5 V3 O1 149.9(4) . 8
O5 V3 O5 78.7(5) 8 .
O5 V3 O27 88.2(4) 8 .
O5 V3 O27 88.2(4) . .
O8 V3 Nb1 116.7(4) . .
O8 V3 O1 101.2(4) . 8
O8 V3 O1 101.2(4) . .
O8 V3 O5 108.8(4) . 8
O8 V3 O5 108.8(4) . .
O8 V3 O27 157.7(6) . .
O27 V3 Nb1 85.6(4) . .
V5 V4 V6 73.87(7) . .
V5 V4 V6 73.87(7) . 6
V5 V4 V7 117.55(11) . .
V5 V4 Cl1 58.88(11) . .
V6 V4 V6 114.08(11) 6 .
V6 V4 V7 73.37(7) . .
V6 V4 V7 73.37(7) 6 .
V6 V4 Cl1 57.04(5) 6 .
V6 V4 Cl1 57.04(5) . .
V7 V4 Cl1 58.67(10) . .
O10 V4 V5 42.4(3) . .
O10 V4 V5 42.4(3) 6 .
O10 V4 V6 112.8(3) 6 .
O10 V4 V6 42.5(2) 6 6
O10 V4 V6 112.8(3) . 6
O10 V4 V6 42.5(2) . .
O10 V4 V7 113.5(2) . .
O10 V4 V7 113.5(2) 6 .
O10 V4 Cl1 71.0(2) . .
O10 V4 Cl1 71.0(2) 6 .
O10 V4 O10 84.3(5) . 6
O10 V4 O21 83.5(3) . 6
O10 V4 O21 83.5(3) 6 .
O10 V4 O21 141.5(3) 6 6
O10 V4 O21 141.5(3) . .
O21 V4 V5 113.5(2) 6 .
O21 V4 V5 113.5(2) . .
O21 V4 V6 41.9(2) 6 .
O21 V4 V6 112.2(2) . .
O21 V4 V6 41.9(2) . 6
O21 V4 V6 112.2(2) 6 6
O21 V4 V7 42.1(2) . .
O21 V4 V7 42.1(2) 6 .
O21 V4 Cl1 70.6(2) 6 .
O21 V4 Cl1 70.6(2) . .
O21 V4 O21 83.8(5) . 6
O22 V4 V5 122.6(5) . .
O22 V4 V6 122.94(5) . 6
O22 V4 V6 122.94(5) . .
O22 V4 V7 119.9(5) . .
O22 V4 Cl1 178.6(5) . .
O22 V4 O10 110.0(4) . 6
O22 V4 O10 110.1(4) . .
O22 V4 O21 108.4(4) . 6
O22 V4 O21 108.4(4) . .
O7 V5 V4 115.4(4) . .
O7 V5 O10 105.9(4) . 6
O7 V5 O10 105.9(4) . .
O7 V5 O14 100.6(4) . 6
O7 V5 O14 100.6(4) . .
O10 V5 V4 39.9(2) . .
O10 V5 V4 39.9(2) 6 .
O10 V5 O10 79.3(5) 6 .
O10 V5 O14 91.4(3) 6 6
O10 V5 O14 153.4(3) . 6
O10 V5 O14 91.4(3) . .
O10 V5 O14 153.4(3) 6 .
O14 V5 V4 124.1(2) 6 .
O14 V5 V4 124.1(2) . .
O14 V5 O14 86.0(5) 6 .
O3 V6 V4 115.8(3) . .
O3 V6 O9 98.5(4) . .
O3 V6 O10 104.8(4) . .
O3 V6 O11 99.9(4) . .
O3 V6 O21 105.3(4) . 6
O9 V6 V4 125.4(2) . .
O9 V6 O11 84.1(3) . .
O10 V6 V4 39.7(2) . .
O10 V6 O9 93.1(3) . .
O10 V6 O11 155.3(3) . .
O11 V6 V4 125.9(2) . .
O21 V6 V4 39.8(2) 6 .
O21 V6 O9 156.0(3) 6 .
O21 V6 O10 78.7(3) 6 .
O21 V6 O11 94.0(3) 6 .
O6 V7 V4 124.3(2) 6 .
O6 V7 V4 124.3(2) . .
O6 V7 O6 85.7(5) 6 .
O12 V7 V4 115.2(5) . .
O12 V7 O6 100.5(4) . 6
O12 V7 O6 100.5(4) . .
O12 V7 O21 105.9(4) . 6
O12 V7 O21 105.9(4) . .
O21 V7 V4 39.7(2) 6 .
O21 V7 V4 39.7(2) . .
O21 V7 O6 91.7(3) . 6
O21 V7 O6 91.7(3) 6 .
O21 V7 O6 153.4(3) 6 6
O21 V7 O6 153.4(3) . .
O21 V7 O21 78.9(5) 6 .
O23 S1 O24 90.0(7) . .
O23 S1 O24 90.0(7) . 8
O23 S1 O25 109.1(11) . 8
O23 S1 O25 109.1(11) . .
O24 S1 O24 108.5(10) . 8
O25 S1 O24 153.5(10) 8 .
O25 S1 O24 90.3(9) 8 8
O25 S1 O24 153.5(10) . 8
O25 S1 O24 90.3(9) . .
O25 S1 O25 66.5(16) . 8
O26 S1 O23 137.3(14) . .
O26 S1 O24 66.6(6) . 8
O26 S1 O24 66.6(6) . .
O26 S1 O25 106.4(11) . .
O26 S1 O25 106.4(11) . 8
O24 S2 O23 94.0(8) 8 .
O24 S2 O23 94.0(8) . .
O24 S2 O24 134.7(14) 8 .
O26 S2 O23 110.1(13) . .
O26 S2 O24 67.7(7) . 8
O26 S2 O24 67.7(7) . .
O26 S2 O27 101.6(13) . .
O27 S2 O23 148.3(14) . .
O27 S2 O24 98.1(8) . 8
O27 S2 O24 98.1(8) . .
C15 O1 V3 139.6(10) . .
C1 O2 V2 135.6(9) . .
V1 O5 Nb1 104.0(4) . .
V1 O5 V3 136.3(5) . .
V3 O5 Nb1 104.9(4) . .
C6 O6 V7 135.9(7) . .
C4 O9 V6 133.5(7) . .
V4 O10 V5 97.8(4) . .
V4 O10 V6 97.9(4) . .
V5 O10 V6 123.9(4) . .
C6 O11 V6 131.8(7) . .
V2 O13 Nb1 103.6(4) . .
V2 O13 Nb1 103.6(4) 8 .
V2 O13 V2 132.0(6) . 8
C4 O14 V5 137.6(8) . .
C15 O15 V1 133.2(9) . .
C5 O16 V1 134.9(8) . .
C5 O17 V2 137.8(8) . .
V1 O19 Nb1 105.6(4) . .
V1 O19 V2 136.2(5) . .
V2 O19 Nb1 105.2(4) . .
V4 O21 V6 98.2(3) . 6
V4 O21 V7 98.2(4) . .
V6 O21 V7 124.0(4) 6 .
S1 O24 V1 131.4(7) . .
S2 O24 V1 138.8(9) . .
S2 O24 O26 55.7(7) . .
O26 O24 V1 96.7(6) . .
O26 O24 S1 43.0(6) . .
S1 O25 O25 56.8(8) . 8
S1 O26 Nb1 143.9(12) . .
S1 O26 O24 70.4(7) . .
S1 O26 O24 70.4(7) . 8
S2 O26 Nb1 157.4(12) . .
S2 O26 O24 56.6(5) . .
S2 O26 O24 56.6(5) . 8
O24 O26 Nb1 122.1(6) 8 .
O24 O26 Nb1 122.1(6) . .
O24 O26 O24 112.7(11) . 8
S2 O27 V3 125.0(11) . .
O2 C1 O2 125.6(16) . 8
O2 C1 C8 116.9(8) . .
O2 C1 C8 116.9(8) 8 .
C3 C2 H2 120.1 . .
C8 C2 H2 120.1 . .
C8 C2 C3 119.8(12) . .
C2 C3 C4 121.7(10) . .
C7 C3 C2 119.3(11) . .
C7 C3 C4 118.7(11) . .
O9 C4 C3 116.6(10) . .
O14 C4 O9 124.6(10) . .
O14 C4 C3 118.8(10) . .
O16 C5 C10 117.3(11) . .
O17 C5 O16 124.3(11) . .
O17 C5 C10 117.7(11) . .
O6 C6 O11 127.7(10) . .
O6 C6 C9 115.7(9) . .
O11 C6 C9 116.5(9) . .
C3 C7 C3 120.3(15) 8 .
C3 C7 H7 119.8 8 .
C3 C7 H7 119.8 . .
C2 C8 C1 119.5(8) 8 .
C2 C8 C1 119.5(8) . .
C2 C8 C2 121.0(16) 8 .
C12 C9 C6 120.1(10) . .
C12 C9 C14 120.9(10) . .
C14 C9 C6 118.8(10) . .
C5 C10 C12 120.6(11) . .
C11 C10 C5 121.7(11) . .
C11 C10 C12 117.6(11) . .
C10 C11 H11 119.5 . .
C10 C11 C13 121.1(11) . .
C13 C11 H11 119.5 . .
C9 C12 C10 121.1(11) . .
C9 C12 H12 119.5 . .
C10 C12 H12 119.5 . .
C11 C13 C14 120.4(10) . .
C11 C13 C15 122.4(11) . 7
C14 C13 C15 117.1(11) . 7
C9 C14 C13 118.8(10) . .
C9 C14 H14 120.6 . .
C13 C14 H14 120.6 . .
O1 C15 O15 124.1(13) . .
O1 C15 C13 118.3(12) . 7
O15 C15 C13 116.8(12) . 7
O28 S3 O30 110(2) . .
O28 S3 O31 112(2) . .
O29 S3 O28 115(3) . .
O29 S3 O30 108(3) . .
O29 S3 O31 112(2) . .
O31 S3 O30 99(3) . .
O32 S4 O32 116(3) . 7_655
O33 S4 O32 105.1(17) 7_655 7_655
O33 S4 O32 105.1(17) . .
O33 S4 O32 105.3(19) . 7_655
O33 S4 O32 105.3(19) 7_655 .
O33 S4 O33 121(4) . 7_655
loop_
_geom_bond_atom_site_label_1
_geom_bond_atom_site_label_2
_geom_bond_distance
_geom_bond_site_symmetry_2
Nb1 V1 3.1561(19) 8
Nb1 V1 3.1562(19) .
Nb1 V2 3.187(2) .
Nb1 V2 3.187(2) 8
Nb1 V3 3.180(3) .
Nb1 O5 2.088(9) 8
Nb1 O5 2.088(9) .
Nb1 O13 2.118(11) .
Nb1 O19 2.064(8) 8
Nb1 O19 2.064(8) .
Nb1 O20 1.716(10) .
Nb1 O26 2.247(13) .
V1 O5 1.914(9) .
V1 O15 2.042(9) .
V1 O16 2.017(9) .
V1 O18 1.598(8) .
V1 O19 1.895(8) .
V1 O24 2.426(11) .
V2 O2 2.039(9) .
V2 O4 1.599(8) .
V2 O13 1.936(5) .
V2 O17 1.998(8) .
V2 O19 1.947(8) .
V3 O1 2.033(9) 8
V3 O1 2.033(9) .
V3 O5 1.922(9) .
V3 O5 1.922(9) 8
V3 O8 1.626(11) .
V3 O27 2.458(15) .
V4 V5 2.890(4) .
V4 V6 2.901(2) .
V4 V6 2.901(2) 6
V4 V7 2.911(4) .
V4 Cl1 3.204(5) .
V4 O10 1.869(8) .
V4 O10 1.869(8) 6
V4 O21 1.877(8) 6
V4 O21 1.877(8) .
V4 O22 1.604(11) .
V5 O7 1.590(11) .
V5 O10 1.966(8) .
V5 O10 1.966(8) 6
V5 O14 2.014(8) 6
V5 O14 2.014(8) .
V6 O3 1.576(8) .
V6 O9 2.008(7) .
V6 O10 1.977(8) .
V6 O11 2.041(8) .
V6 O21 1.959(7) 6
V7 O6 2.000(7) .
V7 O6 2.000(7) 6
V7 O12 1.589(13) .
V7 O21 1.973(8) 6
V7 O21 1.973(8) .
S1 O23 1.401(18) .
S1 O24 1.674(12) .
S1 O24 1.674(12) 8
S1 O25 1.545(17) 8
S1 O25 1.545(17) .
S1 O26 1.212(15) .
S2 O23 1.51(2) .
S2 O24 1.472(12) 8
S2 O24 1.472(11) .
S2 O26 1.457(17) .
S2 O27 1.462(18) .
O1 C15 1.202(16) .
O2 C1 1.246(11) .
O6 C6 1.242(13) .
O9 C4 1.301(14) .
O11 C6 1.245(12) .
O14 C4 1.218(13) .
O15 C15 1.296(16) .
O16 C5 1.291(14) .
O17 C5 1.276(14) .
O24 O26 1.631(13) .
O25 O25 1.69(4) 8
C1 C8 1.50(2) .
C2 H2 0.9300 .
C2 C3 1.396(16) .
C2 C8 1.374(14) .
C3 C4 1.486(17) .
C3 C7 1.390(15) .
C5 C10 1.430(17) .
C6 C9 1.516(15) .
C7 H7 0.9301 .
C9 C12 1.374(15) .
C9 C14 1.403(15) .
C10 C11 1.398(16) .
C10 C12 1.452(16) .
C11 H11 0.9300 .
C11 C13 1.404(16) .
C12 H12 0.9300 .
C13 C14 1.426(16) .
C13 C15 1.483(18) 7
C14 H14 0.9300 .
S3 O28 1.46(2) .
S3 O29 1.45(2) .
S3 O30 1.51(2) .
S3 O31 1.50(2) .
S4 O32 1.64(4) .
S4 O32 1.64(4) 7_655
S4 O33 1.50(4) 7_655
S4 O33 1.50(4) .
loop_
_geom_torsion_atom_site_label_1
_geom_torsion_atom_site_label_2
_geom_torsion_atom_site_label_3
_geom_torsion_atom_site_label_4
_geom_torsion
_geom_torsion_site_symmetry_1
_geom_torsion_site_symmetry_4
Nb1 V1 O19 V2 -133.2(9) . .
V1 O15 C15 O1 20(2) . .
V1 O15 C15 C13 -170.6(9) . 7
V1 O16 C5 O17 -12(2) . .
V1 O16 C5 C10 177.7(9) . .
V1 O24 O26 Nb1 6.3(11) . .
V1 O24 O26 S1 148.3(8) . .
V1 O24 O26 S2 -146.8(10) . .
V1 O24 O26 O24 -154.1(8) . 8
V2 O2 C1 O2 13(3) . 8
V2 O2 C1 C8 -176.1(10) . .
V2 O17 C5 O16 5(2) . .
V2 O17 C5 C10 175.5(10) . .
V3 O1 C15 O15 -3(3) . .
V3 O1 C15 C13 -173.2(10) . 7
V5 V4 O10 V6 126.0(4) . .
V5 V4 O21 V6 20.5(3) . 6
V5 V4 O21 V7 -105.8(3) . .
V5 O14 C4 O9 9.7(19) . .
V5 O14 C4 C3 -170.1(8) . .
V6 V4 O10 V5 -24.7(3) 6 .
V6 V4 O10 V5 -126.0(4) . .
V6 V4 O10 V6 101.3(3) 6 .
V6 V4 O21 V6 101.9(3) . 6
V6 V4 O21 V7 -24.4(3) . .
V6 V4 O21 V7 -126.3(4) 6 .
V6 O9 C4 O14 -7.5(18) . .
V6 O9 C4 C3 172.4(7) . .
V6 O11 C6 O6 3.6(19) . .
V6 O11 C6 C9 -177.9(7) . .
V7 V4 O10 V5 -105.7(3) . .
V7 V4 O10 V6 20.2(4) . .
V7 V4 O21 V6 126.3(4) . 6
V7 O6 C6 O11 -9(2) . .
V7 O6 C6 C9 172.9(8) . .
Cl1 V4 O10 V5 -64.4(2) . .
Cl1 V4 O10 V6 61.6(2) . .
Cl1 V4 O21 V6 61.9(2) . 6
Cl1 V4 O21 V7 -64.4(2) . .
S1 O24 O26 Nb1 -142.1(13) . .
S1 O24 O26 O24 57.5(10) . 8
S2 O24 O26 Nb1 153.1(14) . .
S2 O24 O26 O24 -7.3(12) . 8
O2 C1 C8 C2 174.5(14) 8 .
O2 C1 C8 C2 -174.5(14) . 8
O2 C1 C8 C2 -3(2) 8 8
O2 C1 C8 C2 3(2) . .
O5 V1 O19 Nb1 -14.5(4) . .
O5 V1 O19 V2 -147.8(7) . .
O6 C6 C9 C12 -175.4(12) . .
O6 C6 C9 C14 -0.1(17) . .
O10 V4 O10 V5 7.5(4) 6 .
O10 V4 O10 V6 133.4(2) 6 .
O10 V4 O21 V6 62.1(6) . 6
O10 V4 O21 V6 -10.1(3) 6 6
O10 V4 O21 V7 -64.2(6) . .
O10 V4 O21 V7 -136.4(3) 6 .
O11 C6 C9 C12 5.9(17) . .
O11 C6 C9 C14 -178.8(11) . .
O15 V1 O19 Nb1 54.2(10) . .
O15 V1 O19 V2 -79.0(11) . .
O16 V1 O19 Nb1 142.0(4) . .
O16 V1 O19 V2 8.8(7) . .
O16 C5 C10 C11 3(2) . .
O16 C5 C10 C12 -179.6(12) . .
O17 C5 C10 C11 -168.4(13) . .
O17 C5 C10 C12 9(2) . .
O18 V1 O19 Nb1 -118.2(5) . .
O18 V1 O19 V2 108.5(7) . .
O21 V4 O10 V5 -136.0(3) 6 .
O21 V4 O10 V5 -64.5(6) . .
O21 V4 O10 V6 -10.0(3) 6 .
O21 V4 O10 V6 61.4(7) . .
O21 V4 O21 V6 133.5(2) 6 6
O21 V4 O21 V7 7.2(4) 6 .
O22 V4 O10 V5 116.7(4) . .
O22 V4 O10 V6 -117.3(4) . .
O22 V4 O21 V6 -119.2(4) . 6
O22 V4 O21 V7 114.5(4) . .
O23 S1 O24 V1 172.8(10) . .
O23 S1 O24 O26 -143.1(11) . .
O23 S1 O25 O25 103.1(9) . 8
O23 S1 O26 Nb1 180.000(0) . .
O23 S1 O26 O24 -62.1(5) . 8
O23 S1 O26 O24 62.1(5) . .
O23 S2 O24 V1 165.7(11) . .
O23 S2 O24 O26 110.1(12) . .
O23 S2 O26 Nb1 180.000(1) . .
O23 S2 O26 O24 -86.0(7) . .
O23 S2 O26 O24 86.0(7) . 8
O23 S2 O27 V3 180.000(1) . .
O24 V1 O19 Nb1 70.5(4) . .
O24 V1 O19 V2 -62.7(7) . .
O24 S1 O24 V1 -97.2(10) 8 .
O24 S1 O24 O26 -53.1(10) 8 .
O24 S1 O25 O25 -166.8(9) . 8
O24 S1 O25 O25 -30.7(19) 8 8
O24 S1 O26 Nb1 117.9(5) . .
O24 S1 O26 Nb1 -117.9(5) 8 .
O24 S1 O26 O24 124.3(11) 8 .
O24 S1 O26 O24 -124.3(11) . 8
O24 S2 O24 V1 66(2) 8 .
O24 S2 O24 O26 10.5(17) 8 .
O24 S2 O26 Nb1 94.0(7) 8 .
O24 S2 O26 Nb1 -94.0(7) . .
O24 S2 O26 O24 171.9(13) . 8
O24 S2 O26 O24 -171.9(13) 8 .
O24 S2 O27 V3 68.8(8) . .
O24 S2 O27 V3 -68.8(8) 8 .
O25 S1 O24 V1 36(3) 8 .
O25 S1 O24 V1 63.7(12) . .
O25 S1 O24 O26 80(2) 8 .
O25 S1 O24 O26 107.8(11) . .
O25 S1 O26 Nb1 -34.9(9) 8 .
O25 S1 O26 Nb1 34.9(9) . .
O25 S1 O26 O24 -152.7(10) 8 .
O25 S1 O26 O24 152.7(10) . 8
O25 S1 O26 O24 -83.0(10) . .
O25 S1 O26 O24 83.0(10) 8 8
O26 S1 O24 V1 -44.1(10) . .
O26 S1 O25 O25 -101.1(8) . 8
O26 S2 O24 V1 55.6(14) . .
O26 S2 O27 V3 0.000(1) . .
O27 S2 O24 V1 -43.7(16) . .
O27 S2 O24 O26 -99.3(13) . .
O27 S2 O26 Nb1 0.000(1) . .
O27 S2 O26 O24 94.0(7) . .
O27 S2 O26 O24 -94.0(7) . 8
C2 C3 C4 O9 -7.3(17) . .
C2 C3 C4 O14 172.5(11) . .
C2 C3 C7 C3 5(2) . 8
C3 C2 C8 C1 178.4(13) . .
C3 C2 C8 C2 -4(2) . 8
C4 C3 C7 C3 -179.8(9) . 8
C5 C10 C11 C13 177.5(13) . .
C5 C10 C12 C9 178.5(13) . .
C6 C9 C12 C10 -179.2(11) . .
C6 C9 C14 C13 -178.4(11) . .
C7 C3 C4 O9 178.1(11) . .
C7 C3 C4 O14 -2.1(18) . .
C8 C2 C3 C4 -175.2(13) . .
C8 C2 C3 C7 -0.7(19) . .
C10 C11 C13 C14 2(2) . .
C10 C11 C13 C15 177.4(13) . 7
C11 C10 C12 C9 -4(2) . .
C11 C13 C14 C9 -0.8(19) . .
C12 C9 C14 C13 -3.2(19) . .
C12 C10 C11 C13 0(2) . .
C14 C9 C12 C10 6(2) . .
C15 C13 C14 C9 -176.1(12) 7 .
loop_
_twin_individual_id
_twin_individual_mass_fraction_refined
1 0.92(6)
2 0.08(6)
