#------------------------------------------------------------------------------
#$Date: 2019-05-25 03:10:27 +0300 (Sat, 25 May 2019) $
#$Revision: 215502 $
#$URL: file:///home/coder/svn-repositories/cod/cif/7/12/35/7123542.cif $
#------------------------------------------------------------------------------
#
# This file is available in the Crystallography Open Database (COD),
# http://www.crystallography.net/
#
# All data on this site have been placed in the public domain by the
# contributors.
#
data_7123542
loop_
_publ_author_name
'Jeoung, Sungeun'
'Lee, Songho'
'Lee, Jae Hwa'
'Lee, Soochan'
'Choe, Wonyoung'
'Moon, Dohyun'
'Moon, Hoi Ri'
_publ_section_title
;
 Tuning of the flexibility in metal-organic frameworks based on pendant
 arm macrocycles
;
_journal_name_full               'Chemical Communications'
_journal_paper_doi               10.1039/C9CC02819F
_journal_year                    2019
_chemical_formula_moiety         'C44 H66 N12 Ni2 O8, 2(C2 H3 N)'
_chemical_formula_sum            'C48 H72 N14 Ni2 O8'
_chemical_formula_weight         1090.61
_chemical_name_systematic        as-flexMOF(CH2)
_space_group_crystal_system      monoclinic
_space_group_IT_number           15
_space_group_name_Hall           '-C 2yc'
_space_group_name_H-M_alt        'C 1 2/c 1'
_symmetry_space_group_name_Hall  '-C 2yc'
_symmetry_space_group_name_H-M   'C 1 2/c 1'
_atom_sites_solution_hydrogens   mixed
_audit_creation_method           SHELXL-2018/3
_audit_update_record
;
2019-05-17 deposited with the CCDC.    2019-05-24 downloaded from the CCDC.
;
_cell_angle_alpha                90
_cell_angle_beta                 105.16(3)
_cell_angle_gamma                90
_cell_formula_units_Z            4
_cell_length_a                   12.920(3)
_cell_length_b                   32.634(7)
_cell_length_c                   15.617(3)
_cell_measurement_reflns_used    92121
_cell_measurement_temperature    220(2)
_cell_measurement_theta_max      33.679
_cell_measurement_theta_min      0.350
_cell_volume                     6355(3)
_computing_cell_refinement       '<i>HKL3000sm</i>(Otwinowski & Minor, 1997)'
_computing_data_collection
'<i>PAL BL2D-SMDC Program</i>(Shin et.al, 2016)'
_computing_data_reduction        '<i>HKL3000sm</i>(Otwinowski & Minor, 1997)'
_computing_molecular_graphics    '<i>DIAMOND 4</i>(Putz&Brandenburg, 2014)'
_computing_publication_material  '<i>publCIF</i>(Westrip, 2010)'
_computing_structure_refinement  '<i>SHELXL-2018</i>(Sheldrick, 2015b)'
_computing_structure_solution    '<i>SHELXT-2018</i>(Sheldrick, 2015a)'
_diffrn_ambient_temperature      220(2)
_diffrn_measured_fraction_theta_full 0.989
_diffrn_measured_fraction_theta_max 0.986
_diffrn_measurement_device_type  'Rayonix MX225HS CCD area detector'
_diffrn_measurement_method       'omega scan'
_diffrn_radiation_type           synchrotron
_diffrn_radiation_wavelength     0.610
_diffrn_reflns_av_R_equivalents  0.0434
_diffrn_reflns_av_unetI/netI     0.0319
_diffrn_reflns_Laue_measured_fraction_full 0.989
_diffrn_reflns_Laue_measured_fraction_max 0.986
_diffrn_reflns_limit_h_max       17
_diffrn_reflns_limit_h_min       -17
_diffrn_reflns_limit_k_max       45
_diffrn_reflns_limit_k_min       -45
_diffrn_reflns_limit_l_max       21
_diffrn_reflns_limit_l_min       -21
_diffrn_reflns_number            31733
_diffrn_reflns_point_group_measured_fraction_full 0.989
_diffrn_reflns_point_group_measured_fraction_max 0.986
_diffrn_reflns_theta_full        21.469
_diffrn_reflns_theta_max         25.000
_diffrn_reflns_theta_min         1.500
_diffrn_source                   'PLSII 2D bending magnet'
_exptl_absorpt_coefficient_mu    0.428
_exptl_absorpt_correction_T_max  1.000
_exptl_absorpt_correction_T_min  0.918
_exptl_absorpt_correction_type   empirical
_exptl_absorpt_process_details
'<i>HKL3000sm Scalepack</i>(Otwinowski et.al,2003)'
_exptl_crystal_colour            'pale purple'
_exptl_crystal_density_diffrn    1.140
_exptl_crystal_description       block
_exptl_crystal_F_000             2312
_exptl_crystal_size_max          0.215
_exptl_crystal_size_mid          0.198
_exptl_crystal_size_min          0.105
_refine_diff_density_max         1.270
_refine_diff_density_min         -0.731
_refine_diff_density_rms         0.095
_refine_ls_extinction_coef       0.0024(8)
_refine_ls_extinction_expression Fc^*^=kFc[1+0.001xFc^2^\l^3^/sin(2\q)]^-1/4^
_refine_ls_extinction_method     'SHELXL-2018/3 (Sheldrick 2018)'
_refine_ls_goodness_of_fit_ref   1.127
_refine_ls_hydrogen_treatment    constr
_refine_ls_matrix_type           full
_refine_ls_number_parameters     321
_refine_ls_number_reflns         8742
_refine_ls_number_restraints     296
_refine_ls_restrained_S_all      1.145
_refine_ls_R_factor_all          0.0873
_refine_ls_R_factor_gt           0.0784
_refine_ls_shift/su_max          0.000
_refine_ls_shift/su_mean         0.000
_refine_ls_structure_factor_coef Fsqd
_refine_ls_weighting_details
'w=1/[\s^2^(Fo^2^)+(0.1896P)^2^+1.3860P] where P=(Fo^2^+2Fc^2^)/3'
_refine_ls_weighting_scheme      calc
_refine_ls_wR_factor_gt          0.2657
_refine_ls_wR_factor_ref         0.2778
_reflns_Friedel_coverage         0.000
_reflns_number_gt                6808
_reflns_number_total             8742
_reflns_threshold_expression     'I > 2\s(I)'
_cod_data_source_file            c9cc02819f2.cif
_cod_data_source_block           asflex_CH2_sq
_cod_original_cell_volume        6355(2)
_cod_database_code               7123542
_shelx_shelxl_version_number     2018/3
_shelx_space_group_comment
;
The symmetry employed for this shelxl refinement is uniquely defined
by the following loop, which should always be used as a source of
symmetry information in preference to the above space-group names.
They are only intended as comments.
;
_shelx_estimated_absorpt_t_min   0.914
_shelx_estimated_absorpt_t_max   0.956
_shelx_res_file
;
TITL asflex_CH2 in C2/c
    asflex_CH2_sq.res
    created by SHELXL-2018/3 at 11:15:01 on 15-May-2019
CELL  0.61000  12.9200  32.6340  15.6170   90.000  105.162   90.000
ZERR    4.000   0.0026   0.0065   0.0031    0.000    0.030    0.000
LATT  7
SYMM -X, Y, 1/2-Z
SFAC C H N O NI
DISP C          0.0019         0.0011           8.51
DISP H          0.0000         0.0000           0.66
DISP N          0.0040         0.0024          13.80
DISP O          0.0074         0.0043          22.01
DISP Ni         0.3348         0.8487        2987.19
UNIT 192 288 56 32 8
ACTA
OMIT -3 50
OMIT -1 1 2
OMIT 2 4 0
OMIT 0 2 1
OMIT 1 9 6
OMIT -3 7 1
L.S. 10 0   75
BOND $H
SIZE 0.215 0.198 0.105
TEMP -53.15
FMAP 2
PLAN 20
CONF
WPDB
SIMU
DELU
HTAB N1 N1S
HTAB N3 O2
HTAB N4 O4
HTAB N6 O3
ABIN
LIST 4
WGHT    0.189600    1.386000
EXTI    0.002353
FVAR       0.26598
NI1   5    0.750000    0.750000    0.500000    10.50000    0.05359    0.03691 =
         0.05858   -0.00517   -0.00287   -0.00614
N1    3    0.829884    0.771838    0.410969    11.00000    0.06289    0.05027 =
         0.06892   -0.00175    0.00377   -0.00832
AFIX  13
H1    2    0.841144    0.748775    0.373214    11.00000   -1.20000
AFIX   0
N2    3    1.009531    0.762557    0.515018    11.00000    0.05716    0.06226 =
         0.08553   -0.00475    0.00361   -0.00549
N3    3    0.886298    0.725877    0.584227    11.00000    0.05787    0.04176 =
         0.06576   -0.00544   -0.00199   -0.00408
AFIX  13
H3    2    0.901388    0.699482    0.558663    11.00000   -1.20000
AFIX   0
C1    1    0.754316    0.801261    0.354725    11.00000    0.06972    0.06906 =
         0.07217    0.01309    0.00297   -0.00570
AFIX  23
H1A   2    0.775740    0.806627    0.300036    11.00000   -1.20000
H1B   2    0.755643    0.827258    0.386408    11.00000   -1.20000
AFIX   0
C2    1    0.936991    0.790403    0.454690    11.00000    0.06216    0.06236 =
         0.08157    0.00207    0.00369   -0.01350
AFIX  23
H2A   2    0.971013    0.799288    0.408618    11.00000   -1.20000
H2B   2    0.925853    0.814777    0.487842    11.00000   -1.20000
AFIX   0
C3    1    0.982776    0.752003    0.595616    11.00000    0.05550    0.05320 =
         0.07322   -0.00960   -0.00211   -0.00732
AFIX  23
H3A   2    0.971565    0.777340    0.625661    11.00000   -1.20000
H3B   2    1.043993    0.737716    0.634496    11.00000   -1.20000
AFIX   0
C4    1    0.858152    0.716732    0.667624    11.00000    0.06811    0.06052 =
         0.06491    0.00154   -0.00462   -0.00310
AFIX  23
H4A   2    0.860704    0.741857    0.702486    11.00000   -1.20000
H4B   2    0.909436    0.697123    0.702841    11.00000   -1.20000
AFIX   0
C5    1    1.051884    0.729131    0.470065    11.00000    0.07704    0.08924 =
         0.08624   -0.00910    0.02200    0.00124
AFIX  23
H5A   2    1.070625    0.740200    0.417738    11.00000   -1.20000
H5B   2    0.995753    0.708484    0.449716    11.00000   -1.20000
AFIX   0
C6    1    1.147488    0.709305    0.528490    11.00000    0.08893    0.11521 =
         0.11933    0.00896    0.03320    0.02389
AFIX  43
H6    2    1.205640    0.726583    0.553842    11.00000   -1.20000
AFIX   0
C7    1    1.159884    0.671342    0.548354    11.00000    0.14287    0.12509 =
         0.16088    0.01465    0.04700    0.05123
AFIX  93
H7A   2    1.104326    0.652661    0.524887    11.00000   -1.20000
H7B   2    1.224568    0.662078    0.586442    11.00000   -1.20000
AFIX   0
NI2   5    0.500000    0.500000    0.000000    10.50000    0.07493    0.03656 =
         0.05716   -0.01231   -0.00870    0.00862
ISOR 0.005 N4
N4    3    0.579522    0.448919    0.056898    11.00000    0.14358    0.05914 =
         0.08092   -0.01870   -0.01519    0.02974
AFIX  13
H4    2    0.599900    0.452954    0.121993    11.00000   -1.20000
AFIX   0
N5    3    0.441892    0.412533    0.070572    11.00000    0.15922    0.10026 =
         0.14143   -0.04888    0.00941    0.00980
N6    3    0.360939    0.480171    0.025769    11.00000    0.11968    0.06524 =
         0.21297   -0.03402    0.06158   -0.00489
AFIX  13
H6A   2    0.378714    0.489471    0.088262    11.00000   -1.20000
AFIX   0
C8    1    0.692256    0.449853    0.022304    11.00000    0.18351    0.11606 =
         0.13130   -0.03554    0.03460    0.07097
AFIX  23
H8A   2    0.751005    0.437420    0.067606    11.00000   -1.20000
H8B   2    0.681648    0.433677   -0.032178    11.00000   -1.20000
AFIX   0
C9    1    0.533998    0.410941    0.039681    11.00000    0.21006    0.07320 =
         0.11047   -0.01301    0.00731    0.04456
AFIX  23
H9A   2    0.583153    0.389686    0.070919    11.00000   -1.20000
H9B   2    0.515448    0.405105   -0.024080    11.00000   -1.20000
AFIX   0
C10   1    0.355262    0.439040    0.043847    11.00000    0.12726    0.12586 =
         0.22740    0.06997    0.03415   -0.00474
AFIX  23
H10A  2    0.308484    0.426885   -0.009835    11.00000   -1.20000
H10B  2    0.316068    0.437248    0.089627    11.00000   -1.20000
AFIX   0
C11   1    0.278328    0.507143   -0.005033    11.00000    0.08862    0.13068 =
         0.18669   -0.00155    0.00815   -0.00018
AFIX  23
H11A  2    0.235289    0.508127    0.038118    11.00000   -1.20000
H11B  2    0.232408    0.496098   -0.060364    11.00000   -1.20000
AFIX   0
PART -1
DFIX 1.47 0.01 N5 C12
DFIX 1.65 0.02 C12 C13
DFIX 1.34 0.02 C13 C14
C12   1   10.456182   10.409643   10.168292    11.00000    0.25229    0.13283 =
         0.14812   -0.02899    0.03712    0.03511
H12A  2   10.390755   10.419464   10.182164    11.00000   -1.20000
H12B  2   10.515425   10.427608   10.198236    11.00000   -1.20000
C13   1   10.481050   10.363379   10.204247    11.00000    0.32528    0.14675 =
         0.18252   -0.01613    0.03018    0.05855
H13   2   10.548985   10.353189   10.203900    11.00000   -1.20000
C14   1   10.420032   10.338156   10.233747    11.00000    0.61596    0.40976 =
         0.27657    0.18261    0.08331   -0.06508
H14A  2   10.351027   10.346350   10.235940    11.00000   -1.20000
H14B  2   10.445065   10.311790   10.252809    11.00000   -1.20000
PART 0
ISOR 0.005 O2
O1    4    0.712260    0.694855    0.424391    11.00000    0.06094    0.04002 =
         0.07448   -0.01341   -0.00256   -0.00366
O2    4    0.861667    0.658286    0.467276    11.00000    0.07139    0.06618 =
         0.13088   -0.03723   -0.02648    0.01172
O3    4    0.528432    0.533314    0.120389    11.00000    0.10665    0.05199 =
         0.05923   -0.01805   -0.01743    0.02227
O4    4    0.623419    0.491457    0.225268    11.00000    0.22801    0.04728 =
         0.07919   -0.01884   -0.05340    0.03586
C15   1    0.767859    0.663644    0.422463    11.00000    0.05869    0.04406 =
         0.07210   -0.01016   -0.00316   -0.00358
C16   1    0.716632    0.629084    0.361143    11.00000    0.06231    0.03988 =
         0.05448   -0.00620    0.00340    0.00072
C17   1    0.781013    0.596900    0.346842    11.00000    0.06373    0.06099 =
         0.07009   -0.01420    0.00175    0.00998
AFIX  43
H17   2    0.855282    0.597357    0.373162    11.00000   -1.20000
AFIX   0
C18   1    0.735457    0.564442    0.294039    11.00000    0.08404    0.05514 =
         0.06712   -0.01621   -0.00044    0.02031
AFIX  43
H18   2    0.779628    0.543111    0.283795    11.00000   -1.20000
AFIX   0
C19   1    0.626117    0.562480    0.255669    11.00000    0.08764    0.04160 =
         0.05018   -0.01051   -0.00795    0.01234
C20   1    0.558719    0.594300    0.268877    11.00000    0.07304    0.03288 =
         0.04218   -0.00116   -0.00135    0.00091
C21   1    0.606745    0.627434    0.322462    11.00000    0.06105    0.03291 =
         0.04718   -0.00353    0.00460    0.00079
AFIX  43
H21   2    0.563272    0.649071    0.332384    11.00000   -1.20000
AFIX   0
C22   1    0.586903    0.525608    0.196468    11.00000    0.12596    0.04402 =
         0.06072   -0.01596   -0.01912    0.02226
N1S   3    0.806685    0.718469    0.229514    11.00000    0.20528    0.13305 =
         0.13298   -0.03170    0.05882   -0.01526
C1S   1    0.755919    0.693401    0.184018    11.00000    0.11889    0.10901 =
         0.10549    0.00917    0.05070    0.01215
C2S   1    0.692672    0.661297    0.125279    11.00000    0.12261    0.10409 =
         0.10660    0.01064    0.04068    0.01323
AFIX 137
H2S1  2    0.624727    0.672728    0.092035    11.00000   -1.50000
H2S2  2    0.679626    0.638561    0.161085    11.00000   -1.50000
H2S3  2    0.732437    0.651677    0.084431    11.00000   -1.50000
AFIX   0
HKLF 4




REM  asflex_CH2 in C2/c
REM wR2 = 0.2778, GooF = S = 1.127, Restrained GooF = 1.145 for all data
REM R1 = 0.0784 for 6808 Fo > 4sig(Fo) and 0.0873 for all 8742 data
REM 321 parameters refined using 296 restraints

END

WGHT      0.1896      1.3858

REM Highest difference peak  1.270,  deepest hole -0.731,  1-sigma level  0.095
Q1    1   0.6387  0.4247  0.0422  11.00000  0.05    1.27
Q2    1   0.7973  0.7495  0.4770  11.00000  0.05    0.96
Q3    1   0.7839  0.4603  0.1214  11.00000  0.05    0.70
Q4    1   0.4467  0.4985  0.0247  11.00000  0.05    0.65
Q5    1   0.7456  0.4497  0.0517  11.00000  0.05    0.62
Q6    1   0.3441  0.4306  0.0328  11.00000  0.05    0.58
Q7    1   0.5772  0.4932  0.2333  11.00000  0.05    0.54
Q8    1   0.7647  0.7330  0.5089  11.00000  0.05    0.47
Q9    1   0.6587  0.5002  0.2097  11.00000  0.05    0.45
Q10   1   0.9011  0.7032  0.2352  11.00000  0.05    0.42
Q11   1   0.5271  0.4459  0.0677  11.00000  0.05    0.41
Q12   1   0.5760  0.6110  0.2916  11.00000  0.05    0.39
Q13   1   0.2764  0.4821  0.0341  11.00000  0.05    0.38
Q14   1   0.8837  0.7324  0.2407  11.00000  0.05    0.37
Q15   1   0.6076  0.5478  0.2282  11.00000  0.05    0.35
Q16   1   0.8830  0.6492  0.4717  11.00000  0.05    0.35
Q17   1   0.5515  0.5323  0.1140  11.00000  0.05    0.34
Q18   1   0.7384  0.6104  0.3625  11.00000  0.05    0.34
Q19   1   0.8173  0.6529  0.4971  11.00000  0.05    0.33
Q20   1   0.2948  0.4751  0.0672  11.00000  0.05    0.32
;
_shelx_res_checksum              76826
_shelx_fab_file
;
    0    4    0    -76.56      0.00
    0    6    0    -91.05      0.00
    0    8    0      5.77      0.00
    0   10    0     21.74      0.00
    0   12    0    -18.78      0.00
    0   14    0    -42.59      0.00
    0   16    0    -21.55      0.00
    0   18    0      3.66      0.00
    0   20    0      2.09      0.00
    0   22    0     -8.85      0.00
    0   24    0     -2.79      0.00
    0   26    0      6.72      0.00
    0   28    0      4.58      0.00
    0   30    0     -1.95      0.00
    0   32    0     -3.49      0.00
    0   34    0     -0.33      0.00
    0   36    0      0.36      0.00
    0   38    0     -0.57      0.00
    0   40    0     -0.62      0.00
    0   42    0      0.11      0.00
    0   44    0     -0.42      0.00
    0   44    1     -0.81      0.00
    0   42    1     -0.52      0.00
    0   40    1     -0.50      0.00
    0   38    1      0.38      0.00
    0   36    1      1.40      0.00
    0   34    1      0.20      0.00
    0   32    1     -1.01      0.00
    0   30    1      1.60      0.00
    0   28    1      3.19      0.00
    0   26    1     -3.75      0.00
    0   24    1     -9.94      0.00
    0   22    1     -4.07      0.00
    0   20    1      5.03      0.00
    0   18    1     -8.97      0.00
    0   16    1    -29.18      0.00
    0   14    1     -5.05      0.00
    0   12    1     45.52      0.00
    0   10    1     34.37      0.00
    0    8    1    -26.91      0.00
    0    6    1     11.03      0.00
    0    4    1     91.21      0.00
    0    2    1     60.35      0.00
    0   44    2     -0.58      0.00
    0   42    2     -2.70      0.00
    0   40    2     -0.56      0.00
    0   38    2      1.06      0.00
    0   36    2     -0.66      0.00
    0   34    2     -2.16      0.00
    0   32    2      0.19      0.00
    0   30    2      1.90      0.00
    0   28    2     -1.40      0.00
    0   26    2     -5.55      0.00
    0   24    2      0.05      0.00
    0   22    2      9.84      0.00
    0   20    2      8.35      0.00
    0   18    2     -3.86      0.00
    0   16    2    -12.40      0.00
    0   14    2     -2.78      0.00
    0   12    2      5.80      0.00
    0   10    2     -7.74      0.00
    0    8    2    -35.57      0.00
    0    6    2    -24.01      0.00
    0    4    2     31.87      0.00
    0    2    2     -1.99      0.00
    0   44    3      0.30      0.00
    0   42    3     -0.11      0.00
    0   40    3     -0.33      0.00
    0   38    3     -1.26      0.00
    0   36    3     -1.71      0.00
    0   34    3      0.63      0.00
    0   32    3      2.08      0.00
    0   30    3     -0.87      0.00
    0   28    3     -3.66      0.00
    0   26    3     -0.26      0.00
    0   24    3      7.79      0.00
    0   22    3      8.62      0.00
    0   20    3     -5.30      0.00
    0   18    3    -12.70      0.00
    0   16    3     -4.72      0.00
    0   14    3      6.12      0.00
    0   12    3     15.60      0.00
    0   10    3     22.01      0.00
    0    8    3     22.20      0.00
    0    4    3    -26.50      0.00
    0    2    3     -2.09      0.00
    0    6    3     -6.62      0.00
    0   44    4      0.44      0.00
    0   42    4      0.49      0.00
    0   40    4     -0.92      0.00
    0   38    4     -0.54      0.00
    0   36    4      1.10      0.00
    0   34    4      1.08      0.00
    0   32    4     -0.94      0.00
    0   30    4     -2.96      0.00
    0   28    4     -0.61      0.00
    0   26    4      4.42      0.00
    0   24    4      2.58      0.00
    0   22    4     -2.27      0.00
    0   20    4     -1.74      0.00
    0   18    4      3.53      0.00
    0   16    4      4.53      0.00
    0   14    4     -8.00      0.00
    0   10    4     -6.12      0.00
    0    8    4     -1.40      0.00
    0    6    4      7.53      0.00
    0    4    4      5.39      0.00
    0    2    4      0.92      0.00
    0    0    4      4.72      0.00
    0   42    5      0.07      0.00
    0   40    5      0.13      0.00
    0   38    5      0.39      0.00
    0   36    5      0.64      0.00
    0   34    5     -0.60      0.00
    0   32    5     -1.26      0.00
    0   30    5      1.32      0.00
    0   28    5      2.54      0.00
    0   26    5     -0.09      0.00
    0   24    5     -3.00      0.00
    0   22    5     -1.55      0.00
    0   20    5      2.62      0.00
    0   18    5     -1.57      0.00
    0   16    5     -5.62      0.00
    0   14    5      2.77      0.00
    0   12    5      9.43      0.00
    0   10    5     -1.89      0.00
    0    8    5    -21.76      0.00
    0    6    5     -5.80      0.00
    0    2    5     40.19      0.00
    0    4    5     37.46      0.00
    0   42    6     -0.45      0.00
    0   40    6     -0.12      0.00
    0   38    6     -0.18      0.00
    0   36    6     -0.39      0.00
    0   34    6     -0.48      0.00
    0   32    6     -0.77      0.00
    0   30    6      0.36      0.00
    0   28    6      0.85      0.00
    0   26    6     -0.17      0.00
    0   24    6      3.44      0.00
    0   22    6      7.38      0.00
    0   20    6      3.90      0.00
    0   18    6     -3.07      0.00
    0   16    6     -3.81      0.00
    0   14    6      2.47      0.00
    0   12    6     -3.83      0.00
    0   10    6    -21.14      0.00
    0    8    6    -19.10      0.00
    0    6    6      8.80      0.00
    0    4    6     28.59      0.00
    0    2    6      4.04      0.00
    0    0    6    -21.82      0.00
    0   42    7      0.31      0.00
    0   40    7     -0.08      0.00
    0   38    7     -0.58      0.00
    0   36    7      0.30      0.00
    0   34    7      1.28      0.00
    0   32    7      1.03      0.00
    0   30    7     -0.51      0.00
    0   28    7     -0.16      0.00
    0   26    7      2.21      0.00
    0   24    7      1.40      0.00
    0   22    7     -5.00      0.00
    0   20    7     -9.10      0.00
    0   18    7     -1.40      0.00
    0   16    7      6.65      0.00
    0   14    7     -1.66      0.00
    0   12    7    -17.52      0.00
    0   10    7    -11.48      0.00
    0    8    7     21.30      0.00
    0    6    7     34.05      0.00
    0    4    7     11.66      0.00
    0    2    7     -3.81      0.00
    0   40    8     -0.31      0.00
    0   38    8     -0.23      0.00
    0   36    8      0.72      0.00
    0   34    8      0.50      0.00
    0   32    8     -0.98      0.00
    0   30    8     -0.98      0.00
    0   28    8      0.81      0.00
    0   26    8      1.14      0.00
    0   24    8     -1.90      0.00
    0   22    8     -2.68      0.00
    0   20    8      1.25      0.00
    0   18    8      3.48      0.00
    0   16    8      0.21      0.00
    0   14    8     -3.07      0.00
    0   10    8      6.46      0.00
    0    6    8     -7.69      0.00
    0    4    8    -13.00      0.00
    0    2    8      0.33      0.00
    0    0    8     13.40      0.00
    0    8    8      2.15      0.00
    0   40    9      0.06      0.00
    0   38    9      0.30      0.00
    0   36    9     -0.07      0.00
    0   34    9     -0.30      0.00
    0   32    9     -0.59      0.00
    0   30    9     -0.86      0.00
    0   28    9     -0.09      0.00
    0   26    9      0.73      0.00
    0   24    9     -0.59      0.00
    0   22    9     -1.53      0.00
    0   20    9      0.39      0.00
    0   18    9     -1.01      0.00
    0   16    9     -5.10      0.00
    0   14    9     -3.88      0.00
    0   12    9      1.98      0.00
    0   10    9      5.27      0.00
    0    8    9      0.14      0.00
    0    6    9     -4.33      0.00
    0    4    9     -1.40      0.00
    0    2    9      0.20      0.00
    0   38   10      0.22      0.00
    0   36   10     -0.21      0.00
    0   34   10     -1.82      0.00
    0   32   10     -1.14      0.00
    0   30   10      1.11      0.00
    0   28   10      1.57      0.00
    0   26   10     -0.27      0.00
    0   24   10     -1.80      0.00
    0   22   10     -1.28      0.00
    0   20   10      0.57      0.00
    0   18   10      1.13      0.00
    0   16   10      0.40      0.00
    0   14   10      3.04      0.00
    0   12   10      3.18      0.00
    0   10   10     -1.93      0.00
    0    6   10      0.65      0.00
    0    4   10      0.89      0.00
    0    2   10     -0.26      0.00
    0    0   10     -1.28      0.00
    0    8   10     -2.08      0.00
    0   38   11      0.01      0.00
    0   36   11      0.06      0.00
    0   34   11      0.31      0.00
    0   32   11      0.61      0.00
    0   30   11      0.40      0.00
    0   28   11     -0.44      0.00
    0   26   11     -0.73      0.00
    0   24   11     -0.01      0.00
    0   22   11      1.23      0.00
    0   20   11      0.12      0.00
    0   18   11     -1.37      0.00
    0   16   11      0.01      0.00
    0   14   11      0.67      0.00
    0   12   11     -0.30      0.00
    0   10   11     -0.92      0.00
    0    8   11      1.22      0.00
    0    6   11      2.92      0.00
    0    4   11      0.17      0.00
    0    2   11     -1.33      0.00
    0   36   12     -0.11      0.00
    0   34   12     -0.06      0.00
    0   32   12     -0.83      0.00
    0   30   12     -0.84      0.00
    0   28   12     -0.01      0.00
    0   26   12     -0.44      0.00
    0   24   12     -1.25      0.00
    0   22   12      0.18      0.00
    0   20   12      2.09      0.00
    0   18   12      0.45      0.00
    0   16   12     -0.80      0.00
    0   14   12     -0.22      0.00
    0   12   12     -0.44      0.00
    0   10   12      0.94      0.00
    0    8   12      2.93      0.00
    0    6   12      1.63      0.00
    0    4   12     -2.03      0.00
    0    2   12     -1.14      0.00
    0    0   12      1.64      0.00
    0   34   13      0.20      0.00
    0   32   13      0.32      0.00
    0   30   13      0.03      0.00
    0   28   13      0.49      0.00
    0   26   13      0.39      0.00
    0   24   13      0.61      0.00
    0   22   13      1.12      0.00
    0   20   13      0.20      0.00
    0   18   13     -0.85      0.00
    0   16   13     -0.94      0.00
    0   14   13     -0.14      0.00
    0   12   13      0.37      0.00
    0   10   13     -0.65      0.00
    0    8   13     -2.44      0.00
    0    6   13     -0.25      0.00
    0    4   13      4.09      0.00
    0    2   13      3.21      0.00
    0   32   14      0.36      0.00
    0   30   14      0.82      0.00
    0   28   14     -0.03      0.00
    0   26   14     -0.68      0.00
    0   24   14     -0.33      0.00
    0   22   14      0.61      0.00
    0   20   14     -0.28      0.00
    0   18   14     -1.62      0.00
    0   16   14      0.01      0.00
    0   14   14      1.19      0.00
    0   12   14     -1.59      0.00
    0   10   14     -2.60      0.00
    0    8   14      0.55      0.00
    0    6   14      2.03      0.00
    0    4   14      1.57      0.00
    0    2   14     -0.34      0.00
    0    0   14     -2.18      0.00
    0   30   15      0.51      0.00
    0   28   15     -0.12      0.00
    0   26   15     -0.55      0.00
    0   24   15     -0.07      0.00
    0   22   15     -0.67      0.00
    0   20   15     -0.74      0.00
    0   18   15      0.73      0.00
    0   16   15      1.22      0.00
    0   14   15      1.27      0.00
    0   12   15      1.25      0.00
    0   10   15      0.39      0.00
    0    8   15      1.37      0.00
    0    6   15      2.22      0.00
    0    4   15      0.72      0.00
    0    2   15      0.23      0.00
    0   28   16      0.24      0.00
    0   26   16     -0.73      0.00
    0   24   16      0.22      0.00
    0   22   16      1.18      0.00
    0   20   16     -0.05      0.00
    0   18   16      0.34      0.00
    0   16   16      1.46      0.00
    0   14   16      0.09      0.00
    0   12   16      0.18      0.00
    0   10   16      1.12      0.00
    0    8   16      0.00      0.00
    0    6   16     -0.34      0.00
    0    4   16     -0.35      0.00
    0    2   16     -0.55      0.00
    0    0   16     -0.27      0.00
    0   26   17     -0.25      0.00
    0   24   17     -0.30      0.00
    0   22   17     -0.26      0.00
    0   20   17     -0.32      0.00
    0   18   17     -0.26      0.00
    0   16   17      0.30      0.00
    0   14   17     -0.03      0.00
    0   12   17     -0.38      0.00
    0   10   17      0.45      0.00
    0    8   17     -0.03      0.00
    0    6   17     -0.52      0.00
    0    4   17      0.13      0.00
    0    2   17     -0.12      0.00
    0   22   18     -0.19      0.00
    0   20   18     -0.96      0.00
    0   18   18     -0.33      0.00
    0   16   18      0.35      0.00
    0   14   18      0.27      0.00
    0   12   18      0.22      0.00
    0   10   18      0.62      0.00
    0    8   18     -0.10      0.00
    0    6   18     -0.84      0.00
    0    4   18      0.33      0.00
    0    2   18     -0.55      0.00
    0    0   18     -2.35      0.00
    0   18   19     -0.17      0.00
    0   16   19     -0.06      0.00
    0   14   19      0.19      0.00
    0   12   19     -0.04      0.00
    0   10   19     -0.44      0.00
    0    8   19     -0.04      0.00
    0    6   19      0.11      0.00
    0    4   19     -0.26      0.00
    0    2   19     -0.01      0.00
    0   12   20     -0.23      0.00
    0   10   20      0.29      0.00
    0    8   20     -0.35      0.00
    0    6   20     -0.50      0.00
    0    4   20      0.22      0.00
    0    2   20      0.43      0.00
    0    0   20      0.31      0.00
    1    3   20     -0.03      0.00
    1    1   20      0.36      0.00
    1    5   20      0.22      0.00
    1    7   20      0.42      0.00
    1    9   20     -0.21      0.00
    1    5   19     -0.08      0.00
    1    3   19      0.23      0.00
    1    1   19      0.08      0.00
    1    7   19     -0.44      0.00
    1    9   19     -0.07      0.00
    1   11   19     -0.05      0.00
    1   13   19     -0.64      0.00
    1   15   19     -0.62      0.00
    1   17   19      0.05      0.00
    1    5   18      0.14      0.00
    1    3   18     -0.21      0.00
    1    1   18      2.01      0.00
    1    7   18      0.65      0.00
    1    9   18     -0.30      0.00
    1   11   18     -0.39      0.00
    1   13   18     -0.28      0.00
    1   15   18     -0.46      0.00
    1   17   18      0.31      0.00
    1   19   18      1.40      0.00
    1   21   18      0.93      0.00
    1    7   17     -0.08      0.00
    1    5   17     -0.45      0.00
    1    3   17     -0.13      0.00
    1    1   17      0.29      0.00
    1    9   17     -0.43      0.00
    1   11   17     -0.25      0.00
    1   13   17      0.01      0.00
    1   15   17     -0.14      0.00
    1   17   17      0.53      0.00
    1   19   17      1.07      0.00
    1   21   17      0.65      0.00
    1   23   17      0.14      0.00
    1   25   17      0.24      0.00
    1   27   16     -0.39      0.00
    1   25   16     -0.13      0.00
    1   23   16     -1.35      0.00
    1   21   16     -1.45      0.00
    1   19   16     -0.22      0.00
    1   17   16     -0.40      0.00
    1    7   16     -0.06      0.00
    1    5   16     -0.93      0.00
    1    3   16     -0.85      0.00
    1    1   16     -0.63      0.00
    1    9   16     -0.07      0.00
    1   11   16     -0.01      0.00
    1   13   16      0.57      0.00
    1   15   16     -0.25      0.00
    1   29   15      0.00      0.00
    1   27   15      0.60      0.00
    1   25   15      0.00      0.00
    1   23   15     -0.35      0.00
    1   21   15      0.28      0.00
    1   19   15     -0.31      0.00
    1   17   15     -1.45      0.00
    1   15   15     -1.19      0.00
    1   13   15     -0.66      0.00
    1   11   15      0.06      0.00
    1    9   15      0.09      0.00
    1    7   15     -1.43      0.00
    1    5   15     -0.96      0.00
    1    3   15      0.41      0.00
    1    1   15      0.25      0.00
    1   31   14     -0.33      0.00
    1   29   14     -0.55      0.00
    1   27   14      0.31      0.00
    1   25   14      1.33      0.00
    1   23   14      0.42      0.00
    1   21   14     -0.92      0.00
    1   19   14      0.25      0.00
    1   17   14      0.81      0.00
    1   15   14     -0.98      0.00
    1   13   14     -0.30      0.00
    1    9   14      1.68      0.00
    1    7   14     -2.06      0.00
    1    5   14     -2.38      0.00
    1    3   14     -0.46      0.00
    1    1   14      2.09      0.00
    1   11   14      2.94      0.00
    1   33   13     -0.16      0.00
    1   31   13      0.32      0.00
    1   29   13     -0.21      0.00
    1   27   13     -0.84      0.00
    1   25   13     -0.30      0.00
    1   23   13     -0.72      0.00
    1   21   13     -0.74      0.00
    1   19   13      0.01      0.00
    1   17   13      0.16      0.00
    1   15   13     -0.22      0.00
    1   13   13     -0.19      0.00
    1   11   13      0.89      0.00
    1    9   13      2.81      0.00
    1    7   13      3.20      0.00
    1    5   13     -0.57      0.00
    1    3   13     -2.66      0.00
    1    1   13     -0.88      0.00
    1   35   12     -0.25      0.00
    1   33   12      0.38      0.00
    1   31   12      1.34      0.00
    1   29   12      0.55      0.00
    1   27   12     -0.24      0.00
    1   25   12      0.63      0.00
    1   23   12      1.83      0.00
    1   21   12      0.42      0.00
    1   19   12     -0.81      0.00
    1   17   12      0.03      0.00
    1   15   12     -1.43      0.00
    1   13   12     -3.07      0.00
    1   11   12     -3.18      0.00
    1    9   12     -3.34      0.00
    1    5   12      2.74      0.00
    1    3   12      5.12      0.00
    1    1   12      1.60      0.00
    1    7   12     -1.79      0.00
    1   37   11     -0.09      0.00
    1   35   11     -0.34      0.00
    1   33   11     -0.86      0.00
    1   31   11     -1.14      0.00
    1   29   11     -0.08      0.00
    1   27   11      0.64      0.00
    1   25   11      0.26      0.00
    1   23   11     -0.65      0.00
    1   21   11     -0.76      0.00
    1   19   11      2.20      0.00
    1   17   11      3.49      0.00
    1   15   11      1.45      0.00
    1   13   11     -0.33      0.00
    1   11   11     -1.75      0.00
    1    9   11     -4.19      0.00
    1    7   11     -6.88      0.00
    1    5   11     -4.24      0.00
    1    3   11      0.58      0.00
    1    1   11      0.92      0.00
    1   39   10      0.15      0.00
    1   37   10     -0.34      0.00
    1   35   10      0.61      0.00
    1   33   10      1.28      0.00
    1   31   10     -0.23      0.00
    1   29   10     -1.98      0.00
    1   27   10     -1.34      0.00
    1   25   10      1.34      0.00
    1   23   10      1.81      0.00
    1   21   10     -0.74      0.00
    1   19   10     -2.68      0.00
    1   17   10     -0.61      0.00
    1   15   10      0.82      0.00
    1   13   10     -2.00      0.00
    1   11   10     -0.56      0.00
    1    9   10      2.65      0.00
    1    7   10      0.27      0.00
    1    5   10     -2.63      0.00
    1    3   10     -2.65      0.00
    1    1   10     -0.76      0.00
    1   39    9      0.03      0.00
    1   37    9     -0.03      0.00
    1   35    9      0.18      0.00
    1   33    9      0.28      0.00
    1   31    9      0.71      0.00
    1   29    9      0.28      0.00
    1   27    9     -1.17      0.00
    1   25    9     -0.38      0.00
    1   23    9      2.91      0.00
    1   21    9      2.07      0.00
    1   19    9     -2.04      0.00
    1   17    9     -1.12      0.00
    1   15    9      2.04      0.00
    1   13    9      2.54      0.00
    1   11    9      0.52      0.00
    1    9    9     -1.24      0.00
    1    7    9     -0.32      0.00
    1    5    9     -1.50      0.00
    1    3    9     -2.86      0.00
    1    1    9     -1.06      0.00
    1   41    8     -0.23      0.00
    1   39    8      0.40      0.00
    1   37    8      0.01      0.00
    1   35    8     -0.97      0.00
    1   33    8     -0.22      0.00
    1   31    8      1.25      0.00
    1   29    8      0.68      0.00
    1   27    8     -1.52      0.00
    1   25    8     -1.23      0.00
    1   23    8      1.84      0.00
    1   21    8      2.17      0.00
    1   19    8     -0.32      0.00
    1   17    8     -0.53      0.00
    1   15    8      2.92      0.00
    1   11    8     -1.19      0.00
    1    9    8     -1.62      0.00
    1    7    8      1.99      0.00
    1    5    8      5.45      0.00
    1    3    8      2.43      0.00
    1    1    8     -9.19      0.00
    1   13    8      3.34      0.00
    1   41    7     -0.27      0.00
    1   39    7      0.84      0.00
    1   37    7      0.59      0.00
    1   35    7     -0.54      0.00
    1   33    7     -0.30      0.00
    1   31    7      0.51      0.00
    1   29    7      0.39      0.00
    1   27    7     -1.27      0.00
    1   25    7     -3.04      0.00
    1   23    7     -1.21      0.00
    1   21    7      4.34      0.00
    1   19    7      4.14      0.00
    1   17    7     -3.59      0.00
    1   15    7     -4.79      0.00
    1   13    7      6.66      0.00
    1   11    7     17.40      0.00
    1    9    7      6.90      0.00
    1    7    7    -12.97      0.00
    1    5    7    -11.76      0.00
    1    3    7     -1.43      0.00
    1    1    7      0.39      0.00
    1   43    6      0.11      0.00
    1   41    6     -0.20      0.00
    1   39    6      0.23      0.00
    1   37    6      0.43      0.00
    1   35    6     -0.06      0.00
    1   33    6      0.51      0.00
    1   31    6      1.50      0.00
    1   29    6      1.20      0.00
    1   27    6      1.21      0.00
    1   25    6     -0.25      0.00
    1   23    6     -3.83      0.00
    1   21    6     -4.09      0.00
    1   19    6     -1.31      0.00
    1   17    6     -0.11      0.00
    1   15    6     -4.02      0.00
    1   13    6     -6.88      0.00
    1   11    6     -0.65      0.00
    1    9    6      5.40      0.00
    1    7    6     -0.83      0.00
    1    3    6     -4.56      0.00
    1    1    6     35.76      0.00
    1    5    6    -15.71      0.00
    1   43    5      0.16      0.00
    1   41    5     -0.39      0.00
    1   39    5     -0.38      0.00
    1   37    5     -0.23      0.00
    1   35    5      0.02      0.00
    1   33    5      0.54      0.00
    1   31    5     -0.31      0.00
    1   29    5     -1.81      0.00
    1   27    5     -0.81      0.00
    1   25    5      1.51      0.00
    1   23    5      2.19      0.00
    1   21    5      0.64      0.00
    1   19    5      4.15      0.00
    1   17    5     13.55      0.00
    1   15    5     11.97      0.00
    1   13    5     -4.87      0.00
    1   11    5    -18.71      0.00
    1    9    5     -8.82      0.00
    1    7    5      1.17      0.00
    1    5    5    -26.00      0.00
    1    3    5    -47.32      0.00
    1    1    5    -22.30      0.00
    1   43    4     -0.06      0.00
    1   41    4      0.28      0.00
    1   39    4      0.51      0.00
    1   37    4     -0.35      0.00
    1   35    4     -1.13      0.00
    1   33    4     -1.09      0.00
    1   31    4      0.63      0.00
    1   29    4      1.91      0.00
    1   27    4     -1.67      0.00
    1   25    4     -5.03      0.00
    1   23    4     -1.93      0.00
    1   21    4      1.15      0.00
    1   19    4     -0.59      0.00
    1   17    4     -4.31      0.00
    1   15    4      2.43      0.00
    1   13    4     16.36      0.00
    1   11    4     18.03      0.00
    1    9    4     10.93      0.00
    1    7    4     -2.61      0.00
    1    5    4     -9.87      0.00
    1    3    4     -9.26      0.00
    1    1    4    -23.18      0.00
    1   43    3      0.01      0.00
    1   41    3      0.83      0.00
    1   39    3      0.76      0.00
    1   37    3      1.52      0.00
    1   35    3      0.86      0.00
    1   33    3     -1.50      0.00
    1   31    3     -1.28      0.00
    1   29    3      1.77      0.00
    1   27    3      2.37      0.00
    1   25    3     -1.97      0.00
    1   23    3     -8.34      0.00
    1   21    3     -4.52      0.00
    1   19    3      8.37      0.00
    1   17    3      9.19      0.00
    1   15    3     -4.29      0.00
    1   13    3    -19.00      0.00
    1   11    3    -19.96      0.00
    1    9    3    -12.93      0.00
    1    7    3      1.76      0.00
    1    5    3     25.90      0.00
    1    1    3     -4.51      0.00
    1    3    3     14.00      0.00
    1   43    2      1.28      0.00
    1   41    2      1.03      0.00
    1   39    2     -0.74      0.00
    1   37    2     -0.02      0.00
    1   35    2      1.87      0.00
    1   33    2      1.25      0.00
    1   31    2     -1.29      0.00
    1   29    2     -1.76      0.00
    1   27    2      1.77      0.00
    1   25    2      3.93      0.00
    1   23    2     -2.23      0.00
    1   21    2     -7.24      0.00
    1   19    2     -2.18      0.00
    1   17    2     10.20      0.00
    1   15    2     11.35      0.00
    1   13    2     -8.27      0.00
    1   11    2    -20.62      0.00
    1    9    2      8.31      0.00
    1    7    2     60.46      0.00
    1    5    2     41.31      0.00
    1    3    2    -16.02      0.00
    1    1    2     -2.11      0.00
    1   45    1      1.28      0.00
    1   43    1      1.35      0.00
    1   41    1      0.19      0.00
    1   39    1      0.07      0.00
    1   37    1     -0.66      0.00
    1   35    1     -0.50      0.00
    1   33    1      0.53      0.00
    1   31    1     -0.24      0.00
    1   29    1     -3.04      0.00
    1   27    1     -1.17      0.00
    1   25    1      4.61      0.00
    1   23    1      6.45      0.00
    1   21    1      0.87      0.00
    1   19    1     -0.45      0.00
    1   17    1     14.79      0.00
    1   15    1     18.92      0.00
    1   13    1     -9.09      0.00
    1   11    1    -29.46      0.00
    1    9    1      3.26      0.00
    1    7    1     10.48      0.00
    1    5    1    -61.41      0.00
    1    3    1    -71.79      0.00
    1    1    1    -17.74      0.00
    1   45    0      0.69      0.00
    1   43    0      0.26      0.00
    1   41    0      0.35      0.00
    1   39    0      0.34      0.00
    1   37    0     -0.36      0.00
    1   35    0     -0.32      0.00
    1   33    0      2.12      0.00
    1   31    0      3.22      0.00
    1   29    0     -0.54      0.00
    1   27    0     -4.13      0.00
    1   25    0     -0.98      0.00
    1   23    0      6.58      0.00
    1   21    0      2.23      0.00
    1   19    0     -5.59      0.00
    1   17    0      5.85      0.00
    1   15    0     27.71      0.00
    1   13    0     26.51      0.00
    1   11    0     -6.48      0.00
    1    9    0    -30.76      0.00
    1    7    0      7.06      0.00
    1    5    0     82.02      0.00
    1    3    0    -40.25      0.00
    1    1    0   -349.81      0.00
   -1   45    1     -0.04      0.00
   -1   43    1      0.24      0.00
   -1   41    1     -0.07      0.00
   -1   39    1      0.15      0.00
   -1   37    1     -0.64      0.00
   -1   35    1     -0.64      0.00
   -1   33    1      0.51      0.00
   -1   31    1      1.03      0.00
   -1   29    1     -0.62      0.00
   -1   27    1      1.09      0.00
   -1   25    1      5.58      0.00
   -1   23    1      3.87      0.00
   -1   21    1     -5.14      0.00
   -1   19    1     -3.33      0.00
   -1   17    1     17.30      0.00
   -1   15    1     15.11      0.00
   -1   13    1    -28.29      0.00
   -1   11    1    -51.05      0.00
   -1    9    1      3.54      0.00
   -1    7    1     44.99      0.00
   -1    5    1      3.67      0.00
   -1    3    1      1.38      0.00
   -1    1    1     16.42      0.00
   -1   45    2     -0.67      0.00
   -1   43    2      1.53      0.00
   -1   41    2      1.58      0.00
   -1   39    2      0.03      0.00
   -1   37    2     -0.21      0.00
   -1   35    2      0.91      0.00
   -1   33    2      0.63      0.00
   -1   31    2     -1.02      0.00
   -1   29    2     -0.42      0.00
   -1   27    2      1.83      0.00
   -1   25    2      0.10      0.00
   -1   23    2     -6.75      0.00
   -1   21    2     -8.30      0.00
   -1   19    2     -3.20      0.00
   -1   17    2      5.86      0.00
   -1   15    2     11.99      0.00
   -1   13    2     13.82      0.00
   -1   11    2     22.95      0.00
   -1    9    2     35.81      0.00
   -1    7    2     32.01      0.00
   -1    5    2    -26.07      0.00
   -1    3    2    -56.99      0.00
   -1    1    2     11.72      0.00
   -1   43    3     -0.52      0.00
   -1   41    3      0.17      0.00
   -1   39    3      0.84      0.00
   -1   37    3      1.44      0.00
   -1   35    3      0.26      0.00
   -1   33    3     -1.38      0.00
   -1   31    3     -0.64      0.00
   -1   29    3      1.85      0.00
   -1   27    3      1.95      0.00
   -1   25    3     -2.34      0.00
   -1   23    3     -7.44      0.00
   -1   21    3     -1.85      0.00
   -1   19    3      8.18      0.00
   -1   17    3      6.41      0.00
   -1   15    3      2.83      0.00
   -1   11    3    -14.24      0.00
   -1    9    3    -21.21      0.00
   -1    7    3    -14.08      0.00
   -1    5    3     -8.02      0.00
   -1    3    3    -39.89      0.00
   -1    1    3    -34.14      0.00
   -1   43    4     -0.70      0.00
   -1   41    4      0.49      0.00
   -1   39    4      1.31      0.00
   -1   37    4     -0.05      0.00
   -1   35    4     -0.60      0.00
   -1   33    4      0.71      0.00
   -1   31    4      2.36      0.00
   -1   29    4      2.17      0.00
   -1   27    4     -1.50      0.00
   -1   25    4     -2.92      0.00
   -1   23    4     -0.04      0.00
   -1   21    4      0.86      0.00
   -1   19    4      0.80      0.00
   -1   17    4     -2.04      0.00
   -1   15    4     -0.54      0.00
   -1   13    4      6.21      0.00
   -1   11    4      4.82      0.00
   -1    9    4      4.02      0.00
   -1    7    4     -8.83      0.00
   -1    3    4     -1.20      0.00
   -1    1    4     31.48      0.00
   -1    5    4    -24.52      0.00
   -1   43    5     -0.34      0.00
   -1   41    5     -0.22      0.00
   -1   39    5      0.05      0.00
   -1   37    5     -0.41      0.00
   -1   35    5     -0.34      0.00
   -1   33    5      1.31      0.00
   -1   31    5      0.69      0.00
   -1   29    5     -2.01      0.00
   -1   27    5     -2.01      0.00
   -1   25    5      0.29      0.00
   -1   23    5      2.78      0.00
   -1   21    5      0.40      0.00
   -1   19    5     -2.74      0.00
   -1   17    5     -1.32      0.00
   -1   15    5     -5.46      0.00
   -1   13    5     -6.70      0.00
   -1   11    5      5.80      0.00
   -1    9    5     21.18      0.00
   -1    7    5     18.05      0.00
   -1    5    5    -11.21      0.00
   -1    3    5    -25.70      0.00
   -1    1    5    -10.40      0.00
   -1   43    6      0.29      0.00
   -1   41    6      0.56      0.00
   -1   39    6      0.34      0.00
   -1   37    6      0.19      0.00
   -1   35    6     -0.09      0.00
   -1   33    6      0.16      0.00
   -1   31    6     -0.09      0.00
   -1   29    6     -2.17      0.00
   -1   27    6     -1.69      0.00
   -1   25    6     -1.40      0.00
   -1   23    6     -4.95      0.00
   -1   21    6     -4.49      0.00
   -1   19    6      1.30      0.00
   -1   17    6      6.15      0.00
   -1   15    6      2.71      0.00
   -1   13    6      0.44      0.00
   -1   11    6     15.73      0.00
   -1    7    6     15.25      0.00
   -1    5    6    -11.33      0.00
   -1    3    6    -21.48      0.00
   -1    1    6     -7.14      0.00
   -1   41    7     -0.01      0.00
   -1   39    7      0.12      0.00
   -1   37    7     -0.37      0.00
   -1   35    7     -0.78      0.00
   -1   33    7     -1.09      0.00
   -1   31    7     -0.23      0.00
   -1   29    7      0.65      0.00
   -1   27    7     -1.12      0.00
   -1   25    7     -1.04      0.00
   -1   23    7      3.95      0.00
   -1   21    7      9.14      0.00
   -1   19    7      5.93      0.00
   -1   17    7     -3.73      0.00
   -1   15    7     -4.14      0.00
   -1   13    7      7.08      0.00
   -1   11    7     11.14      0.00
   -1    9    7     -9.80      0.00
   -1    5    7    -20.10      0.00
   -1    3    7      2.91      0.00
   -1    1    7      4.52      0.00
   -1    7    7    -32.41      0.00
   -1   41    8      0.28      0.00
   -1   39    8      0.05      0.00
   -1   37    8     -0.30      0.00
   -1   35    8     -0.05      0.00
   -1   33    8      1.15      0.00
   -1   31    8      1.00      0.00
   -1   29    8     -0.45      0.00
   -1   27    8     -1.01      0.00
   -1   25    8      0.99      0.00
   -1   23    8      2.40      0.00
   -1   21    8     -1.30      0.00
   -1   19    8     -5.21      0.00
   -1   17    8     -4.19      0.00
   -1   15    8     -0.50      0.00
   -1   13    8      0.11      0.00
   -1   11    8     -1.84      0.00
   -1    9    8     -0.33      0.00
   -1    7    8      3.33      0.00
   -1    5    8      9.45      0.00
   -1    3    8      7.71      0.00
   -1    1    8     -8.07      0.00
   -1   41    9     -0.05      0.00
   -1   39    9     -0.38      0.00
   -1   37    9     -0.07      0.00
   -1   35    9      0.19      0.00
   -1   33    9     -0.10      0.00
   -1   31    9      0.00      0.00
   -1   29    9      0.28      0.00
   -1   27    9      0.07      0.00
   -1   25    9     -0.22      0.00
   -1   23    9      0.01      0.00
   -1   21    9     -0.55      0.00
   -1   19    9      0.82      0.00
   -1   17    9      5.94      0.00
   -1   15    9      7.42      0.00
   -1   13    9      2.41      0.00
   -1   11    9     -4.56      0.00
   -1    9    9     -5.23      0.00
   -1    7    9      0.74      0.00
   -1    5    9      2.79      0.00
   -1    3    9      2.99      0.00
   -1    1    9      2.18      0.00
   -1   39   10      0.11      0.00
   -1   37   10     -0.24      0.00
   -1   35   10      0.79      0.00
   -1   33   10      1.21      0.00
   -1   31   10      0.06      0.00
   -1   29   10     -0.34      0.00
   -1   27   10      0.22      0.00
   -1   25   10      0.38      0.00
   -1   23   10      0.56      0.00
   -1   21   10      0.75      0.00
   -1   19   10     -0.20      0.00
   -1   17   10     -0.24      0.00
   -1   15   10     -0.71      0.00
   -1   13   10     -2.29      0.00
   -1   11   10     -1.00      0.00
   -1    9   10     -1.01      0.00
   -1    7   10     -0.79      0.00
   -1    5   10      3.17      0.00
   -1    3   10      3.23      0.00
   -1    1   10      0.26      0.00
   -1   37   11      0.11      0.00
   -1   35   11      0.06      0.00
   -1   33   11      0.33      0.00
   -1   31   11      0.32      0.00
   -1   29   11      0.11      0.00
   -1   27   11      0.20      0.00
   -1   25   11      0.13      0.00
   -1   23   11     -0.79      0.00
   -1   21   11     -0.69      0.00
   -1   19   11      0.60      0.00
   -1   17   11     -0.56      0.00
   -1   15   11     -1.80      0.00
   -1   13   11     -0.80      0.00
   -1   11   11      1.62      0.00
   -1    9   11      4.14      0.00
   -1    7   11      2.92      0.00
   -1    5   11     -0.06      0.00
   -1    3   11     -2.38      0.00
   -1    1   11     -1.85      0.00
   -1   37   12      0.27      0.00
   -1   35   12      0.18      0.00
   -1   33   12      0.11      0.00
   -1   31   12      0.36      0.00
   -1   29   12     -0.13      0.00
   -1   27   12     -0.06      0.00
   -1   25   12      0.86      0.00
   -1   23   12      0.31      0.00
   -1   21   12     -1.71      0.00
   -1   19   12     -1.12      0.00
   -1   17   12      1.10      0.00
   -1   15   12      1.56      0.00
   -1   13   12      2.76      0.00
   -1   11   12      2.94      0.00
   -1    9   12     -0.18      0.00
   -1    7   12     -3.37      0.00
   -1    5   12     -3.04      0.00
   -1    3   12     -0.84      0.00
   -1    1   12     -1.54      0.00
   -1   35   13      0.07      0.00
   -1   33   13     -0.52      0.00
   -1   31   13     -0.42      0.00
   -1   29   13     -0.16      0.00
   -1   27   13     -0.18      0.00
   -1   25   13      0.08      0.00
   -1   23   13     -0.18      0.00
   -1   21   13     -0.08      0.00
   -1   19   13      0.61      0.00
   -1   17   13      1.26      0.00
   -1   15   13      1.05      0.00
   -1   13   13     -0.30      0.00
   -1   11   13     -1.35      0.00
   -1    9   13     -0.68      0.00
   -1    7   13     -0.52      0.00
   -1    5   13     -3.43      0.00
   -1    3   13     -3.77      0.00
   -1    1   13     -0.98      0.00
   -1   33   14      0.02      0.00
   -1   31   14     -0.87      0.00
   -1   29   14     -0.17      0.00
   -1   27   14      0.54      0.00
   -1   25   14      0.21      0.00
   -1   23   14     -0.40      0.00
   -1   21   14     -0.23      0.00
   -1   19   14      0.93      0.00
   -1   17   14      0.30      0.00
   -1   15   14     -1.60      0.00
   -1   13   14     -0.58      0.00
   -1   11   14      1.22      0.00
   -1    9   14     -0.09      0.00
   -1    7   14     -0.29      0.00
   -1    5   14      0.82      0.00
   -1    3   14      0.19      0.00
   -1    1   14      0.72      0.00
   -1   31   15     -0.42      0.00
   -1   29   15     -0.67      0.00
   -1   27   15      0.17      0.00
   -1   25   15      0.12      0.00
   -1   23   15      0.16      0.00
   -1   21   15      0.68      0.00
   -1   19   15     -0.08      0.00
   -1   17   15     -0.46      0.00
   -1   15   15     -0.27      0.00
   -1   13   15     -1.29      0.00
   -1   11   15     -0.96      0.00
   -1    9   15     -0.14      0.00
   -1    7   15     -1.05      0.00
   -1    5   15     -0.83      0.00
   -1    3   15     -0.68      0.00
   -1    1   15     -0.69      0.00
   -1   29   16     -0.08      0.00
   -1   27   16      0.73      0.00
   -1   25   16      0.89      0.00
   -1   23   16     -0.46      0.00
   -1   21   16      0.29      0.00
   -1   19   16      1.00      0.00
   -1   17   16     -1.07      0.00
   -1   15   16     -0.98      0.00
   -1   13   16      0.01      0.00
   -1   11   16     -1.26      0.00
   -1    9   16     -0.44      0.00
   -1    7   16      1.03      0.00
   -1    5   16      0.63      0.00
   -1    3   16      0.73      0.00
   -1    1   16      0.66      0.00
   -1   27   17      0.01      0.00
   -1   25   17      0.46      0.00
   -1   23   17      0.49      0.00
   -1   21   17     -0.23      0.00
   -1   19   17     -0.36      0.00
   -1   17   17     -0.65      0.00
   -1   15   17     -0.85      0.00
   -1   13   17      0.45      0.00
   -1   11   17      0.46      0.00
   -1    9   17     -0.22      0.00
   -1    7   17      0.62      0.00
   -1    5   17      0.48      0.00
   -1    3   17      0.15      0.00
   -1    1   17      0.25      0.00
   -1   23   18     -0.57      0.00
   -1   21   18      0.31      0.00
   -1   19   18      0.01      0.00
   -1   17   18     -0.25      0.00
   -1   15   18      0.35      0.00
   -1   13   18      0.82      0.00
   -1   11   18      0.28      0.00
   -1    9   18     -0.45      0.00
   -1    7   18      0.44      0.00
   -1    5   18      0.36      0.00
   -1    3   18     -0.67      0.00
   -1    1   18      0.59      0.00
   -1   19   19     -0.01      0.00
   -1   17   19      0.28      0.00
   -1   15   19      0.50      0.00
   -1   13   19      0.12      0.00
   -1   11   19     -0.02      0.00
   -1    9   19     -0.04      0.00
   -1    7   19     -0.28      0.00
   -1    5   19     -0.10      0.00
   -1    3   19     -0.48      0.00
   -1    1   19     -0.54      0.00
   -1   13   20      0.56      0.00
   -1   11   20     -0.28      0.00
   -1    9   20      0.15      0.00
   -1    7   20      0.73      0.00
   -1    5   20      0.07      0.00
   -1    3   20     -0.36      0.00
   -1    1   20     -0.20      0.00
   -1    5   21      0.14      0.00
   -1    3   21     -0.64      0.00
   -1    1   21     -0.64      0.00
    2    2   20     -0.56      0.00
    2    4   20     -0.05      0.00
    2    2   19     -0.20      0.00
    2    4   19     -0.01      0.00
    2    6   19      0.60      0.00
    2    8   19      0.85      0.00
    2   10   19      0.61      0.00
    2   12   19      0.66      0.00
    2   14   19      0.83      0.00
    2    0   18     -1.60      0.00
    2    2   18     -0.24      0.00
    2    4   18      0.79      0.00
    2    6   18     -0.11      0.00
    2    8   18     -0.34      0.00
    2   10   18     -0.28      0.00
    2   12   18     -0.55      0.00
    2   14   18     -0.32      0.00
    2   16   18     -0.44      0.00
    2   18   18     -1.18      0.00
    2    2   17     -0.23      0.00
    2    4   17      0.61      0.00
    2    6   17      0.59      0.00
    2    8   17     -0.06      0.00
    2   10   17     -0.28      0.00
    2   12   17     -0.17      0.00
    2   14   17      0.37      0.00
    2   16   17      0.32      0.00
    2   18   17     -0.42      0.00
    2   20   17     -0.45      0.00
    2   22   17      0.12      0.00
    2    0   16      0.63      0.00
    2    2   16      1.14      0.00
    2    4   16      1.83      0.00
    2    6   16      0.88      0.00
    2    8   16     -0.64      0.00
    2   10   16     -0.74      0.00
    2   12   16     -0.25      0.00
    2   14   16      0.30      0.00
    2   16   16      0.13      0.00
    2   18   16     -0.22      0.00
    2   20   16      0.82      0.00
    2   22   16      1.21      0.00
    2   24   16      0.32      0.00
    2   26   16      0.40      0.00
    2   28   15     -0.24      0.00
    2   26   15      0.01      0.00
    2   24   15      0.53      0.00
    2    4   15     -0.36      0.00
    2    2   15     -0.54      0.00
    2    6   15      0.10      0.00
    2    8   15     -0.79      0.00
    2   10   15     -0.98      0.00
    2   12   15     -0.07      0.00
    2   14   15      0.40      0.00
    2   16   15      0.84      0.00
    2   18   15      0.56      0.00
    2   20   15      0.05      0.00
    2   22   15      0.38      0.00
    2   30   14     -0.04      0.00
    2   28   14      0.33      0.00
    2   26   14     -0.61      0.00
    2   24   14     -1.47      0.00
    2   22   14      0.16      0.00
    2    4   14     -0.52      0.00
    2    2   14     -1.71      0.00
    2    0   14     -2.14      0.00
    2    6   14      1.18      0.00
    2    8   14      0.32      0.00
    2   10   14     -1.63      0.00
    2   12   14      0.14      0.00
    2   14   14      1.55      0.00
    2   16   14      0.10      0.00
    2   18   14     -0.12      0.00
    2   20   14      1.08      0.00
    2   32   13      0.10      0.00
    2   30   13     -0.12      0.00
    2   28   13      0.70      0.00
    2   26   13      0.32      0.00
    2   24   13     -0.11      0.00
    2   18   13     -0.01      0.00
    2    4   13      0.88      0.00
    2    2   13      0.21      0.00
    2    6   13     -0.73      0.00
    2    8   13     -1.28      0.00
    2   10   13     -0.40      0.00
    2   12   13      0.11      0.00
    2   14   13      0.30      0.00
    2   16   13      0.06      0.00
    2   20   13      0.25      0.00
    2   22   13      0.42      0.00
    2   34   12      0.13      0.00
    2   32   12     -0.71      0.00
    2   30   12     -0.49      0.00
    2   28   12      0.59      0.00
    2   26   12      0.58      0.00
    2   24   12     -1.29      0.00
    2   22   12     -2.70      0.00
    2   20   12     -0.84      0.00
    2   18   12      0.07      0.00
    2   16   12      0.44      0.00
    2    4   12     -3.21      0.00
    2    0   12     -0.41      0.00
    2    2   12     -2.67      0.00
    2    6   12     -0.17      0.00
    2    8   12      1.77      0.00
    2   10   12      2.86      0.00
    2   12   12      3.65      0.00
    2   14   12      2.76      0.00
    2   36   11      0.23      0.00
    2   34   11      0.41      0.00
    2   32   11      0.59      0.00
    2   30   11      0.42      0.00
    2   28   11      0.10      0.00
    2   26   11      0.58      0.00
    2   24   11      0.12      0.00
    2   22   11      0.13      0.00
    2   20   11     -0.68      0.00
    2   18   11     -3.44      0.00
    2   16   11     -3.22      0.00
    2   14   11     -0.56      0.00
    2    4   11      2.03      0.00
    2    2   11      1.02      0.00
    2    6   11      4.24      0.00
    2    8   11      4.37      0.00
    2   10   11      3.35      0.00
    2   12   11      1.94      0.00
    2   38   10      0.00      0.00
    2   36   10      0.32      0.00
    2   34   10      0.05      0.00
    2   32   10     -0.02      0.00
    2   30   10      0.32      0.00
    2   28   10      1.15      0.00
    2   26   10      0.42      0.00
    2   24   10     -1.31      0.00
    2   22   10     -0.47      0.00
    2   20   10      2.02      0.00
    2   18   10      2.36      0.00
    2   14   10     -1.91      0.00
    2   12   10      1.79      0.00
    2    4   10      0.36      0.00
    2    2   10      1.18      0.00
    2    0   10      1.22      0.00
    2    6   10      0.07      0.00
    2    8   10      0.68      0.00
    2   10   10      2.06      0.00
    2   16   10     -1.32      0.00
    2   38    9     -0.01      0.00
    2   36    9     -0.02      0.00
    2   34    9      0.02      0.00
    2   32    9     -0.12      0.00
    2   30    9     -0.33      0.00
    2   28    9      0.89      0.00
    2   26    9      1.76      0.00
    2   24    9     -0.98      0.00
    2   22    9     -3.91      0.00
    2   20    9     -0.25      0.00
    2   18    9      4.21      0.00
    2   16    9      2.22      0.00
    2   14    9     -2.78      0.00
    2   12    9     -6.54      0.00
    2    4    9      5.07      0.00
    2    2    9      1.07      0.00
    2    6    9      6.92      0.00
    2    8    9      3.44      0.00
    2   10    9     -3.76      0.00
    2   40    8      0.02      0.00
    2   38    8     -0.42      0.00
    2   36    8      0.40      0.00
    2   34    8      1.08      0.00
    2   32    8     -0.09      0.00
    2   30    8     -1.41      0.00
    2   28    8     -0.52      0.00
    2   26    8      1.63      0.00
    2   24    8      1.16      0.00
    2   22    8     -1.21      0.00
    2   20    8     -1.25      0.00
    2   18    8      0.59      0.00
    2   16    8      0.82      0.00
    2   14    8     -1.49      0.00
    2   12    8     -3.16      0.00
    2   10    8     -4.23      0.00
    2    0    8      3.41      0.00
    2    2    8      2.94      0.00
    2    4    8      3.84      0.00
    2    6    8      1.96      0.00
    2    8    8     -3.28      0.00
    2   40    7     -0.56      0.00
    2   38    7     -1.38      0.00
    2   36    7     -0.12      0.00
    2   34    7      0.08      0.00
    2   32    7     -1.04      0.00
    2   30    7     -0.43      0.00
    2   28    7      0.96      0.00
    2   26    7      1.81      0.00
    2   24    7      2.19      0.00
    2   22    7      0.00      0.00
    2   20    7     -2.78      0.00
    2   18    7     -0.60      0.00
    2   16    7      2.88      0.00
    2   14    7      1.71      0.00
    2   12    7     -4.68      0.00
    2   10    7    -10.84      0.00
    2    2    7      5.57      0.00
    2    4    7      1.55      0.00
    2    6    7     -3.05      0.00
    2    8    7     -8.48      0.00
    2   42    6      0.58      0.00
    2   40    6      0.01      0.00
    2   38    6     -0.93      0.00
    2   36    6     -0.04      0.00
    2   34    6      0.73      0.00
    2   32    6     -0.65      0.00
    2   30    6     -2.12      0.00
    2   28    6     -1.80      0.00
    2   26    6     -0.19      0.00
    2   24    6      1.27      0.00
    2   22    6      0.18      0.00
    2   20    6     -0.87      0.00
    2   18    6      2.26      0.00
    2   16    6      6.44      0.00
    2   14    6      7.43      0.00
    2   12    6      6.66      0.00
    2   10    6      7.33      0.00
    2    8    6      5.00      0.00
    2    0    6    -42.05      0.00
    2    2    6    -22.11      0.00
    2    4    6      0.71      0.00
    2    6    6      2.67      0.00
    2   42    5      0.20      0.00
    2   40    5      0.28      0.00
    2   38    5     -0.10      0.00
    2   36    5     -0.03      0.00
    2   34    5      0.33      0.00
    2   32    5      0.42      0.00
    2   30    5      0.42      0.00
    2   28    5      0.21      0.00
    2   26    5     -0.06      0.00
    2   24    5      0.23      0.00
    2   22    5     -0.31      0.00
    2   20    5     -4.81      0.00
    2   18    5    -13.76      0.00
    2   16    5    -17.32      0.00
    2   14    5     -6.00      0.00
    2   12    5     15.04      0.00
    2   10    5     24.73      0.00
    2    8    5     13.96      0.00
    2    2    5     20.83      0.00
    2    4    5     27.52      0.00
    2    6    5     14.00      0.00
    2   42    4     -0.10      0.00
    2   40    4     -0.22      0.00
    2   38    4     -0.35      0.00
    2   36    4     -0.32      0.00
    2   34    4      0.89      0.00
    2   32    4      1.76      0.00
    2   30    4     -0.03      0.00
    2   28    4     -1.31      0.00
    2   26    4      1.56      0.00
    2   24    4      4.18      0.00
    2   22    4      3.23      0.00
    2   20    4      0.15      0.00
    2   18    4     -1.92      0.00
    2   16    4     -1.42      0.00
    2   14    4     -4.83      0.00
    2   12    4    -11.07      0.00
    2   10    4    -13.81      0.00
    2    8    4     -3.39      0.00
    2    6    4     14.15      0.00
    2    0    4     11.96      0.00
    2    2    4      7.23      0.00
    2    4    4     11.65      0.00
    2   44    3      0.28      0.00
    2   42    3     -0.92      0.00
    2   40    3     -0.90      0.00
    2   38    3     -0.86      0.00
    2   36    3     -1.69      0.00
    2   34    3     -0.59      0.00
    2   32    3      1.20      0.00
    2   30    3      1.18      0.00
    2   28    3     -0.04      0.00
    2   26    3     -1.59      0.00
    2   24    3     -0.05      0.00
    2   22    3      5.39      0.00
    2   20    3      2.49      0.00
    2   18    3     -6.68      0.00
    2   16    3     -5.28      0.00
    2   14    3      9.95      0.00
    2   12    3     21.08      0.00
    2   10    3     12.22      0.00
    2    8    3     -0.71      0.00
    2    6    3     -4.25      0.00
    2    4    3     17.44      0.00
    2    2    3     40.17      0.00
    2   44    2      0.12      0.00
    2   42    2     -0.54      0.00
    2   40    2      0.43      0.00
    2   38    2      0.42      0.00
    2   36    2     -0.54      0.00
    2   34    2     -1.08      0.00
    2   32    2     -0.54      0.00
    2   30    2      1.27      0.00
    2   28    2      3.52      0.00
    2   26    2      1.68      0.00
    2   24    2     -1.38      0.00
    2   22    2     -0.23      0.00
    2   20    2      2.99      0.00
    2   18    2      0.63      0.00
    2   16    2    -12.73      0.00
    2   14    2    -14.58      0.00
    2   12    2      9.14      0.00
    2   10    2     19.37      0.00
    2    8    2    -35.68      0.00
    2    6    2    -93.30      0.00
    2    4    2    -36.90      0.00
    2    2    2     59.81      0.00
    2    0    2     91.40      0.00
    2   44    1     -1.44      0.00
    2   42    1     -0.09      0.00
    2   40    1      0.13      0.00
    2   38    1     -0.36      0.00
    2   36    1     -0.11      0.00
    2   34    1     -0.05      0.00
    2   32    1      0.07      0.00
    2   30    1      0.65      0.00
    2   28    1      1.02      0.00
    2   26    1      1.21      0.00
    2   24    1      0.92      0.00
    2   22    1     -2.46      0.00
    2   20    1     -1.63      0.00
    2   18    1      0.49      0.00
    2   16    1     -3.16      0.00
    2   14    1     -4.99      0.00
    2   12    1     -2.43      0.00
    2   10    1     -5.94      0.00
    2    8    1    -11.07      0.00
    2    6    1     12.95      0.00
    2    4    1     12.10      0.00
    2    2    1    -28.50      0.00
    2   44    0     -0.68      0.00
    2   42    0     -0.35      0.00
    2   40    0     -0.16      0.00
    2   38    0      0.85      0.00
    2   36    0      0.60      0.00
    2   34    0     -1.19      0.00
    2   32    0     -2.54      0.00
    2   30    0     -1.18      0.00
    2   28    0     -0.74      0.00
    2   26    0     -2.15      0.00
    2   24    0     -3.86      0.00
    2   22    0     -0.84      0.00
    2   20    0      5.53      0.00
    2   18    0      0.89      0.00
    2   16    0     -8.89      0.00
    2   14    0    -10.73      0.00
    2   12    0     -1.50      0.00
    2   10    0     18.79      0.00
    2    8    0     43.41      0.00
    2    6    0     20.55      0.00
    2    4    0    -24.24      0.00
    2    2    0     67.26      0.00
    2    0    0    168.38      0.00
   -2   44    1     -0.61      0.00
   -2   42    1      0.39      0.00
   -2   40    1      0.40      0.00
   -2   38    1     -0.35      0.00
   -2   36    1     -0.48      0.00
   -2   34    1     -0.05      0.00
   -2   32    1     -0.68      0.00
   -2   30    1     -2.50      0.00
   -2   28    1     -3.10      0.00
   -2   26    1     -2.00      0.00
   -2   24    1      1.95      0.00
   -2   22    1      6.23      0.00
   -2   20    1      7.25      0.00
   -2   18    1     -2.74      0.00
   -2   16    1     -9.46      0.00
   -2   14    1      9.92      0.00
   -2   12    1     31.20      0.00
   -2   10    1      9.85      0.00
   -2    8    1    -39.74      0.00
   -2    4    1    -67.79      0.00
   -2    2    1    -90.34      0.00
   -2   44    2      0.31      0.00
   -2   42    2     -0.02      0.00
   -2   40    2     -0.57      0.00
   -2   38    2     -1.13      0.00
   -2   36    2     -0.19      0.00
   -2   34    2      0.53      0.00
   -2   32    2      0.69      0.00
   -2   30    2      0.26      0.00
   -2   28    2      1.07      0.00
   -2   26    2      3.64      0.00
   -2   24    2      5.95      0.00
   -2   22    2      3.36      0.00
   -2   20    2     -0.48      0.00
   -2   18    2     -0.51      0.00
   -2   16    2     -7.67      0.00
   -2   14    2    -19.87      0.00
   -2   12    2    -29.66      0.00
   -2   10    2    -32.73      0.00
   -2    8    2    -30.90      0.00
   -2    6    2     -4.41      0.00
   -2    4    2     53.48      0.00
   -2    2    2     48.63      0.00
   -2    0    2     12.31      0.00
   -2   44    3      1.30      0.00
   -2   42    3      0.46      0.00
   -2   40    3     -0.78      0.00
   -2   38    3     -0.82      0.00
   -2   36    3      0.20      0.00
   -2   34    3      0.72      0.00
   -2   32    3      0.26      0.00
   -2   30    3     -0.06      0.00
   -2   28    3     -0.45      0.00
   -2   26    3     -0.89      0.00
   -2   24    3      1.08      0.00
   -2   22    3      3.25      0.00
   -2   20    3     -0.82      0.00
   -2   18    3     -0.87      0.00
   -2   16    3      2.08      0.00
   -2   14    3      1.76      0.00
   -2   12    3      8.63      0.00
   -2   10    3     10.76      0.00
   -2    8    3     -0.26      0.00
   -2    6    3      0.34      0.00
   -2    2    3     89.22      0.00
   -2    4    3     52.21      0.00
   -2   44    4      0.15      0.00
   -2   42    4     -0.39      0.00
   -2   40    4     -1.30      0.00
   -2   38    4     -0.60      0.00
   -2   36    4     -0.19      0.00
   -2   34    4     -0.95      0.00
   -2   32    4     -1.45      0.00
   -2   30    4     -1.48      0.00
   -2   28    4     -0.42      0.00
   -2   26    4      1.61      0.00
   -2   24    4      2.00      0.00
   -2   22    4      2.93      0.00
   -2   20    4      0.92      0.00
   -2   18    4     -2.91      0.00
   -2   16    4      1.31      0.00
   -2   12    4     -6.75      0.00
   -2   10    4    -16.76      0.00
   -2    8    4    -11.04      0.00
   -2    4    4     36.77      0.00
   -2    2    4    -11.92      0.00
   -2    6    4     27.36      0.00
   -2   42    5      0.49      0.00
   -2   40    5      0.17      0.00
   -2   38    5     -0.27      0.00
   -2   36    5      0.23      0.00
   -2   34    5     -0.05      0.00
   -2   32    5     -1.10      0.00
   -2   30    5      0.04      0.00
   -2   28    5      1.81      0.00
   -2   26    5      2.44      0.00
   -2   24    5     -0.05      0.00
   -2   22    5     -4.47      0.00
   -2   20    5     -2.67      0.00
   -2   18    5      1.63      0.00
   -2   16    5      5.56      0.00
   -2   14    5      4.95      0.00
   -2   12    5     -8.56      0.00
   -2   10    5    -15.75      0.00
   -2    8    5     -3.08      0.00
   -2    6    5     15.48      0.00
   -2    4    5     14.75      0.00
   -2    2    5     -2.21      0.00
   -2   42    6      0.16      0.00
   -2   40    6     -0.34      0.00
   -2   38    6     -0.27      0.00
   -2   36    6      0.58      0.00
   -2   34    6      1.03      0.00
   -2   32    6     -0.44      0.00
   -2   30    6     -0.04      0.00
   -2   28    6      2.17      0.00
   -2   26    6      1.45      0.00
   -2   24    6      1.14      0.00
   -2   22    6      1.13      0.00
   -2   20    6     -0.17      0.00
   -2   18    6     -1.56      0.00
   -2   16    6     -3.59      0.00
   -2   14    6     -1.58      0.00
   -2   12    6     -2.33      0.00
   -2   10    6    -10.39      0.00
   -2    8    6    -15.71      0.00
   -2    6    6    -14.30      0.00
   -2    4    6     -2.47      0.00
   -2    2    6      9.66      0.00
   -2    0    6     12.32      0.00
   -2   42    7     -0.19      0.00
   -2   40    7     -0.38      0.00
   -2   38    7      0.54      0.00
   -2   36    7      0.80      0.00
   -2   34    7     -0.09      0.00
   -2   32    7     -0.45      0.00
   -2   30    7     -0.76      0.00
   -2   28    7      0.71      0.00
   -2   26    7      1.58      0.00
   -2   24    7     -2.15      0.00
   -2   22    7     -5.45      0.00
   -2   20    7     -3.70      0.00
   -2   18    7      1.28      0.00
   -2   16    7      2.68      0.00
   -2   14    7     -0.20      0.00
   -2   12    7     -1.10      0.00
   -2   10    7      4.30      0.00
   -2    8    7     13.68      0.00
   -2    6    7      8.86      0.00
   -2    4    7     -7.28      0.00
   -2    2    7     -9.29      0.00
   -2   42    8     -0.47      0.00
   -2   40    8      0.14      0.00
   -2   38    8      0.41      0.00
   -2   36    8     -0.24      0.00
   -2   34    8     -1.69      0.00
   -2   32    8     -1.51      0.00
   -2   30    8      0.59      0.00
   -2   28    8      1.26      0.00
   -2   26    8      0.03      0.00
   -2   24    8     -1.21      0.00
   -2   22    8      0.98      0.00
   -2   20    8      4.26      0.00
   -2   18    8      3.18      0.00
   -2   16    8      0.86      0.00
   -2   14    8      0.61      0.00
   -2   12    8     -1.11      0.00
   -2   10    8     -6.63      0.00
   -2    8    8     -6.73      0.00
   -2    6    8     -1.74      0.00
   -2    4    8     -2.79      0.00
   -2    2    8      2.09      0.00
   -2    0    8      9.58      0.00
   -2   40    9      0.35      0.00
   -2   38    9      0.25      0.00
   -2   36    9     -0.15      0.00
   -2   34    9      0.50      0.00
   -2   32    9      1.09      0.00
   -2   30    9      0.68      0.00
   -2   28    9     -0.28      0.00
   -2   26    9     -0.61      0.00
   -2   24    9     -0.08      0.00
   -2   22    9      0.47      0.00
   -2   20    9     -0.23      0.00
   -2   18    9     -3.79      0.00
   -2   16    9     -5.88      0.00
   -2   14    9     -4.07      0.00
   -2   12    9     -0.86      0.00
   -2   10    9      2.90      0.00
   -2    8    9      3.57      0.00
   -2    6    9      2.81      0.00
   -2    4    9      0.61      0.00
   -2    2    9     -3.50      0.00
   -2   40   10     -0.19      0.00
   -2   38   10      0.05      0.00
   -2   36   10      0.04      0.00
   -2   34   10     -0.19      0.00
   -2   32   10      0.18      0.00
   -2   30   10     -0.19      0.00
   -2   28   10     -0.94      0.00
   -2   26   10     -0.02      0.00
   -2   24   10      1.21      0.00
   -2   22   10      0.48      0.00
   -2   20   10      0.38      0.00
   -2   18   10      1.30      0.00
   -2   16   10     -0.30      0.00
   -2   14   10     -2.42      0.00
   -2   12   10     -2.59      0.00
   -2   10   10      1.66      0.00
   -2    8   10      5.37      0.00
   -2    6   10     -1.26      0.00
   -2    4   10     -6.53      0.00
   -2    2   10     -1.07      0.00
   -2    0   10      3.30      0.00
   -2   38   11     -0.09      0.00
   -2   36   11     -0.06      0.00
   -2   34   11     -0.44      0.00
   -2   32   11     -0.76      0.00
   -2   30   11     -0.11      0.00
   -2   28   11      0.31      0.00
   -2   26   11      0.04      0.00
   -2   24   11      0.42      0.00
   -2   22   11      0.68      0.00
   -2   20   11     -0.90      0.00
   -2   18   11     -0.92      0.00
   -2   16   11      0.77      0.00
   -2   14   11      0.96      0.00
   -2   12   11      0.77      0.00
   -2   10   11     -1.63      0.00
   -2    8   11     -4.33      0.00
   -2    6   11     -2.02      0.00
   -2    4   11      4.05      0.00
   -2    2   11      6.90      0.00
   -2   36   12     -0.26      0.00
   -2   34   12      0.09      0.00
   -2   32   12      0.21      0.00
   -2   30   12      0.13      0.00
   -2   28   12      0.12      0.00
   -2   26   12     -0.49      0.00
   -2   24   12     -0.68      0.00
   -2   22   12      0.35      0.00
   -2   20   12      0.56      0.00
   -2   18   12     -0.64      0.00
   -2   16   12     -0.38      0.00
   -2   14   12     -0.74      0.00
   -2   12   12     -2.66      0.00
   -2   10   12     -2.26      0.00
   -2    8   12      0.42      0.00
   -2    6   12      3.08      0.00
   -2    4   12      2.51      0.00
   -2    2   12      0.60      0.00
   -2    0   12      0.35      0.00
   -2   36   13     -0.38      0.00
   -2   34   13      0.06      0.00
   -2   32   13      0.54      0.00
   -2   30   13      0.06      0.00
   -2   28   13      0.03      0.00
   -2   26   13     -0.07      0.00
   -2   24   13     -0.64      0.00
   -2   22   13     -0.80      0.00
   -2   20   13     -0.36      0.00
   -2   18   13     -0.19      0.00
   -2   16   13     -0.81      0.00
   -2   14   13     -0.75      0.00
   -2   12   13      0.34      0.00
   -2   10   13      1.14      0.00
   -2    8   13      1.10      0.00
   -2    6   13      2.25      0.00
   -2    4   13      2.79      0.00
   -2    2   13      0.41      0.00
   -2   34   14     -0.28      0.00
   -2   32   14      0.47      0.00
   -2   30   14      0.24      0.00
   -2   28   14     -0.69      0.00
   -2   26   14     -0.43      0.00
   -2   24   14      0.15      0.00
   -2   22   14      0.28      0.00
   -2   20   14     -0.10      0.00
   -2   18   14     -0.01      0.00
   -2   16   14      1.32      0.00
   -2   14   14      1.38      0.00
   -2   12   14     -0.03      0.00
   -2   10   14      0.60      0.00
   -2    8   14      0.68      0.00
   -2    6   14     -2.19      0.00
   -2    4   14     -2.12      0.00
   -2    2   14      0.08      0.00
   -2    0   14      0.46      0.00
   -2   32   15     -0.14      0.00
   -2   30   15      0.41      0.00
   -2   28   15      0.54      0.00
   -2   26   15      0.38      0.00
   -2   24   15      0.52      0.00
   -2   22   15      0.04      0.00
   -2   20   15      0.16      0.00
   -2   18   15      0.48      0.00
   -2   16   15     -0.40      0.00
   -2   14   15      0.08      0.00
   -2   12   15      1.12      0.00
   -2   10   15      0.04      0.00
   -2    8   15     -0.50      0.00
   -2    6   15     -0.40      0.00
   -2    4   15     -0.25      0.00
   -2    2   15      0.86      0.00
   -2   30   16     -0.26      0.00
   -2   28   16      0.09      0.00
   -2   26   16     -0.50      0.00
   -2   24   16     -0.12      0.00
   -2   22   16      0.14      0.00
   -2   20   16     -1.09      0.00
   -2   18   16     -0.34      0.00
   -2   16   16      0.54      0.00
   -2   14   16     -0.78      0.00
   -2   12   16      0.01      0.00
   -2   10   16      0.72      0.00
   -2    8   16     -1.02      0.00
   -2    6   16     -0.82      0.00
   -2    4   16      0.14      0.00
   -2    2   16     -0.07      0.00
   -2    0   16     -0.14      0.00
   -2   26   17     -0.08      0.00
   -2   24   17     -0.86      0.00
   -2   22   17     -0.16      0.00
   -2   20   17      0.43      0.00
   -2   18   17     -0.03      0.00
   -2   16   17      0.58      0.00
   -2   14   17      0.47      0.00
   -2   12   17     -0.56      0.00
   -2   10   17      0.09      0.00
   -2    8   17      0.21      0.00
   -2    6   17     -0.32      0.00
   -2    4   17     -0.04      0.00
   -2    2   17     -0.20      0.00
   -2   24   18      0.56      0.00
   -2   22   18     -0.28      0.00
   -2   20   18     -0.30      0.00
   -2   18   18      0.34      0.00
   -2   16   18     -0.20      0.00
   -2   14   18     -1.06      0.00
   -2   12   18     -1.19      0.00
   -2   10   18     -0.04      0.00
   -2    8   18      0.46      0.00
   -2    6   18     -0.37      0.00
   -2    4   18      0.16      0.00
   -2    2   18      0.32      0.00
   -2    0   18     -0.40      0.00
   -2   20   19      0.25      0.00
   -2   18   19      0.22      0.00
   -2   16   19     -0.47      0.00
   -2   14   19     -0.66      0.00
   -2   12   19      0.01      0.00
   -2   10   19      0.41      0.00
   -2    8   19      0.63      0.00
   -2    6   19      0.45      0.00
   -2    4   19      0.63      0.00
   -2    2   19      1.27      0.00
   -2   16   20     -0.30      0.00
   -2   14   20     -0.40      0.00
   -2   12   20      0.54      0.00
   -2   10   20      0.51      0.00
   -2    8   20     -0.55      0.00
   -2    6   20     -0.46      0.00
   -2    4   20     -0.05      0.00
   -2    2   20     -0.27      0.00
   -2    0   20     -0.38      0.00
   -2    8   21      0.38      0.00
   -2    6   21     -0.05      0.00
   -2    4   21      0.37      0.00
   -2    2   21      0.88      0.00
    3    3   19      0.65      0.00
    3    5   19     -0.01      0.00
    3    7   19     -0.66      0.00
    3    9   19     -0.66      0.00
    3   11   19     -0.29      0.00
    3    3   18     -0.96      0.00
    3    5   18     -1.00      0.00
    3    7   18      0.22      0.00
    3    9   18      0.89      0.00
    3   11   18      0.96      0.00
    3   13   18      0.66      0.00
    3   15   18      0.63      0.00
    3   17   18      0.94      0.00
    3    1   17     -0.02      0.00
    3    3   17     -0.28      0.00
    3    5   17     -0.27      0.00
    3    7   17      0.39      0.00
    3    9   17      0.76      0.00
    3   11   17      0.65      0.00
    3   13   17      0.10      0.00
    3   15   17     -0.68      0.00
    3   17   17     -0.64      0.00
    3   19   17     -0.37      0.00
    3   21   17     -0.70      0.00
    3    1   16      1.08      0.00
    3    3   16     -0.28      0.00
    3    5   16     -0.97      0.00
    3    7   16      0.05      0.00
    3    9   16      0.98      0.00
    3   11   16      0.29      0.00
    3   13   16     -1.09      0.00
    3   15   16     -1.08      0.00
    3   17   16      0.04      0.00
    3   19   16     -0.14      0.00
    3   21   16     -0.62      0.00
    3   23   16      0.20      0.00
    3   25   16      0.33      0.00
    3    3   15     -0.14      0.00
    3    5   15     -0.13      0.00
    3    7   15      0.76      0.00
    3    9   15      1.11      0.00
    3   11   15     -0.15      0.00
    3   13   15     -0.80      0.00
    3   15   15     -0.48      0.00
    3   17   15     -0.04      0.00
    3   19   15      0.31      0.00
    3   21   15      0.39      0.00
    3   23   15      0.40      0.00
    3   25   15     -0.08      0.00
    3   27   15     -0.45      0.00
    3   29   14      0.12      0.00
    3   27   14     -0.72      0.00
    3    1   14      0.72      0.00
    3    3   14      1.95      0.00
    3    5   14      1.49      0.00
    3    7   14     -0.06      0.00
    3    9   14     -0.10      0.00
    3   11   14     -1.02      0.00
    3   13   14     -2.00      0.00
    3   15   14     -0.40      0.00
    3   17   14      0.79      0.00
    3   19   14      0.13      0.00
    3   21   14      0.04      0.00
    3   23   14      1.07      0.00
    3   25   14      0.44      0.00
    3   31   13     -0.31      0.00
    3   29   13     -0.28      0.00
    3   27   13     -0.46      0.00
    3   25   13     -0.07      0.00
    3   23   13     -0.40      0.00
    3    1   13      0.26      0.00
    3    3   13     -0.48      0.00
    3    5   13     -1.06      0.00
    3    7   13     -1.23      0.00
    3    9   13     -1.90      0.00
    3   11   13     -1.26      0.00
    3   13   13      0.05      0.00
    3   15   13      1.11      0.00
    3   17   13      1.00      0.00
    3   19   13      0.20      0.00
    3   21   13     -0.43      0.00
    3   33   12      0.11      0.00
    3   31   12     -0.06      0.00
    3   29   12     -0.69      0.00
    3   27   12     -0.68      0.00
    3   25   12     -0.08      0.00
    3   23   12      1.76      0.00
    3   21   12      1.66      0.00
    3    1   12     -2.79      0.00
    3    3   12     -0.79      0.00
    3    5   12     -0.73      0.00
    3    7   12     -0.22      0.00
    3    9   12      0.14      0.00
    3   11   12     -0.62      0.00
    3   13   12     -0.77      0.00
    3   15   12      0.27      0.00
    3   17   12      0.12      0.00
    3   19   12     -0.38      0.00
    3   35   11     -0.45      0.00
    3   33   11      0.16      0.00
    3   31   11      0.26      0.00
    3   29   11     -0.33      0.00
    3   27   11     -1.51      0.00
    3   25   11     -0.75      0.00
    3   23   11      1.33      0.00
    3   21   11      0.15      0.00
    3   19   11     -0.29      0.00
    3    1   11     -1.60      0.00
    3    3   11     -1.35      0.00
    3    5   11      1.16      0.00
    3    7   11      2.00      0.00
    3    9   11      0.87      0.00
    3   11   11     -0.93      0.00
    3   13   11     -0.77      0.00
    3   15   11      0.42      0.00
    3   17   11      0.91      0.00
    3   37   10     -0.04      0.00
    3   35   10     -0.88      0.00
    3   33   10     -0.82      0.00
    3   31   10      0.58      0.00
    3   29   10      1.01      0.00
    3   27   10     -0.69      0.00
    3   25   10     -0.39      0.00
    3   23   10      1.15      0.00
    3   21   10      0.89      0.00
    3   19   10     -1.56      0.00
    3   17   10     -2.25      0.00
    3   15   10      0.83      0.00
    3    1   10      1.56      0.00
    3    3   10      3.39      0.00
    3    5   10      4.01      0.00
    3    7   10     -0.12      0.00
    3    9   10     -4.83      0.00
    3   11   10     -4.89      0.00
    3   13   10     -0.36      0.00
    3   39    9      0.18      0.00
    3   37    9     -0.12      0.00
    3   35    9     -0.38      0.00
    3   33    9     -0.52      0.00
    3   31    9      0.28      0.00
    3   29    9      0.42      0.00
    3   27    9     -1.23      0.00
    3   25    9     -1.72      0.00
    3   23    9      1.74      0.00
    3   21    9      3.67      0.00
    3   19    9     -0.87      0.00
    3   17    9     -3.70      0.00
    3   15    9     -0.54      0.00
    3    1    9      1.75      0.00
    3    3    9     -0.10      0.00
    3    5    9     -7.15      0.00
    3    7    9     -8.40      0.00
    3    9    9      0.16      0.00
    3   11    9      7.55      0.00
    3   13    9      5.20      0.00
    3   39    8      0.27      0.00
    3   37    8      0.28      0.00
    3   35    8     -0.79      0.00
    3   33    8     -1.25      0.00
    3   31    8      0.08      0.00
    3   29    8      1.50      0.00
    3   27    8      0.84      0.00
    3   25    8     -1.12      0.00
    3   23    8     -0.87      0.00
    3   21    8      0.61      0.00
    3   19    8      0.34      0.00
    3   17    8     -1.89      0.00
    3   15    8     -3.62      0.00
    3   13    8     -1.33      0.00
    3    1    8      7.15      0.00
    3    3    8     -2.45      0.00
    3    5    8     -8.10      0.00
    3    7    8     -1.63      0.00
    3    9    8      5.04      0.00
    3   11    8      3.53      0.00
    3   41    7      0.14      0.00
    3   39    7      1.67      0.00
    3   37    7      1.16      0.00
    3   35    7     -0.51      0.00
    3   33    7      0.38      0.00
    3   31    7      0.80      0.00
    3   29    7     -1.01      0.00
    3   27    7     -1.62      0.00
    3   25    7     -1.01      0.00
    3   23    7     -0.30      0.00
    3   21    7      1.62      0.00
    3   19    7      3.11      0.00
    3   17    7      2.78      0.00
    3   15    7      1.72      0.00
    3   13    7     -0.91      0.00
    3    1    7     -7.92      0.00
    3    3    7    -10.90      0.00
    3    5    7      0.04      0.00
    3    7    7      6.27      0.00
    3    9    7      3.20      0.00
    3   11    7     -1.49      0.00
    3   41    6     -0.59      0.00
    3   39    6      0.95      0.00
    3   37    6      1.00      0.00
    3   35    6     -0.79      0.00
    3   33    6     -1.18      0.00
    3   31    6      0.50      0.00
    3   29    6      1.70      0.00
    3   27    6     -0.05      0.00
    3   25    6     -2.48      0.00
    3   23    6     -0.66      0.00
    3   21    6      3.46      0.00
    3   19    6      1.47      0.00
    3   17    6     -5.59      0.00
    3   15    6     -6.01      0.00
    3   13    6      0.67      0.00
    3   11    6      0.90      0.00
    3    9    6     -3.99      0.00
    3    1    6     16.40      0.00
    3    3    6      4.11      0.00
    3    5    6      0.48      0.00
    3    7    6     -1.86      0.00
    3   41    5      0.02      0.00
    3   39    5      0.50      0.00
    3   37    5      0.35      0.00
    3   35    5     -0.43      0.00
    3   33    5     -1.11      0.00
    3   31    5     -0.53      0.00
    3   29    5      0.59      0.00
    3   27    5      0.60      0.00
    3   25    5     -1.03      0.00
    3   23    5     -2.43      0.00
    3   21    5      0.69      0.00
    3   19    5      7.85      0.00
    3   17    5     11.65      0.00
    3   15    5      6.75      0.00
    3   13    5     -4.98      0.00
    3    9    5    -10.16      0.00
    3    1    5     -1.15      0.00
    3    3    5     -6.93      0.00
    3    5    5     -6.83      0.00
    3    7    5     -2.73      0.00
    3   11    5    -14.45      0.00
    3   43    4     -0.15      0.00
    3   41    4     -0.20      0.00
    3   39    4      0.23      0.00
    3   37    4      1.13      0.00
    3   35    4      0.84      0.00
    3   33    4     -1.12      0.00
    3   31    4     -1.47      0.00
    3   29    4      0.69      0.00
    3   27    4      1.91      0.00
    3   25    4     -0.55      0.00
    3   23    4     -3.88      0.00
    3   21    4     -2.94      0.00
    3   19    4      3.42      0.00
    3   17    4      6.05      0.00
    3   15    4     -1.56      0.00
    3   13    4     -8.57      0.00
    3   11    4     -3.20      0.00
    3    9    4      4.67      0.00
    3    7    4     -2.56      0.00
    3    5    4     -7.37      0.00
    3    1    4      7.41      0.00
    3    3    4      3.04      0.00
    3   43    3      0.48      0.00
    3   41    3      0.94      0.00
    3   39    3      0.32      0.00
    3   37    3      1.38      0.00
    3   35    3      1.98      0.00
    3   33    3      0.54      0.00
    3   31    3     -1.08      0.00
    3   29    3     -1.93      0.00
    3   27    3     -0.33      0.00
    3   25    3      3.92      0.00
    3   23    3      2.30      0.00
    3   21    3     -4.17      0.00
    3   19    3     -0.88      0.00
    3   17    3      7.43      0.00
    3   15    3      4.08      0.00
    3   13    3    -11.42      0.00
    3   11    3    -19.03      0.00
    3    9    3    -10.22      0.00
    3    7    3     -3.68      0.00
    3    5    3    -22.52      0.00
    3    3    3    -57.51      0.00
    3    1    3    -37.00      0.00
    3   43    2      0.23      0.00
    3   41    2      0.04      0.00
    3   39    2     -0.27      0.00
    3   37    2     -0.29      0.00
    3   35    2     -0.47      0.00
    3   33    2      0.17      0.00
    3   31    2      0.42      0.00
    3   29    2     -2.67      0.00
    3   27    2     -5.81      0.00
    3   25    2     -2.10      0.00
    3   23    2      3.20      0.00
    3   21    2      1.51      0.00
    3   19    2     -5.98      0.00
    3   17    2     -0.30      0.00
    3   15    2     21.55      0.00
    3   13    2     20.90      0.00
    3   11    2    -11.27      0.00
    3    9    2    -11.87      0.00
    3    7    2     52.98      0.00
    3    5    2     77.37      0.00
    3    3    2    -10.37      0.00
    3    1    2   -103.20      0.00
    3   43    1     -0.23      0.00
    3   41    1     -0.47      0.00
    3   39    1      0.83      0.00
    3   37    1      0.82      0.00
    3   35    1      0.27      0.00
    3   33    1     -0.50      0.00
    3   31    1     -0.73      0.00
    3   29    1     -0.07      0.00
    3   27    1     -1.16      0.00
    3   25    1     -4.97      0.00
    3   23    1     -2.03      0.00
    3   21    1      5.33      0.00
    3   19    1      0.41      0.00
    3   17    1     -8.42      0.00
    3   15    1     -4.59      0.00
    3   13    1     13.50      0.00
    3   11    1     26.24      0.00
    3    9    1     13.60      0.00
    3    7    1    -14.19      0.00
    3    5    1     -9.02      0.00
    3    3    1     47.91      0.00
    3    1    1     42.46      0.00
    3   43    0      0.01      0.00
    3   41    0      0.14      0.00
    3   39    0     -0.44      0.00
    3   37    0     -0.67      0.00
    3   35    0      0.76      0.00
    3   33    0      1.78      0.00
    3   31    0      0.79      0.00
    3   29    0      0.79      0.00
    3   27    0      3.82      0.00
    3   25    0      4.13      0.00
    3   23    0     -0.20      0.00
    3   21    0     -6.54      0.00
    3   19    0     -3.65      0.00
    3   17    0      3.94      0.00
    3   15    0     -0.06      0.00
    3   13    0     -2.99      0.00
    3   11    0      2.26      0.00
    3    9    0    -13.36      0.00
    3    7    0    -49.19      0.00
    3    5    0    -33.54      0.00
    3    3    0      4.29      0.00
    3    1    0    -17.63      0.00
   -3   43    1      0.30      0.00
   -3   41    1     -0.55      0.00
   -3   39    1      0.53      0.00
   -3   37    1      1.38      0.00
   -3   35    1      0.64      0.00
   -3   33    1     -0.78      0.00
   -3   31    1      1.31      0.00
   -3   29    1      4.58      0.00
   -3   27    1      3.65      0.00
   -3   25    1     -2.87      0.00
   -3   23    1     -8.02      0.00
   -3   21    1     -6.46      0.00
   -3   19    1     -1.33      0.00
   -3   17    1      3.67      0.00
   -3   15    1     -3.75      0.00
   -3   13    1    -12.83      0.00
   -3   11    1      1.60      0.00
   -3    9    1     29.68      0.00
   -3    7    1     34.38      0.00
   -3    5    1     34.38      0.00
   -3    3    1     74.19      0.00
   -3    1    1     52.53      0.00
   -3   43    2     -1.10      0.00
   -3   41    2     -0.70      0.00
   -3   39    2      1.40      0.00
   -3   37    2      0.98      0.00
   -3   35    2     -1.21      0.00
   -3   33    2     -1.33      0.00
   -3   31    2      0.13      0.00
   -3   29    2     -0.04      0.00
   -3   27    2     -4.14      0.00
   -3   25    2     -7.17      0.00
   -3   23    2     -3.04      0.00
   -3   21    2      5.87      0.00
   -3   19    2      5.32      0.00
   -3   17    2      1.59      0.00
   -3   15    2     10.60      0.00
   -3   13    2     21.85      0.00
   -3   11    2     22.36      0.00
   -3    9    2     13.29      0.00
   -3    7    2      2.67      0.00
   -3    5    2    -24.76      0.00
   -3    3    2    -38.51      0.00
   -3    1    2     -1.89      0.00
   -3   43    3     -1.18      0.00
   -3   41    3     -0.02      0.00
   -3   39    3      0.27      0.00
   -3   37    3     -0.51      0.00
   -3   35    3     -0.59      0.00
   -3   33    3      0.72      0.00
   -3   31    3      0.28      0.00
   -3   29    3     -1.00      0.00
   -3   27    3      0.03      0.00
   -3   25    3      2.08      0.00
   -3   23    3      0.32      0.00
   -3   21    3     -1.91      0.00
   -3   19    3     -2.66      0.00
   -3   17    3     -7.58      0.00
   -3   15    3     -8.92      0.00
   -3   13    3    -10.38      0.00
   -3   11    3    -12.42      0.00
   -3    9    3      3.63      0.00
   -3    7    3     25.07      0.00
   -3    5    3      0.44      0.00
   -3    1    3    -51.57      0.00
   -3    3    3    -67.25      0.00
   -3   43    4      0.12      0.00
   -3   41    4      0.81      0.00
   -3   39    4      0.87      0.00
   -3   37    4      0.83      0.00
   -3   35    4      1.15      0.00
   -3   33    4      0.70      0.00
   -3   31    4      0.26      0.00
   -3   29    4      0.53      0.00
   -3   27    4     -0.13      0.00
   -3   25    4     -1.96      0.00
   -3   23    4     -4.36      0.00
   -3   21    4     -4.64      0.00
   -3   19    4      2.51      0.00
   -3   17    4      3.13      0.00
   -3   15    4     -5.83      0.00
   -3   13    4     -1.26      0.00
   -3   11    4     18.23      0.00
   -3    7    4      4.31      0.00
   -3    5    4    -37.55      0.00
   -3    1    4      6.01      0.00
   -3    9    4     30.71      0.00
   -3   43    5     -0.17      0.00
   -3   41    5     -0.02      0.00
   -3   39    5      0.37      0.00
   -3   37    5      0.07      0.00
   -3   35    5     -0.75      0.00
   -3   33    5      0.02      0.00
   -3   31    5      1.20      0.00
   -3   29    5      0.23      0.00
   -3   27    5     -2.13      0.00
   -3   25    5     -3.05      0.00
   -3   23    5      2.53      0.00
   -3   21    5      7.78      0.00
   -3   19    5      2.82      0.00
   -3   17    5     -5.04      0.00
   -3   15    5     -5.56      0.00
   -3   13    5      8.01      0.00
   -3   11    5     18.10      0.00
   -3    9    5     -0.16      0.00
   -3    5    5    -24.22      0.00
   -3    1    5     13.39      0.00
   -3    3    5      7.71      0.00
   -3    7    5    -27.21      0.00
   -3   43    6     -0.86      0.00
   -3   41    6     -0.65      0.00
   -3   39    6     -0.19      0.00
   -3   37    6     -0.36      0.00
   -3   35    6     -1.13      0.00
   -3   33    6     -0.16      0.00
   -3   31    6      1.89      0.00
   -3   29    6      0.29      0.00
   -3   27    6     -1.80      0.00
   -3   25    6     -0.67      0.00
   -3   23    6      1.19      0.00
   -3   21    6      1.60      0.00
   -3   19    6     -2.30      0.00
   -3   17    6     -2.78      0.00
   -3   15    6      3.60      0.00
   -3   13    6      4.28      0.00
   -3   11    6     -1.17      0.00
   -3    9    6     -0.97      0.00
   -3    7    6     12.00      0.00
   -3    5    6     20.90      0.00
   -3    3    6      7.96      0.00
   -3    1    6     -8.32      0.00
   -3   41    7      0.36      0.00
   -3   39    7      0.15      0.00
   -3   37    7     -0.65      0.00
   -3   35    7      0.13      0.00
   -3   33    7      0.95      0.00
   -3   31    7      0.98      0.00
   -3   29    7      0.07      0.00
   -3   27    7     -1.93      0.00
   -3   25    7     -0.19      0.00
   -3   23    7      2.65      0.00
   -3   21    7     -0.20      0.00
   -3   19    7     -4.08      0.00
   -3   17    7     -1.35      0.00
   -3   15    7      3.54      0.00
   -3   13    7     -0.36      0.00
   -3   11    7     -7.84      0.00
   -3    9    7     -8.05      0.00
   -3    7    7      0.84      0.00
   -3    1    7      4.40      0.00
   -3    3    7     14.10      0.00
   -3    5    7     13.53      0.00
   -3   41    8      0.11      0.00
   -3   39    8     -0.27      0.00
   -3   37    8      0.00      0.00
   -3   35    8      0.96      0.00
   -3   33    8      1.62      0.00
   -3   31    8      0.04      0.00
   -3   29    8     -1.22      0.00
   -3   27    8     -0.56      0.00
   -3   25    8      0.12      0.00
   -3   23    8     -0.76      0.00
   -3   21    8     -2.99      0.00
   -3   19    8     -1.46      0.00
   -3   17    8      2.88      0.00
   -3   15    8      2.69      0.00
   -3   13    8      0.67      0.00
   -3   11    8      5.29      0.00
   -3    9    8      9.45      0.00
   -3    7    8      1.73      0.00
   -3    5    8     -3.21      0.00
   -3    3    8     -0.75      0.00
   -3    1    8     -5.24      0.00
   -3   41    9     -0.10      0.00
   -3   39    9     -0.48      0.00
   -3   37    9     -0.35      0.00
   -3   35    9     -0.67      0.00
   -3   33    9     -1.15      0.00
   -3   31    9     -0.90      0.00
   -3   29    9     -0.32      0.00
   -3   27    9      0.58      0.00
   -3   25    9      0.97      0.00
   -3   23    9      0.68      0.00
   -3   21    9      0.64      0.00
   -3   19    9      2.22      0.00
   -3   17    9      3.26      0.00
   -3   15    9      0.92      0.00
   -3   13    9      0.09      0.00
   -3   11    9      0.92      0.00
   -3    9    9     -0.34      0.00
   -3    7    9     -3.36      0.00
   -3    5    9     -6.24      0.00
   -3    3    9     -2.81      0.00
   -3    1    9      0.74      0.00
   -3   39   10     -0.02      0.00
   -3   37   10     -0.01      0.00
   -3   35   10      0.05      0.00
   -3   33   10     -0.35      0.00
   -3   31   10     -0.44      0.00
   -3   29   10      0.37      0.00
   -3   27   10      0.17      0.00
   -3   25   10     -1.19      0.00
   -3   23   10     -1.35      0.00
   -3   21   10     -0.99      0.00
   -3   19   10     -2.50      0.00
   -3   17   10     -2.04      0.00
   -3   15   10      2.46      0.00
   -3   13   10      6.26      0.00
   -3   11   10      3.90      0.00
   -3    9   10     -4.00      0.00
   -3    7   10     -3.65      0.00
   -3    5   10      4.42      0.00
   -3    3   10      3.28      0.00
   -3    1   10     -3.52      0.00
   -3   37   11      0.21      0.00
   -3   35   11      0.32      0.00
   -3   33   11      0.44      0.00
   -3   31   11     -0.32      0.00
   -3   29   11     -0.95      0.00
   -3   27   11     -0.11      0.00
   -3   25   11      0.50      0.00
   -3   23   11     -0.31      0.00
   -3   21   11      0.26      0.00
   -3   19   11      1.65      0.00
   -3   17   11      0.67      0.00
   -3   15   11      0.04      0.00
   -3   13   11     -0.59      0.00
   -3   11   11     -1.50      0.00
   -3    9   11      0.47      0.00
   -3    7   11      1.34      0.00
   -3    5   11     -2.37      0.00
   -3    3   11     -7.32      0.00
   -3    1   11     -4.70      0.00
   -3   37   12      0.10      0.00
   -3   35   12      0.03      0.00
   -3   33   12     -0.45      0.00
   -3   31   12     -0.20      0.00
   -3   29   12      0.32      0.00
   -3   27   12      0.79      0.00
   -3   25   12      0.79      0.00
   -3   23   12      0.05      0.00
   -3   21   12     -0.14      0.00
   -3   19   12      0.80      0.00
   -3   17   12     -0.08      0.00
   -3   15   12     -2.04      0.00
   -3   13   12     -0.77      0.00
   -3   11   12      1.20      0.00
   -3    9   12      1.47      0.00
   -3    7   12      0.35      0.00
   -3    5   12     -0.97      0.00
   -3    3   12     -0.29      0.00
   -3    1   12      0.28      0.00
   -3   35   13      0.33      0.00
   -3   33   13     -0.22      0.00
   -3   31   13      0.02      0.00
   -3   29   13      0.25      0.00
   -3   27   13     -0.26      0.00
   -3   25   13     -0.04      0.00
   -3   23   13      0.78      0.00
   -3   21   13      0.73      0.00
   -3   19   13     -0.35      0.00
   -3   17   13     -0.51      0.00
   -3   15   13      0.45      0.00
   -3   13   13      0.90      0.00
   -3   11   13      0.55      0.00
   -3    9   13      0.11      0.00
   -3    7   13     -0.55      0.00
   -3    5   13     -1.40      0.00
   -3    3   13      0.13      0.00
   -3    1   13      0.97      0.00
   -3   33   14     -0.13      0.00
   -3   31   14     -0.19      0.00
   -3   29   14      0.67      0.00
   -3   27   14      0.65      0.00
   -3   25   14     -0.23      0.00
   -3   23   14     -0.34      0.00
   -3   21   14      0.03      0.00
   -3   19   14      0.11      0.00
   -3   17   14     -0.59      0.00
   -3   15   14     -0.80      0.00
   -3   13   14      0.36      0.00
   -3   11   14      0.21      0.00
   -3    9   14     -1.11      0.00
   -3    7   14      0.59      0.00
   -3    5   14      2.27      0.00
   -3    3   14      0.25      0.00
   -3    1   14     -1.28      0.00
   -3   31   15      0.51      0.00
   -3   29   15     -0.30      0.00
   -3   27   15     -0.82      0.00
   -3   25   15     -0.88      0.00
   -3   23   15     -0.33      0.00
   -3   21   15      0.09      0.00
   -3   19   15     -0.33      0.00
   -3   17   15      0.18      0.00
   -3   15   15      0.63      0.00
   -3   13   15     -0.63      0.00
   -3   11   15     -0.76      0.00
   -3    9   15      0.27      0.00
   -3    7   15      0.61      0.00
   -3    5   15      0.86      0.00
   -3    3   15      0.05      0.00
   -3    1   15     -0.50      0.00
   -3   29   16     -0.17      0.00
   -3   27   16     -0.58      0.00
   -3   25   16     -0.06      0.00
   -3   23   16     -0.18      0.00
   -3   21   16      0.10      0.00
   -3   19   16      0.37      0.00
   -3   17   16     -0.11      0.00
   -3   15   16      1.13      0.00
   -3   13   16      1.64      0.00
   -3   11   16     -0.06      0.00
   -3    9   16      0.18      0.00
   -3    7   16      0.81      0.00
   -3    5   16     -0.37      0.00
   -3    3   16     -0.60      0.00
   -3    1   16      0.09      0.00
   -3   27   17     -0.63      0.00
   -3   25   17      0.35      0.00
   -3   23   17      0.54      0.00
   -3   21   17     -0.29      0.00
   -3   19   17      0.26      0.00
   -3   17   17      0.78      0.00
   -3   15   17     -0.07      0.00
   -3   13   17      0.13      0.00
   -3   11   17      0.14      0.00
   -3    9   17     -0.67      0.00
   -3    7   17     -0.55      0.00
   -3    5   17     -0.43      0.00
   -3    3   17     -0.44      0.00
   -3    1   17     -0.10      0.00
   -3   23   18      0.44      0.00
   -3   21   18      0.98      0.00
   -3   19   18      0.18      0.00
   -3   17   18     -0.11      0.00
   -3   15   18      0.49      0.00
   -3   13   18      0.82      0.00
   -3   11   18      0.31      0.00
   -3    9   18     -0.69      0.00
   -3    7   18     -0.30      0.00
   -3    5   18      0.40      0.00
   -3    3   18      0.28      0.00
   -3    1   18      0.83      0.00
   -3   21   19     -0.33      0.00
   -3   19   19     -0.45      0.00
   -3   17   19     -0.02      0.00
   -3   15   19      0.66      0.00
   -3   13   19      0.51      0.00
   -3   11   19     -0.09      0.00
   -3    9   19     -0.54      0.00
   -3    7   19     -0.51      0.00
   -3    5   19     -0.22      0.00
   -3    3   19     -1.03      0.00
   -3    1   19     -0.91      0.00
   -3   15   20      0.04      0.00
   -3   13   20     -0.75      0.00
   -3   11   20     -1.17      0.00
   -3    9   20     -0.05      0.00
   -3    7   20      0.45      0.00
   -3    5   20      0.06      0.00
   -3    3   20      0.40      0.00
   -3    1   20      0.66      0.00
   -3    9   21      0.07      0.00
   -3    7   21      0.29      0.00
   -3    5   21      0.18      0.00
   -3    3   21     -0.21      0.00
   -3    1   21     -0.14      0.00
    4    6   18      0.29      0.00
    4    8   18     -0.73      0.00
    4   10   18     -0.77      0.00
    4   12   18     -0.08      0.00
    4   14   18      0.05      0.00
    4    4   17     -0.30      0.00
    4    6   17     -0.77      0.00
    4    8   17     -0.54      0.00
    4   10   17     -0.09      0.00
    4   12   17     -0.13      0.00
    4   14   17      0.27      0.00
    4   16   17      0.78      0.00
    4   18   17      0.50      0.00
    4    2   16     -2.61      0.00
    4    4   16     -0.53      0.00
    4    6   16      0.43      0.00
    4    8   16     -0.12      0.00
    4   10   16     -0.28      0.00
    4   12   16      0.94      0.00
    4   14   16      1.44      0.00
    4   16   16      0.30      0.00
    4   18   16     -0.27      0.00
    4   20   16      0.24      0.00
    4   22   16     -0.16      0.00
    4    4   15      1.43      0.00
    4    6   15      0.66      0.00
    4    8   15     -0.29      0.00
    4   10   15      0.31      0.00
    4   12   15      1.19      0.00
    4   14   15      0.72      0.00
    4   16   15     -0.03      0.00
    4   18   15     -0.09      0.00
    4   20   15     -0.24      0.00
    4   22   15     -1.21      0.00
    4   24   15     -1.15      0.00
    4   26   15      0.42      0.00
    4    2   14      0.63      0.00
    4    4   14     -1.54      0.00
    4    6   14     -1.28      0.00
    4    8   14     -0.17      0.00
    4   10   14      0.80      0.00
    4   12   14      1.60      0.00
    4   14   14      0.67      0.00
    4   16   14     -0.60      0.00
    4   18   14     -0.96      0.00
    4   20   14     -1.12      0.00
    4   22   14     -1.33      0.00
    4   24   14     -0.63      0.00
    4   26   14      1.00      0.00
    4   28   14      0.73      0.00
    4   30   13     -0.09      0.00
    4   28   13      0.08      0.00
    4    2   13      0.31      0.00
    4    4   13      0.76      0.00
    4    6   13      0.72      0.00
    4    8   13      1.61      0.00
    4   10   13      1.98      0.00
    4   12   13      0.72      0.00
    4   14   13     -1.29      0.00
    4   16   13     -2.16      0.00
    4   18   13     -1.13      0.00
    4   20   13     -0.04      0.00
    4   22   13      0.77      0.00
    4   24   13      0.85      0.00
    4   26   13      0.48      0.00
    4   32   12      0.46      0.00
    4   30   12      0.57      0.00
    4   28   12     -0.08      0.00
    4   26   12     -0.13      0.00
    4   24   12     -0.05      0.00
    4    2   12      3.53      0.00
    4    4   12      2.04      0.00
    4    6   12      0.64      0.00
    4    8   12     -0.85      0.00
    4   10   12     -0.98      0.00
    4   12   12     -1.17      0.00
    4   14   12     -1.81      0.00
    4   16   12     -1.21      0.00
    4   18   12      1.04      0.00
    4   20   12      0.75      0.00
    4   22   12     -0.72      0.00
    4   34   11      0.30      0.00
    4   32   11     -0.52      0.00
    4   30   11     -0.27      0.00
    4   28   11      0.96      0.00
    4   26   11      1.53      0.00
    4   24   11     -1.12      0.00
    4   22   11     -1.50      0.00
    4    2   11      1.70      0.00
    4    4   11     -1.52      0.00
    4    6   11     -4.98      0.00
    4    8   11     -5.37      0.00
    4   10   11     -2.80      0.00
    4   12   11     -0.46      0.00
    4   14   11      0.74      0.00
    4   16   11      1.74      0.00
    4   18   11      2.68      0.00
    4   20   11      1.89      0.00
    4   36   10      0.79      0.00
    4   34   10      1.22      0.00
    4   32   10      0.11      0.00
    4   30   10     -1.77      0.00
    4   28   10     -0.79      0.00
    4   26   10      1.12      0.00
    4   24   10     -0.19      0.00
    4   22   10     -2.27      0.00
    4   20   10     -1.63      0.00
    4    2   10     -4.92      0.00
    4    4   10     -6.43      0.00
    4    6   10     -3.96      0.00
    4    8   10      2.70      0.00
    4   10   10      6.28      0.00
    4   12   10      3.48      0.00
    4   14   10      1.05      0.00
    4   16   10      3.56      0.00
    4   18   10      2.66      0.00
    4   38    9     -0.20      0.00
    4   36    9      0.62      0.00
    4   34    9      1.31      0.00
    4   32    9      0.56      0.00
    4   30    9     -1.14      0.00
    4   28    9     -0.72      0.00
    4   26    9      1.70      0.00
    4   24    9      1.72      0.00
    4   22    9     -2.96      0.00
    4   20    9     -4.08      0.00
    4   18    9      0.48      0.00
    4    2    9     -4.71      0.00
    4    4    9     -0.16      0.00
    4    6    9      7.02      0.00
    4    8    9      5.11      0.00
    4   10    9     -2.82      0.00
    4   12    9     -4.47      0.00
    4   14    9     -0.87      0.00
    4   16    9      1.81      0.00
    4   38    8     -0.57      0.00
    4   36    8     -0.39      0.00
    4   34    8      0.99      0.00
    4   32    8      1.25      0.00
    4   30    8     -0.28      0.00
    4   28    8     -1.77      0.00
    4   26    8     -0.84      0.00
    4   24    8      0.93      0.00
    4   22    8      0.27      0.00
    4   20    8     -1.28      0.00
    4   18    8     -0.94      0.00
    4    0    8    -15.88      0.00
    4    2    8     -8.01      0.00
    4    4    8      5.09      0.00
    4    6    8      7.28      0.00
    4    8    8      0.43      0.00
    4   10    8     -2.70      0.00
    4   12    8      1.89      0.00
    4   14    8      6.13      0.00
    4   16    8      3.21      0.00
    4   40    7     -1.09      0.00
    4   38    7     -1.99      0.00
    4   36    7     -0.17      0.00
    4   34    7      0.87      0.00
    4   32    7     -0.29      0.00
    4   30    7      0.41      0.00
    4   28    7      1.66      0.00
    4   26    7      0.95      0.00
    4   24    7      0.10      0.00
    4   22    7     -0.74      0.00
    4   20    7     -3.33      0.00
    4   18    7     -6.04      0.00
    4   16    7     -6.56      0.00
    4   14    7     -3.49      0.00
    4   12    7      3.63      0.00
    4    2    7     14.66      0.00
    4    4    7     11.91      0.00
    4    6    7      2.43      0.00
    4    8    7      2.53      0.00
    4   10    7      6.97      0.00
    4   40    6     -0.26      0.00
    4   38    6     -1.30      0.00
    4   36    6     -0.03      0.00
    4   34    6      1.48      0.00
    4   32    6      1.22      0.00
    4   30    6     -0.41      0.00
    4   28    6     -0.41      0.00
    4   26    6      2.62      0.00
    4   24    6      3.51      0.00
    4   22    6     -0.60      0.00
    4   20    6     -3.31      0.00
    4   18    6      1.05      0.00
    4   16    6      4.51      0.00
    4   14    6     -2.35      0.00
    4   10    6     -6.07      0.00
    4    0    6      1.48      0.00
    4    2    6      3.42      0.00
    4    4    6      3.63      0.00
    4    6    6      1.24      0.00
    4    8    6     -0.53      0.00
    4   12    6     -9.54      0.00
    4   40    5     -0.57      0.00
    4   38    5     -0.78      0.00
    4   36    5     -0.17      0.00
    4   34    5      0.94      0.00
    4   32    5      1.43      0.00
    4   30    5      0.04      0.00
    4   28    5     -1.08      0.00
    4   26    5     -0.38      0.00
    4   24    5      1.87      0.00
    4   22    5      2.61      0.00
    4   20    5     -0.80      0.00
    4   18    5     -3.41      0.00
    4   16    5     -1.62      0.00
    4   14    5      1.95      0.00
    4   12    5      3.45      0.00
    4   10    5     -1.76      0.00
    4    8    5     -8.93      0.00
    4    6    5     -6.16      0.00
    4    2    5      0.77      0.00
    4    4    5      0.58      0.00
    4   42    4      0.42      0.00
    4   40    4      0.30      0.00
    4   38    4     -0.31      0.00
    4   36    4     -1.22      0.00
    4   34    4     -0.54      0.00
    4   32    4      0.52      0.00
    4   30    4      0.26      0.00
    4   28    4     -1.40      0.00
    4   26    4     -2.50      0.00
    4   24    4      0.01      0.00
    4   22    4      2.76      0.00
    4   20    4     -0.16      0.00
    4   18    4     -5.72      0.00
    4   16    4     -1.25      0.00
    4   14    4     13.76      0.00
    4   12    4     19.46      0.00
    4    6    4     -8.87      0.00
    4    2    4     -8.10      0.00
    4    0    4     -5.19      0.00
    4    4    4     -9.78      0.00
    4    8    4     -5.81      0.00
    4   10    4      7.18      0.00
    4   42    3     -0.75      0.00
    4   40    3     -0.33      0.00
    4   38    3     -0.36      0.00
    4   36    3     -1.57      0.00
    4   34    3     -1.30      0.00
    4   32    3     -0.30      0.00
    4   30    3      0.84      0.00
    4   28    3      1.45      0.00
    4   26    3     -1.28      0.00
    4   24    3     -4.97      0.00
    4   22    3     -1.43      0.00
    4   20    3      2.47      0.00
    4   18    3     -2.89      0.00
    4   16    3     -6.99      0.00
    4   14    3     -0.09      0.00
    4   12    3     13.08      0.00
    4   10    3     19.25      0.00
    4    8    3     12.71      0.00
    4    6    3      9.36      0.00
    4    4    3     26.58      0.00
    4    2    3     35.73      0.00
    4   42    2     -0.28      0.00
    4   40    2     -0.32      0.00
    4   38    2     -0.42      0.00
    4   36    2      0.83      0.00
    4   34    2      1.42      0.00
    4   32    2      0.34      0.00
    4   30    2      0.34      0.00
    4   28    2      3.20      0.00
    4   26    2      3.28      0.00
    4   24    2     -1.78      0.00
    4   22    2     -3.38      0.00
    4   20    2      3.80      0.00
    4   18    2      9.05      0.00
    4   16    2     -7.95      0.00
    4   14    2    -28.74      0.00
    4   10    2     21.66      0.00
    4    6    2    -38.88      0.00
    4    4    2    -35.29      0.00
    4    2    2     27.42      0.00
    4   12    2    -12.12      0.00
    4   42    1      0.64      0.00
    4   40    1     -0.54      0.00
    4   38    1     -0.90      0.00
    4   36    1     -0.35      0.00
    4   34    1      0.09      0.00
    4   32    1      1.42      0.00
    4   30    1      1.62      0.00
    4   28    1      1.08      0.00
    4   26    1      3.04      0.00
    4   24    1      3.36      0.00
    4   22    1     -4.90      0.00
    4   20    1     -6.78      0.00
    4   18    1      4.79      0.00
    4   16    1      9.20      0.00
    4   14    1     -4.97      0.00
    4   10    1    -24.07      0.00
    4    8    1     15.21      0.00
    4    6    1     41.25      0.00
    4    4    1      4.82      0.00
    4    2    1    -36.57      0.00
    4   42    0      0.30      0.00
    4   40    0     -0.27      0.00
    4   38    0      0.18      0.00
    4   36    0     -0.53      0.00
    4   34    0     -1.31      0.00
    4   32    0     -0.71      0.00
    4   30    0      0.66      0.00
    4   28    0     -0.42      0.00
    4   26    0     -1.51      0.00
    4   24    0      0.88      0.00
    4   22    0      4.70      0.00
    4   20    0      4.04      0.00
    4   18    0     -4.35      0.00
    4   16    0     -2.97      0.00
    4   14    0      5.32      0.00
    4   12    0     -5.28      0.00
    4   10    0    -18.06      0.00
    4    8    0      4.93      0.00
    4    6    0     37.30      0.00
    4    2    0     11.46      0.00
    4    0    0     13.78      0.00
    4    4    0     27.49      0.00
   -4   44    1     -0.52      0.00
   -4   42    1      0.04      0.00
   -4   40    1     -0.40      0.00
   -4   38    1     -1.22      0.00
   -4   36    1     -1.02      0.00
   -4   34    1      0.94      0.00
   -4   32    1      1.59      0.00
   -4   30    1     -1.70      0.00
   -4   28    1     -3.84      0.00
   -4   26    1     -1.15      0.00
   -4   24    1      3.97      0.00
   -4   22    1      3.27      0.00
   -4   20    1     -0.81      0.00
   -4   18    1     -2.36      0.00
   -4   16    1      1.64      0.00
   -4   14    1      8.93      0.00
   -4   12    1     -2.52      0.00
   -4   10    1    -28.07      0.00
   -4    8    1    -26.85      0.00
   -4    6    1      4.22      0.00
   -4    4    1      3.66      0.00
   -4    2    1    -23.40      0.00
   -4   44    2      0.60      0.00
   -4   42    2      1.23      0.00
   -4   40    2     -0.05      0.00
   -4   38    2     -1.17      0.00
   -4   36    2      0.67      0.00
   -4   34    2      1.49      0.00
   -4   32    2      0.21      0.00
   -4   30    2     -1.42      0.00
   -4   28    2      0.34      0.00
   -4   26    2      4.54      0.00
   -4   24    2      4.24      0.00
   -4   22    2     -3.45      0.00
   -4   20    2     -8.75      0.00
   -4   18    2     -2.07      0.00
   -4   16    2      0.19      0.00
   -4   14    2     -7.95      0.00
   -4   12    2    -11.18      0.00
   -4   10    2     -5.29      0.00
   -4    6    2     16.26      0.00
   -4    4    2     22.54      0.00
   -4    2    2    -11.49      0.00
   -4    0    2    -43.73      0.00
   -4   42    3      0.25      0.00
   -4   40    3      0.22      0.00
   -4   38    3      0.59      0.00
   -4   36    3      0.53      0.00
   -4   34    3     -1.12      0.00
   -4   32    3     -1.62      0.00
   -4   30    3      0.51      0.00
   -4   28    3      1.04      0.00
   -4   26    3     -0.65      0.00
   -4   24    3     -1.46      0.00
   -4   22    3      1.47      0.00
   -4   20    3      3.86      0.00
   -4   18    3      6.16      0.00
   -4   16    3      9.31      0.00
   -4   14    3      8.85      0.00
   -4   12    3     10.53      0.00
   -4   10    3      6.82      0.00
   -4    8    3    -14.68      0.00
   -4    6    3    -28.55      0.00
   -4    2    3     40.72      0.00
   -4   42    4      0.17      0.00
   -4   40    4     -0.22      0.00
   -4   38    4     -0.91      0.00
   -4   36    4     -1.48      0.00
   -4   34    4     -0.38      0.00
   -4   32    4      0.71      0.00
   -4   30    4      0.27      0.00
   -4   28    4     -0.41      0.00
   -4   26    4      0.62      0.00
   -4   24    4      3.00      0.00
   -4   22    4      4.65      0.00
   -4   20    4      0.21      0.00
   -4   18    4     -6.63      0.00
   -4   16    4      0.26      0.00
   -4   14    4      8.45      0.00
   -4   12    4     -3.47      0.00
   -4   10    4    -22.27      0.00
   -4    8    4    -19.45      0.00
   -4    6    4      9.12      0.00
   -4    2    4     20.78      0.00
   -4    0    4     14.60      0.00
   -4    4    4     27.17      0.00
   -4   42    5     -0.21      0.00
   -4   40    5     -0.59      0.00
   -4   38    5     -0.23      0.00
   -4   36    5      0.75      0.00
   -4   34    5      0.93      0.00
   -4   32    5     -0.75      0.00
   -4   30    5     -1.84      0.00
   -4   28    5     -0.31      0.00
   -4   26    5      2.30      0.00
   -4   24    5      1.29      0.00
   -4   22    5     -5.62      0.00
   -4   20    5     -6.62      0.00
   -4   18    5      2.90      0.00
   -4   16    5      8.62      0.00
   -4   14    5      0.10      0.00
   -4   12    5    -13.60      0.00
   -4   10    5     -7.60      0.00
   -4    6    5     24.71      0.00
   -4    4    5     -4.82      0.00
   -4    2    5    -27.75      0.00
   -4   42    6      0.98      0.00
   -4   40    6      0.82      0.00
   -4   38    6      0.38      0.00
   -4   36    6      0.27      0.00
   -4   34    6      0.25      0.00
   -4   32    6     -1.22      0.00
   -4   30    6     -1.86      0.00
   -4   28    6      0.65      0.00
   -4   26    6      1.91      0.00
   -4   24    6      0.33      0.00
   -4   22    6     -1.34      0.00
   -4   20    6      1.51      0.00
   -4   18    6      7.11      0.00
   -4   16    6      1.97      0.00
   -4   14    6     -8.79      0.00
   -4   12    6     -6.36      0.00
   -4   10    6      2.75      0.00
   -4    4    6    -13.36      0.00
   -4    2    6      3.15      0.00
   -4    0    6     10.76      0.00
   -4    6    6    -16.62      0.00
   -4    8    6     -2.55      0.00
   -4   42    7      0.21      0.00
   -4   40    7     -0.12      0.00
   -4   38    7     -0.02      0.00
   -4   36    7      0.05      0.00
   -4   34    7     -0.28      0.00
   -4   32    7     -0.27      0.00
   -4   30    7     -0.44      0.00
   -4   28    7      0.71      0.00
   -4   26    7      1.43      0.00
   -4   24    7     -1.02      0.00
   -4   22    7     -0.19      0.00
   -4   20    7      4.99      0.00
   -4   18    7      4.46      0.00
   -4   16    7     -3.55      0.00
   -4   14    7     -5.70      0.00
   -4   12    7      3.07      0.00
   -4   10    7      8.69      0.00
   -4    8    7      2.98      0.00
   -4    6    7     -8.03      0.00
   -4    2    7     -4.42      0.00
   -4    4    7    -11.36      0.00
   -4   40    8      0.18      0.00
   -4   38    8     -0.32      0.00
   -4   36    8     -0.38      0.00
   -4   34    8     -0.44      0.00
   -4   32    8     -0.26      0.00
   -4   30    8      0.47      0.00
   -4   28    8      0.23      0.00
   -4   26    8      0.12      0.00
   -4   24    8      0.50      0.00
   -4   22    8      1.35      0.00
   -4   20    8      1.72      0.00
   -4   18    8     -1.74      0.00
   -4   16    8     -5.40      0.00
   -4   14    8     -4.02      0.00
   -4   10    8     -4.15      0.00
   -4    6    8      4.74      0.00
   -4    2    8     -0.72      0.00
   -4    0    8      2.92      0.00
   -4    8    8     -0.70      0.00
   -4   40    9      0.16      0.00
   -4   38    9      0.38      0.00
   -4   36    9      0.86      0.00
   -4   34    9      1.18      0.00
   -4   32    9      0.51      0.00
   -4   30    9      0.18      0.00
   -4   28    9      0.31      0.00
   -4   26    9     -0.43      0.00
   -4   24    9     -1.39      0.00
   -4   22    9     -1.44      0.00
   -4   20    9     -1.09      0.00
   -4   18    9     -1.76      0.00
   -4   16    9     -0.48      0.00
   -4   14    9      2.07      0.00
   -4   12    9      0.99      0.00
   -4   10    9     -1.01      0.00
   -4    8    9     -0.74      0.00
   -4    6    9      3.27      0.00
   -4    4    9      6.83      0.00
   -4    2    9      4.01      0.00
   -4   38   10     -0.10      0.00
   -4   36   10     -0.16      0.00
   -4   34   10     -0.17      0.00
   -4   32   10      0.26      0.00
   -4   30   10      0.41      0.00
   -4   28   10      0.45      0.00
   -4   26   10      0.62      0.00
   -4   24   10      0.39      0.00
   -4   22   10      0.31      0.00
   -4   20   10      1.93      0.00
   -4   18   10      3.08      0.00
   -4   16   10      0.19      0.00
   -4   14   10     -3.74      0.00
   -4   12   10     -4.88      0.00
   -4   10   10     -1.17      0.00
   -4    8   10      2.26      0.00
   -4    6   10     -1.79      0.00
   -4    2   10      1.60      0.00
   -4    0   10      4.94      0.00
   -4    4   10     -3.77      0.00
   -4   38   11     -0.25      0.00
   -4   36   11     -0.19      0.00
   -4   34   11     -0.22      0.00
   -4   32   11      0.28      0.00
   -4   30   11      1.12      0.00
   -4   28   11      0.70      0.00
   -4   26   11     -0.80      0.00
   -4   24   11     -0.83      0.00
   -4   22   11      0.38      0.00
   -4   20   11     -0.28      0.00
   -4   18   11     -0.80      0.00
   -4   16   11     -0.04      0.00
   -4   14   11      0.21      0.00
   -4   12   11      1.27      0.00
   -4   10   11      0.94      0.00
   -4    8   11     -0.49      0.00
   -4    6   11      0.81      0.00
   -4    4   11      4.04      0.00
   -4    2   11      5.04      0.00
   -4   36   12     -0.20      0.00
   -4   34   12      0.07      0.00
   -4   32   12      0.05      0.00
   -4   30   12     -0.33      0.00
   -4   28   12     -0.78      0.00
   -4   26   12     -0.91      0.00
   -4   24   12      0.01      0.00
   -4   22   12      0.81      0.00
   -4   20   12     -0.35      0.00
   -4   18   12     -1.15      0.00
   -4   16   12      1.46      0.00
   -4   14   12      2.75      0.00
   -4   10   12     -1.32      0.00
   -4    8   12     -1.44      0.00
   -4    6   12     -0.37      0.00
   -4    4   12      0.32      0.00
   -4    2   12      0.31      0.00
   -4    0   12      0.52      0.00
   -4   36   13     -0.24      0.00
   -4   34   13     -0.07      0.00
   -4   32   13     -0.09      0.00
   -4   30   13     -0.22      0.00
   -4   28   13      0.27      0.00
   -4   26   13      0.64      0.00
   -4   24   13      0.26      0.00
   -4   22   13     -0.49      0.00
   -4   20   13     -0.43      0.00
   -4   18   13      0.65      0.00
   -4   16   13      0.82      0.00
   -4   14   13     -0.04      0.00
   -4   12   13     -0.64      0.00
   -4   10   13     -0.51      0.00
   -4    8   13     -0.16      0.00
   -4    6   13      0.35      0.00
   -4    4   13     -0.11      0.00
   -4    2   13     -1.42      0.00
   -4   34   14     -0.04      0.00
   -4   32   14      0.26      0.00
   -4   30   14     -0.12      0.00
   -4   28   14     -0.57      0.00
   -4   26   14      0.20      0.00
   -4   24   14      0.69      0.00
   -4   22   14      0.14      0.00
   -4   20   14     -0.36      0.00
   -4   18   14      0.02      0.00
   -4   16   14      0.36      0.00
   -4   14   14     -0.82      0.00
   -4   12   14     -1.66      0.00
   -4   10   14     -0.27      0.00
   -4    8   14      0.47      0.00
   -4    6   14     -0.56      0.00
   -4    4   14     -0.06      0.00
   -4    2   14      1.06      0.00
   -4    0   14      1.09      0.00
   -4   32   15     -0.43      0.00
   -4   30   15     -0.23      0.00
   -4   28   15      0.42      0.00
   -4   26   15      0.49      0.00
   -4   24   15      0.09      0.00
   -4   22   15     -0.40      0.00
   -4   20   15     -0.25      0.00
   -4   18   15     -0.32      0.00
   -4   16   15     -0.93      0.00
   -4   14   15     -0.21      0.00
   -4   12   15      0.80      0.00
   -4   10   15      0.45      0.00
   -4    8   15      0.18      0.00
   -4    6   15      0.08      0.00
   -4    4   15     -0.09      0.00
   -4    2   15      0.24      0.00
   -4   30   16     -0.48      0.00
   -4   28   16      0.18      0.00
   -4   26   16      0.31      0.00
   -4   24   16      0.00      0.00
   -4   22   16      0.22      0.00
   -4   20   16      0.20      0.00
   -4   18   16      0.25      0.00
   -4   16   16     -0.39      0.00
   -4   14   16     -1.57      0.00
   -4   12   16     -0.71      0.00
   -4   10   16      0.49      0.00
   -4    8   16      0.02      0.00
   -4    6   16      0.06      0.00
   -4    4   16      0.50      0.00
   -4    2   16     -0.32      0.00
   -4    0   16     -1.06      0.00
   -4   26   17      0.72      0.00
   -4   24   17      0.20      0.00
   -4   22   17      0.22      0.00
   -4   20   17      0.21      0.00
   -4   18   17     -0.75      0.00
   -4   16   17     -0.72      0.00
   -4   14   17     -0.25      0.00
   -4   12   17     -0.50      0.00
   -4   10   17     -0.04      0.00
   -4    8   17      0.71      0.00
   -4    6   17      0.75      0.00
   -4    4   17      0.74      0.00
   -4    2   17      0.66      0.00
   -4   24   18     -0.22      0.00
   -4   22   18     -1.02      0.00
   -4   20   18     -0.82      0.00
   -4   18   18      0.04      0.00
   -4   16   18     -0.04      0.00
   -4   14   18     -0.38      0.00
   -4   12   18     -0.09      0.00
   -4   10   18      0.64      0.00
   -4    8   18      0.63      0.00
   -4    6   18     -0.23      0.00
   -4    4   18     -0.65      0.00
   -4    2   18     -1.00      0.00
   -4    0   18     -1.36      0.00
   -4   20   19      0.27      0.00
   -4   18   19      0.04      0.00
   -4   16   19     -0.29      0.00
   -4   14   19     -0.47      0.00
   -4   12   19     -0.26      0.00
   -4   10   19      0.18      0.00
   -4    8   19      0.34      0.00
   -4    6   19     -0.27      0.00
   -4    4   19     -0.04      0.00
   -4    2   19      0.91      0.00
   -4   16   20     -0.05      0.00
   -4   14   20      0.48      0.00
   -4   12   20      1.27      0.00
   -4   10   20      0.42      0.00
   -4    8   20     -0.43      0.00
   -4    6   20      0.21      0.00
   -4    4   20      0.12      0.00
   -4    2   20     -0.56      0.00
   -4    0   20     -0.64      0.00
   -4   10   21     -0.19      0.00
   -4    8   21     -0.29      0.00
   -4    6   21     -0.25      0.00
   -4    4   21     -0.24      0.00
   -4    2   21     -0.56      0.00
    5    7   18      0.19      0.00
    5    9   18      0.22      0.00
    5    5   17      0.50      0.00
    5    7   17      0.15      0.00
    5    9   17     -0.78      0.00
    5   11   17     -0.80      0.00
    5   13   17     -0.21      0.00
    5   15   17     -0.48      0.00
    5    5   16     -0.06      0.00
    5    7   16     -0.27      0.00
    5    9   16      0.18      0.00
    5   11   16     -0.34      0.00
    5   13   16     -0.63      0.00
    5   15   16      0.37      0.00
    5   17   16      0.86      0.00
    5   19   16      0.28      0.00
    5    5   15     -1.19      0.00
    5    7   15     -0.57      0.00
    5    9   15     -0.31      0.00
    5   11   15     -0.41      0.00
    5   13   15     -0.07      0.00
    5   15   15      0.44      0.00
    5   17   15     -0.21      0.00
    5   19   15     -1.02      0.00
    5   21   15      0.03      0.00
    5   23   15      1.21      0.00
    5    3   14     -0.74      0.00
    5    5   14      0.71      0.00
    5    7   14      0.54      0.00
    5    9   14      0.14      0.00
    5   11   14      0.12      0.00
    5   13   14      0.27      0.00
    5   15   14     -0.22      0.00
    5   17   14     -0.41      0.00
    5   19   14      0.62      0.00
    5   21   14      1.12      0.00
    5   23   14      0.70      0.00
    5   25   14     -0.18      0.00
    5   27   14     -0.67      0.00
    5    3   13      0.20      0.00
    5    5   13      1.44      0.00
    5    7   13      1.90      0.00
    5    9   13      0.60      0.00
    5   11   13     -0.78      0.00
    5   13   13     -0.47      0.00
    5   15   13      1.19      0.00
    5   17   13      1.29      0.00
    5   19   13      0.41      0.00
    5   21   13     -0.17      0.00
    5   23   13     -0.72      0.00
    5   25   13     -0.46      0.00
    5   27   13      0.29      0.00
    5   29   13      0.71      0.00
    5   31   12     -0.56      0.00
    5   29   12      0.36      0.00
    5    1   12     -0.69      0.00
    5    3   12      0.42      0.00
    5    5   12      0.62      0.00
    5    7   12      0.00      0.00
    5    9   12     -1.28      0.00
    5   11   12     -1.14      0.00
    5   13   12      0.66      0.00
    5   15   12      1.61      0.00
    5   17   12     -0.15      0.00
    5   19   12     -1.70      0.00
    5   21   12     -0.22      0.00
    5   23   12      0.26      0.00
    5   25   12      0.14      0.00
    5   27   12      0.91      0.00
    5   33   11     -0.36      0.00
    5   31   11      0.40      0.00
    5   29   11      0.49      0.00
    5   27   11     -0.71      0.00
    5   25   11     -0.47      0.00
    5    1   11     -0.75      0.00
    5    3   11     -0.55      0.00
    5    5   11      0.92      0.00
    5    7   11      2.04      0.00
    5    9   11      2.11      0.00
    5   11   11      1.43      0.00
    5   13   11      0.43      0.00
    5   15   11     -1.45      0.00
    5   17   11     -2.49      0.00
    5   19   11     -2.34      0.00
    5   21   11     -0.04      0.00
    5   23   11      1.49      0.00
    5   35   10     -1.06      0.00
    5   33   10     -0.77      0.00
    5   31   10      0.35      0.00
    5   29   10      1.31      0.00
    5   27   10     -0.15      0.00
    5   25   10     -0.86      0.00
    5   23   10      0.67      0.00
    5    1   10      3.74      0.00
    5    3   10      3.80      0.00
    5    5   10      3.72      0.00
    5    7   10      0.91      0.00
    5    9   10     -2.78      0.00
    5   11   10     -3.09      0.00
    5   13   10     -1.13      0.00
    5   15   10     -2.67      0.00
    5   17   10     -3.35      0.00
    5   19   10      0.94      0.00
    5   21   10      2.56      0.00
    5   35    9     -1.15      0.00
    5   33    9     -1.52      0.00
    5   31    9     -0.07      0.00
    5   29    9      1.17      0.00
    5   27    9      0.10      0.00
    5   25    9     -2.18      0.00
    5   23    9     -0.73      0.00
    5   19    9      3.15      0.00
    5    1    9      3.01      0.00
    5    3    9      4.62      0.00
    5    5    9     -0.56      0.00
    5    7    9     -4.41      0.00
    5    9    9     -1.34      0.00
    5   11    9      1.45      0.00
    5   13    9      0.59      0.00
    5   15    9     -0.11      0.00
    5   17    9      0.01      0.00
    5   21    9      3.98      0.00
    5   37    8      0.93      0.00
    5   35    8      0.30      0.00
    5   33    8     -0.65      0.00
    5   31    8     -0.15      0.00
    5   29    8      0.83      0.00
    5   27    8      1.07      0.00
    5   25    8     -0.23      0.00
    5   23    8     -0.43      0.00
    5   21    8      1.11      0.00
    5   19    8      2.49      0.00
    5   17    8      0.91      0.00
    5   15    8     -4.52      0.00
    5    1    8     10.59      0.00
    5    3    8      1.36      0.00
    5    5    8     -5.52      0.00
    5    7    8     -4.24      0.00
    5    9    8      0.74      0.00
    5   11    8      0.73      0.00
    5   13    8     -4.74      0.00
    5   39    7      1.51      0.00
    5   37    7      1.44      0.00
    5   35    7     -0.68      0.00
    5   33    7     -0.87      0.00
    5   31    7     -0.14      0.00
    5   29    7     -0.53      0.00
    5   27    7     -0.43      0.00
    5   25    7     -0.21      0.00
    5   23    7     -0.51      0.00
    5   21    7      1.12      0.00
    5   19    7      5.13      0.00
    5   15    7      4.24      0.00
    5    1    7     -6.26      0.00
    5    3    7    -11.95      0.00
    5    5    7     -6.36      0.00
    5    7    7     -1.92      0.00
    5    9    7     -5.22      0.00
    5   11    7     -5.04      0.00
    5   13    7      0.43      0.00
    5   17    7      6.40      0.00
    5   39    6      0.70      0.00
    5   37    6      0.46      0.00
    5   35    6     -0.78      0.00
    5   33    6     -1.30      0.00
    5   31    6     -0.75      0.00
    5   29    6      0.47      0.00
    5   27    6     -0.54      0.00
    5   25    6     -2.90      0.00
    5   23    6     -2.23      0.00
    5   21    6      1.08      0.00
    5   19    6      1.84      0.00
    5   17    6     -1.55      0.00
    5   15    6     -1.41      0.00
    5   13    6      3.62      0.00
    5    9    6      3.03      0.00
    5    1    6     -4.25      0.00
    5    3    6     -3.74      0.00
    5    5    6     -2.71      0.00
    5    7    6     -0.05      0.00
    5   11    6      5.28      0.00
    5   41    5      0.01      0.00
    5   39    5      0.57      0.00
    5   37    5      0.45      0.00
    5   35    5     -0.01      0.00
    5   33    5     -1.18      0.00
    5   31    5     -1.07      0.00
    5   29    5      0.44      0.00
    5   27    5      1.12      0.00
    5   25    5      0.60      0.00
    5   23    5     -1.58      0.00
    5   21    5     -2.28      0.00
    5   19    5     -0.76      0.00
    5   17    5     -0.26      0.00
    5   15    5     -0.34      0.00
    5   13    5     -0.40      0.00
    5   11    5      3.12      0.00
    5    9    5      9.82      0.00
    5    7    5      9.40      0.00
    5    3    5     -7.40      0.00
    5    1    5     -4.62      0.00
    5    5    5      0.19      0.00
    5   41    4     -0.23      0.00
    5   39    4     -0.32      0.00
    5   37    4      0.08      0.00
    5   35    4      0.47      0.00
    5   33    4      0.17      0.00
    5   31    4      0.04      0.00
    5   29    4     -0.05      0.00
    5   27    4      1.68      0.00
    5   25    4      2.78      0.00
    5   23    4      0.18      0.00
    5   21    4     -1.79      0.00
    5   19    4      0.11      0.00
    5   17    4      1.79      0.00
    5   15    4     -4.89      0.00
    5   13    4    -14.79      0.00
    5   11    4    -13.79      0.00
    5    9    4     -1.60      0.00
    5    7    4     13.31      0.00
    5    5    4     18.93      0.00
    5    3    4      8.14      0.00
    5    1    4     -6.11      0.00
    5   41    3      0.54      0.00
    5   39    3     -0.10      0.00
    5   37    3      0.47      0.00
    5   35    3      0.83      0.00
    5   33    3      0.47      0.00
    5   31    3      0.15      0.00
    5   29    3     -0.54      0.00
    5   27    3     -0.70      0.00
    5   25    3      1.55      0.00
    5   23    3      3.50      0.00
    5   21    3      0.87      0.00
    5   19    3      0.03      0.00
    5   17    3      2.05      0.00
    5   15    3      0.83      0.00
    5   13    3     -2.57      0.00
    5   11    3     -9.58      0.00
    5    9    3    -14.64      0.00
    5    7    3     -9.09      0.00
    5    5    3     -3.48      0.00
    5    1    3     -3.70      0.00
    5    3    3     -5.35      0.00
    5   41    2      0.14      0.00
    5   39    2      0.81      0.00
    5   37    2      0.40      0.00
    5   35    2     -1.19      0.00
    5   33    2     -1.18      0.00
    5   31    2     -0.19      0.00
    5   29    2     -0.08      0.00
    5   27    2     -1.05      0.00
    5   25    2      0.69      0.00
    5   23    2      2.89      0.00
    5   21    2     -0.30      0.00
    5   19    2     -6.96      0.00
    5   17    2     -3.71      0.00
    5   15    2     15.07      0.00
    5   13    2     19.40      0.00
    5   11    2     -5.45      0.00
    5    9    2    -21.91      0.00
    5    7    2     -4.51      0.00
    5    5    2     19.79      0.00
    5    3    2     15.73      0.00
    5    1    2     -5.20      0.00
    5   43    1     -0.08      0.00
    5   41    1      0.42      0.00
    5   39    1      0.58      0.00
    5   37    1     -0.45      0.00
    5   35    1     -0.20      0.00
    5   33    1     -0.64      0.00
    5   31    1     -2.07      0.00
    5   29    1     -2.10      0.00
    5   27    1     -1.59      0.00
    5   25    1     -1.40      0.00
    5   23    1      2.59      0.00
    5   21    1      7.95      0.00
    5   19    1      2.72      0.00
    5   17    1     -3.97      0.00
    5   15    1      0.62      0.00
    5   13    1     12.34      0.00
    5   11    1     19.32      0.00
    5    9    1     -1.30      0.00
    5    7    1    -38.24      0.00
    5    5    1    -40.07      0.00
    5    3    1     -5.15      0.00
    5   43    0     -0.70      0.00
    5   41    0      0.24      0.00
    5   39    0      0.40      0.00
    5   37    0      0.30      0.00
    5   35    0      0.61      0.00
    5   33    0      0.37      0.00
    5   31    0     -0.36      0.00
    5   29    0     -1.64      0.00
    5   27    0     -2.06      0.00
    5   25    0     -2.92      0.00
    5   23    0     -2.93      0.00
    5   21    0     -1.28      0.00
    5   19    0      4.09      0.00
    5   17    0      7.65      0.00
    5   15    0     -0.83      0.00
    5   13    0     -0.85      0.00
    5   11    0     16.14      0.00
    5    7    0     -7.98      0.00
    5    5    0    -26.12      0.00
    5    3    0    -26.34      0.00
    5    1    0    -26.80      0.00
    5    9    0     16.89      0.00
   -5   43    1      0.33      0.00
   -5   41    1      0.45      0.00
   -5   39    1      0.52      0.00
   -5   37    1      0.23      0.00
   -5   35    1     -0.32      0.00
   -5   33    1     -2.04      0.00
   -5   31    1     -1.39      0.00
   -5   29    1      0.97      0.00
   -5   27    1      2.03      0.00
   -5   25    1      1.34      0.00
   -5   23    1      0.95      0.00
   -5   21    1      3.42      0.00
   -5   19    1      3.14      0.00
   -5   17    1     -0.36      0.00
   -5   15    1     -6.67      0.00
   -5   13    1     -6.97      0.00
   -5   11    1     12.68      0.00
   -5    9    1     26.33      0.00
   -5    7    1      4.99      0.00
   -5    5    1    -20.64      0.00
   -5    3    1    -12.69      0.00
   -5    1    1      0.51      0.00
   -5   43    2     -0.63      0.00
   -5   41    2     -0.94      0.00
   -5   39    2      0.28      0.00
   -5   37    2      0.21      0.00
   -5   35    2     -0.56      0.00
   -5   33    2     -0.36      0.00
   -5   31    2      0.62      0.00
   -5   29    2      2.07      0.00
   -5   27    2      0.17      0.00
   -5   25    2     -2.40      0.00
   -5   23    2     -0.61      0.00
   -5   21    2      5.02      0.00
   -5   19    2      4.38      0.00
   -5   17    2     -3.54      0.00
   -5   15    2     -3.27      0.00
   -5   13    2      1.66      0.00
   -5   11    2      3.34      0.00
   -5    9    2      4.78      0.00
   -5    7    2     -1.58      0.00
   -5    5    2    -15.05      0.00
   -5    3    2     -3.53      0.00
   -5    1    2     32.88      0.00
   -5   43    3      0.44      0.00
   -5   41    3      0.37      0.00
   -5   39    3      0.05      0.00
   -5   37    3     -0.23      0.00
   -5   35    3      0.27      0.00
   -5   33    3      1.76      0.00
   -5   31    3      0.93      0.00
   -5   29    3     -0.29      0.00
   -5   27    3     -0.46      0.00
   -5   25    3     -0.62      0.00
   -5   23    3     -0.98      0.00
   -5   21    3     -3.44      0.00
   -5   19    3     -4.89      0.00
   -5   17    3     -5.53      0.00
   -5   15    3     -4.08      0.00
   -5   13    3     -0.35      0.00
   -5   11    3     -3.21      0.00
   -5    9    3     -4.18      0.00
   -5    7    3      9.09      0.00
   -5    5    3     13.13      0.00
   -5    3    3     -8.23      0.00
   -5    1    3    -11.76      0.00
   -5   43    4     -0.18      0.00
   -5   41    4     -0.42      0.00
   -5   39    4     -0.06      0.00
   -5   37    4      0.88      0.00
   -5   35    4      0.51      0.00
   -5   33    4     -0.67      0.00
   -5   31    4     -0.53      0.00
   -5   29    4     -0.11      0.00
   -5   27    4      0.11      0.00
   -5   25    4     -0.67      0.00
   -5   23    4     -1.79      0.00
   -5   21    4     -0.95      0.00
   -5   19    4      4.36      0.00
   -5   17    4      6.72      0.00
   -5   15    4     -1.58      0.00
   -5   13    4     -4.27      0.00
   -5   11    4      5.15      0.00
   -5    9    4      7.67      0.00
   -5    7    4     -0.91      0.00
   -5    5    4     -6.73      0.00
   -5    3    4    -11.08      0.00
   -5    1    4    -20.30      0.00
   -5   41    5      0.22      0.00
   -5   39    5      0.12      0.00
   -5   37    5     -0.40      0.00
   -5   35    5     -0.54      0.00
   -5   33    5      0.11      0.00
   -5   31    5      1.45      0.00
   -5   29    5      1.49      0.00
   -5   27    5      0.20      0.00
   -5   25    5     -0.99      0.00
   -5   23    5      0.87      0.00
   -5   21    5      4.62      0.00
   -5   19    5      0.50      0.00
   -5   17    5     -7.52      0.00
   -5   15    5     -6.15      0.00
   -5   13    5      2.28      0.00
   -5   11    5      5.31      0.00
   -5    9    5     -3.79      0.00
   -5    7    5    -12.39      0.00
   -5    3    5     29.26      0.00
   -5    1    5     20.07      0.00
   -5   41    6     -0.67      0.00
   -5   39    6     -0.27      0.00
   -5   37    6      0.38      0.00
   -5   35    6      0.47      0.00
   -5   33    6      0.20      0.00
   -5   31    6      0.67      0.00
   -5   29    6      0.04      0.00
   -5   27    6     -1.93      0.00
   -5   25    6     -2.18      0.00
   -5   23    6     -1.20      0.00
   -5   21    6     -1.13      0.00
   -5   19    6     -4.21      0.00
   -5   17    6     -5.18      0.00
   -5   15    6      4.01      0.00
   -5   11    6      5.51      0.00
   -5    9    6      3.28      0.00
   -5    7    6     10.23      0.00
   -5    5    6      7.84      0.00
   -5    3    6     -3.65      0.00
   -5    1    6     -8.18      0.00
   -5   13    6     11.07      0.00
   -5   41    7     -0.37      0.00
   -5   39    7     -0.06      0.00
   -5   37    7      0.13      0.00
   -5   35    7     -0.29      0.00
   -5   33    7     -0.73      0.00
   -5   31    7     -0.25      0.00
   -5   29    7      0.39      0.00
   -5   27    7     -0.52      0.00
   -5   25    7      0.02      0.00
   -5   23    7      1.77      0.00
   -5   21    7     -0.73      0.00
   -5   19    7     -4.18      0.00
   -5   17    7     -1.52      0.00
   -5   15    7      3.84      0.00
   -5   13    7      2.97      0.00
   -5   11    7     -3.14      0.00
   -5    9    7     -5.33      0.00
   -5    7    7     -0.87      0.00
   -5    5    7      2.92      0.00
   -5    3    7      0.12      0.00
   -5    1    7     -1.48      0.00
   -5   41    8     -0.69      0.00
   -5   39    8     -0.05      0.00
   -5   37    8      0.79      0.00
   -5   35    8      0.28      0.00
   -5   33    8     -0.14      0.00
   -5   31    8     -0.24      0.00
   -5   29    8      0.04      0.00
   -5   27    8      0.33      0.00
   -5   25    8     -0.13      0.00
   -5   23    8      0.03      0.00
   -5   21    8     -0.73      0.00
   -5   19    8     -2.07      0.00
   -5   17    8      0.48      0.00
   -5   15    8      4.49      0.00
   -5   11    8      0.95      0.00
   -5    9    8     -2.77      0.00
   -5    7    8     -5.42      0.00
   -5    5    8     -0.74      0.00
   -5    3    8      4.19      0.00
   -5    1    8     -0.10      0.00
   -5   13    8      4.16      0.00
   -5   39    9      0.24      0.00
   -5   37    9      0.05      0.00
   -5   35    9     -0.74      0.00
   -5   33    9     -0.78      0.00
   -5   31    9     -0.16      0.00
   -5   29    9     -0.33      0.00
   -5   27    9     -0.35      0.00
   -5   25    9      0.59      0.00
   -5   23    9      1.34      0.00
   -5   21    9      0.45      0.00
   -5   19    9     -0.13      0.00
   -5   17    9      0.93      0.00
   -5   15    9     -0.11      0.00
   -5   13    9     -1.89      0.00
   -5   11    9     -1.02      0.00
   -5    9    9      1.21      0.00
   -5    5    9     -2.14      0.00
   -5    3    9     -5.93      0.00
   -5    1    9     -3.07      0.00
   -5   39   10      0.62      0.00
   -5   37   10      0.39      0.00
   -5   35   10     -0.06      0.00
   -5   33   10     -0.12      0.00
   -5   31   10     -0.04      0.00
   -5   29   10     -0.16      0.00
   -5   27   10     -0.54      0.00
   -5   25   10     -0.06      0.00
   -5   23   10      0.63      0.00
   -5   21   10     -0.17      0.00
   -5   19   10     -1.75      0.00
   -5   17   10     -0.91      0.00
   -5   15   10      1.13      0.00
   -5   13   10      1.40      0.00
   -5   11   10      1.30      0.00
   -5    9   10      0.65      0.00
   -5    7   10      1.57      0.00
   -5    3   10      0.61      0.00
   -5    1   10     -3.83      0.00
   -5   37   11     -0.39      0.00
   -5   35   11     -0.66      0.00
   -5   33   11     -0.08      0.00
   -5   31   11      0.35      0.00
   -5   29   11     -0.14      0.00
   -5   27   11     -0.40      0.00
   -5   25   11      0.53      0.00
   -5   23   11      0.32      0.00
   -5   21   11     -0.89      0.00
   -5   19   11     -0.53      0.00
   -5   17   11     -0.25      0.00
   -5   15   11     -0.37      0.00
   -5   13   11     -0.74      0.00
   -5   11   11     -0.75      0.00
   -5    9   11      0.99      0.00
   -5    7   11      1.04      0.00
   -5    5   11     -0.78      0.00
   -5    3   11     -1.82      0.00
   -5    1   11     -1.05      0.00
   -5   37   12      0.04      0.00
   -5   35   12      0.35      0.00
   -5   33   12      0.84      0.00
   -5   31   12      0.73      0.00
   -5   29   12     -0.08      0.00
   -5   27   12     -0.12      0.00
   -5   25   12      0.03      0.00
   -5   23   12     -0.74      0.00
   -5   21   12     -0.83      0.00
   -5   19   12      1.17      0.00
   -5   17   12      1.41      0.00
   -5   15   12     -1.23      0.00
   -5   13   12     -0.95      0.00
   -5    9   12      1.53      0.00
   -5    7   12      0.14      0.00
   -5    5   12     -1.21      0.00
   -5    3   12     -1.51      0.00
   -5    1   12     -1.74      0.00
   -5   11   12      1.35      0.00
   -5   35   13      0.16      0.00
   -5   33   13      0.21      0.00
   -5   31   13     -0.29      0.00
   -5   29   13     -0.90      0.00
   -5   27   13     -0.55      0.00
   -5   25   13      0.03      0.00
   -5   23   13     -0.02      0.00
   -5   21   13      0.51      0.00
   -5   19   13      0.45      0.00
   -5   17   13     -0.73      0.00
   -5   15   13     -1.14      0.00
   -5   13   13     -0.78      0.00
   -5   11   13     -0.63      0.00
   -5    9   13     -0.78      0.00
   -5    7   13     -0.80      0.00
   -5    5   13     -0.71      0.00
   -5    3   13      0.19      0.00
   -5    1   13      0.53      0.00
   -5   33   14     -0.33      0.00
   -5   31   14     -0.63      0.00
   -5   29   14      0.08      0.00
   -5   27   14      0.32      0.00
   -5   25   14     -0.29      0.00
   -5   23   14     -0.50      0.00
   -5   21   14     -0.01      0.00
   -5   19   14      0.33      0.00
   -5   17   14     -0.20      0.00
   -5   15   14      0.18      0.00
   -5   13   14      1.61      0.00
   -5   11   14      1.44      0.00
   -5    9   14      0.01      0.00
   -5    7   14     -0.52      0.00
   -5    5   14     -0.65      0.00
   -5    3   14     -0.68      0.00
   -5    1   14      0.15      0.00
   -5   31   15      0.15      0.00
   -5   29   15     -0.04      0.00
   -5   27   15      0.18      0.00
   -5   25   15      0.45      0.00
   -5   23   15      0.39      0.00
   -5   21   15      0.33      0.00
   -5   19   15      0.50      0.00
   -5   17   15      1.02      0.00
   -5   15   15      0.68      0.00
   -5   13   15     -0.30      0.00
   -5   11   15     -0.34      0.00
   -5    9   15     -0.21      0.00
   -5    7   15     -0.70      0.00
   -5    5   15     -0.69      0.00
   -5    3   15     -0.03      0.00
   -5    1   15      0.22      0.00
   -5   29   16      0.52      0.00
   -5   27   16      0.26      0.00
   -5   25   16      0.25      0.00
   -5   23   16      0.09      0.00
   -5   21   16     -0.21      0.00
   -5   19   16     -0.26      0.00
   -5   17   16     -0.23      0.00
   -5   15   16      0.34      0.00
   -5   13   16      0.44      0.00
   -5   11   16     -0.55      0.00
   -5    9   16     -0.83      0.00
   -5    7   16     -0.04      0.00
   -5    5   16      0.17      0.00
   -5    3   16      0.28      0.00
   -5    1   16      1.24      0.00
   -5   27   17     -0.54      0.00
   -5   25   17     -1.08      0.00
   -5   23   17     -0.65      0.00
   -5   21   17     -0.36      0.00
   -5   19   17     -0.03      0.00
   -5   17   17      0.42      0.00
   -5   15   17      0.22      0.00
   -5   13   17      0.41      0.00
   -5   11   17      0.91      0.00
   -5    9   17      0.36      0.00
   -5    7   17     -0.37      0.00
   -5    5   17     -0.28      0.00
   -5    3   17     -0.49      0.00
   -5    1   17     -0.42      0.00
   -5   23   18      0.06      0.00
   -5   21   18      0.75      0.00
   -5   19   18      0.36      0.00
   -5   17   18     -0.26      0.00
   -5   15   18      0.10      0.00
   -5   13   18      0.29      0.00
   -5   11   18     -0.29      0.00
   -5    9   18     -0.44      0.00
   -5    7   18      0.04      0.00
   -5    5   18      0.19      0.00
   -5    3   18      0.35      0.00
   -5    1   18      0.77      0.00
   -5   21   19     -0.02      0.00
   -5   19   19      0.13      0.00
   -5   17   19     -0.02      0.00
   -5   15   19     -0.05      0.00
   -5   13   19      0.20      0.00
   -5   11   19      0.03      0.00
   -5    9   19     -0.46      0.00
   -5    7   19      0.04      0.00
   -5    5   19      0.83      0.00
   -5    3   19      0.20      0.00
   -5    1   19     -0.26      0.00
   -5   17   20      0.24      0.00
   -5   15   20      0.45      0.00
   -5   13   20     -0.55      0.00
   -5   11   20     -0.53      0.00
   -5    9   20      0.46      0.00
   -5    7   20     -0.05      0.00
   -5    5   20     -0.54      0.00
   -5    3   20      0.20      0.00
   -5    1   20      0.35      0.00
   -5    9   21     -0.02      0.00
   -5    7   21      0.12      0.00
   -5    5   21     -0.08      0.00
   -5    3   21      0.33      0.00
   -5    1   21      0.46      0.00
    6    8   17      0.70      0.00
    6   10   17      1.20      0.00
    6    6   16     -0.16      0.00
    6    8   16     -0.60      0.00
    6   10   16     -0.44      0.00
    6   12   16     -0.25      0.00
    6   14   16     -1.22      0.00
    6   16   16     -1.36      0.00
    6    6   15     -0.16      0.00
    6    8   15      0.09      0.00
    6   10   15     -0.45      0.00
    6   12   15     -0.88      0.00
    6   14   15     -0.88      0.00
    6   16   15     -0.13      0.00
    6   18   15      1.38      0.00
    6   20   15      1.33      0.00
    6    6   14      0.24      0.00
    6    8   14      0.46      0.00
    6   10   14     -0.22      0.00
    6   12   14     -1.31      0.00
    6   14   14     -0.33      0.00
    6   16   14      1.56      0.00
    6   18   14      1.05      0.00
    6   20   14     -0.06      0.00
    6   22   14      0.08      0.00
    6   24   14     -0.09      0.00
    6    4   13     -2.01      0.00
    6    8   13     -3.47      0.00
    6   10   13     -1.10      0.00
    6   12   13      1.28      0.00
    6   14   13      0.78      0.00
    6   16   13     -0.38      0.00
    6   18   13     -0.05      0.00
    6   20   13     -0.06      0.00
    6   22   13     -0.16      0.00
    6   24   13     -0.13      0.00
    6   26   13     -0.68      0.00
    6    4   12     -3.80      0.00
    6    6   12     -1.63      0.00
    6    8   12      2.33      0.00
    6   10   12      4.45      0.00
    6   12   12      2.87      0.00
    6   14   12      0.38      0.00
    6   16   12     -0.28      0.00
    6   18   12      0.97      0.00
    6   20   12      0.30      0.00
    6   22   12     -1.19      0.00
    6   24   12     -0.56      0.00
    6   26   12     -0.47      0.00
    6   28   12     -0.77      0.00
    6   30   12     -0.08      0.00
    6   32   11      0.43      0.00
    6   30   11     -0.78      0.00
    6   28   11     -0.96      0.00
    6    2   11      0.00      0.00
    6    4   11      1.70      0.00
    6    6   11      3.74      0.00
    6    8   11      3.68      0.00
    6   10   11      1.78      0.00
    6   12   11     -0.36      0.00
    6   14   11      0.05      0.00
    6   16   11      0.85      0.00
    6   18   11      0.06      0.00
    6   20   11     -0.33      0.00
    6   22   11     -0.54      0.00
    6   24   11      0.37      0.00
    6   26   11      0.49      0.00
    6   32   10      0.78      0.00
    6   30   10     -0.03      0.00
    6   28   10     -0.55      0.00
    6   26   10      0.68      0.00
    6   24   10      1.25      0.00
    6    2   10     -0.22      0.00
    6    4   10      0.87      0.00
    6    6   10      0.64      0.00
    6    8   10     -0.21      0.00
    6   10   10     -0.47      0.00
    6   12   10     -0.81      0.00
    6   14   10     -0.14      0.00
    6   16   10      1.36      0.00
    6   18   10     -0.91      0.00
    6   20   10     -2.48      0.00
    6   22   10     -0.17      0.00
    6   34    9      0.85      0.00
    6   32    9      1.13      0.00
    6   30    9      0.06      0.00
    6   28    9     -0.73      0.00
    6   26    9      0.19      0.00
    6   24    9      2.04      0.00
    6   22    9      0.11      0.00
    6    2    9     -2.09      0.00
    6    4    9     -2.33      0.00
    6    6    9     -0.55      0.00
    6    8    9     -0.39      0.00
    6   10    9     -0.90      0.00
    6   12    9      0.34      0.00
    6   14    9     -0.33      0.00
    6   16    9     -1.06      0.00
    6   18    9     -1.37      0.00
    6   20    9     -2.49      0.00
    6   36    8     -0.73      0.00
    6   34    8     -0.18      0.00
    6   32    8     -0.56      0.00
    6   30    8     -0.84      0.00
    6   28    8     -0.39      0.00
    6   26    8      0.26      0.00
    6   24    8      0.48      0.00
    6   22    8     -0.56      0.00
    6   20    8     -1.21      0.00
    6    0    8     -3.33      0.00
    6    2    8     -1.61      0.00
    6    4    8      0.97      0.00
    6    6    8      2.12      0.00
    6    8    8      0.65      0.00
    6   10    8     -2.03      0.00
    6   12    8      0.59      0.00
    6   14    8      3.75      0.00
    6   16    8      0.64      0.00
    6   18    8     -1.63      0.00
    6   38    7     -1.33      0.00
    6   36    7     -0.57      0.00
    6   34    7      0.81      0.00
    6   32    7      0.56      0.00
    6   30    7     -0.05      0.00
    6   28    7     -0.82      0.00
    6   26    7     -0.79      0.00
    6   24    7      0.56      0.00
    6   22    7      1.02      0.00
    6   20    7     -1.72      0.00
    6   18    7     -3.72      0.00
    6   16    7     -0.71      0.00
    6   14    7      0.97      0.00
    6   12    7      0.71      0.00
    6    2    7      4.05      0.00
    6    4    7      3.01      0.00
    6    6    7     -2.01      0.00
    6    8    7     -1.39      0.00
    6   10    7      1.45      0.00
    6   38    6     -0.30      0.00
    6   36    6      0.26      0.00
    6   34    6      0.69      0.00
    6   32    6      0.87      0.00
    6   30    6      0.07      0.00
    6   28    6     -1.04      0.00
    6   26    6     -0.18      0.00
    6   24    6      1.04      0.00
    6   22    6      0.37      0.00
    6   20    6     -2.05      0.00
    6   16    6      2.46      0.00
    6   14    6      4.91      0.00
    6   12    6      5.25      0.00
    6    8    6     -0.17      0.00
    6    4    6     -1.09      0.00
    6    2    6     -3.20      0.00
    6    0    6     -3.19      0.00
    6    6    6      0.16      0.00
    6   10    6      2.93      0.00
    6   18    6     -1.71      0.00
    6   38    5     -0.02      0.00
    6   36    5     -0.16      0.00
    6   34    5      0.20      0.00
    6   32    5      1.14      0.00
    6   30    5      0.53      0.00
    6   28    5     -0.47      0.00
    6   26    5     -1.61      0.00
    6   24    5     -1.22      0.00
    6   22    5      1.66      0.00
    6   20    5      1.76      0.00
    6   18    5     -1.31      0.00
    6   16    5     -4.21      0.00
    6   14    5     -2.75      0.00
    6   12    5      1.47      0.00
    6   10    5     -0.49      0.00
    6    8    5     -3.77      0.00
    6    6    5      0.27      0.00
    6    4    5      9.45      0.00
    6    2    5     12.70      0.00
    6   40    4     -0.13      0.00
    6   38    4      0.17      0.00
    6   36    4      0.20      0.00
    6   34    4      0.36      0.00
    6   32    4      0.05      0.00
    6   30    4      0.33      0.00
    6   28    4      0.63      0.00
    6   26    4     -1.63      0.00
    6   24    4     -2.14      0.00
    6   22    4      0.65      0.00
    6   20    4      3.55      0.00
    6   18    4      2.85      0.00
    6   16    4     -1.04      0.00
    6   14    4     -0.45      0.00
    6   12    4      4.26      0.00
    6    8    4     -0.23      0.00
    6    4    4    -13.09      0.00
    6    2    4      5.24      0.00
    6    0    4     14.92      0.00
    6    6    4    -14.88      0.00
    6   10    4      7.00      0.00
    6   40    3      0.04      0.00
    6   38    3      0.25      0.00
    6   36    3     -0.29      0.00
    6   34    3     -0.09      0.00
    6   32    3      0.03      0.00
    6   30    3      0.10      0.00
    6   28    3      0.41      0.00
    6   26    3      1.22      0.00
    6   24    3     -0.24      0.00
    6   22    3     -2.45      0.00
    6   20    3     -0.74      0.00
    6   18    3      1.95      0.00
    6   16    3      4.39      0.00
    6   14    3      1.80      0.00
    6   12    3     -3.91      0.00
    6   10    3      0.92      0.00
    6    8    3      8.20      0.00
    6    6    3      5.87      0.00
    6    4    3     -2.34      0.00
    6    2    3     -7.27      0.00
    6   40    2      0.14      0.00
    6   38    2     -0.60      0.00
    6   36    2     -0.03      0.00
    6   34    2      0.39      0.00
    6   32    2      0.19      0.00
    6   30    2     -0.49      0.00
    6   28    2     -0.80      0.00
    6   26    2     -0.17      0.00
    6   24    2     -1.03      0.00
    6   22    2     -1.11      0.00
    6   20    2      1.03      0.00
    6   18    2      3.16      0.00
    6   16    2     -1.48      0.00
    6   14    2     -9.69      0.00
    6   12    2     -3.61      0.00
    6    8    2      6.52      0.00
    6    4    2     -8.42      0.00
    6    2    2     -9.91      0.00
    6    0    2     -7.31      0.00
    6    6    2     -0.68      0.00
    6   10    2      7.61      0.00
    6   42    1     -0.55      0.00
    6   40    1     -0.69      0.00
    6   38    1      0.69      0.00
    6   36    1      1.30      0.00
    6   34    1      0.21      0.00
    6   32    1      0.55      0.00
    6   30    1      1.34      0.00
    6   28    1      1.36      0.00
    6   26    1      0.04      0.00
    6   24    1     -1.53      0.00
    6   22    1     -3.65      0.00
    6   20    1     -3.93      0.00
    6   18    1     -1.67      0.00
    6   16    1     -4.20      0.00
    6   14    1     -5.54      0.00
    6   12    1     -4.10      0.00
    6   10    1     -2.03      0.00
    6    8    1     13.70      0.00
    6    6    1     27.02      0.00
    6    4    1     16.38      0.00
    6    2    1      2.02      0.00
    6   42    0      0.42      0.00
    6   40    0     -0.25      0.00
    6   38    0     -0.12      0.00
    6   36    0     -0.09      0.00
    6   34    0      0.58      0.00
    6   32    0      0.27      0.00
    6   30    0      0.32      0.00
    6   28    0      1.82      0.00
    6   26    0      2.83      0.00
    6   24    0      2.05      0.00
    6   22    0     -1.62      0.00
    6   20    0     -4.32      0.00
    6   18    0     -6.33      0.00
    6   16    0     -3.30      0.00
    6   14    0      3.11      0.00
    6   12    0     -3.95      0.00
    6   10    0    -10.07      0.00
    6    8    0      2.10      0.00
    6    6    0     13.78      0.00
    6    4    0     15.75      0.00
    6    2    0     15.22      0.00
    6    0    0     14.85      0.00
   -6   42    1     -0.52      0.00
   -6   40    1     -0.44      0.00
   -6   38    1      0.60      0.00
   -6   36    1      0.60      0.00
   -6   34    1      0.72      0.00
   -6   32    1      1.29      0.00
   -6   30    1      0.30      0.00
   -6   28    1     -0.23      0.00
   -6   26    1     -1.76      0.00
   -6   24    1     -2.89      0.00
   -6   22    1     -2.75      0.00
   -6   20    1     -2.19      0.00
   -6   18    1     -0.01      0.00
   -6   16    1      1.74      0.00
   -6   14    1      6.54      0.00
   -6   12    1      3.95      0.00
   -6   10    1    -13.34      0.00
   -6    8    1    -17.55      0.00
   -6    6    1     -3.53      0.00
   -6    4    1      2.16      0.00
   -6    2    1     -1.21      0.00
   -6   42    2      0.67      0.00
   -6   40    2      0.57      0.00
   -6   38    2     -0.23      0.00
   -6   36    2     -0.40      0.00
   -6   34    2     -0.64      0.00
   -6   32    2      0.29      0.00
   -6   30    2     -0.49      0.00
   -6   28    2     -1.79      0.00
   -6   26    2      0.17      0.00
   -6   24    2      1.70      0.00
   -6   22    2      0.18      0.00
   -6   20    2     -3.56      0.00
   -6   18    2     -0.99      0.00
   -6   16    2      5.56      0.00
   -6   14    2      4.95      0.00
   -6   12    2      1.49      0.00
   -6   10    2     -6.32      0.00
   -6    8    2    -12.33      0.00
   -6    6    2      1.45      0.00
   -6    4    2     13.76      0.00
   -6    2    2     -2.45      0.00
   -6   42    3     -0.84      0.00
   -6   40    3     -0.83      0.00
   -6   38    3     -0.70      0.00
   -6   36    3      0.03      0.00
   -6   34    3     -0.34      0.00
   -6   32    3     -1.04      0.00
   -6   30    3     -0.44      0.00
   -6   28    3     -0.36      0.00
   -6   26    3      1.37      0.00
   -6   24    3      1.84      0.00
   -6   22    3      0.80      0.00
   -6   20    3      2.75      0.00
   -6   18    3      4.32      0.00
   -6   16    3      3.92      0.00
   -6   14    3     -2.49      0.00
   -6   12    3     -7.67      0.00
   -6   10    3      2.84      0.00
   -6    8    3     10.27      0.00
   -6    6    3     -0.22      0.00
   -6    4    3     -6.27      0.00
   -6    2    3     -0.98      0.00
   -6   42    4      0.17      0.00
   -6   40    4      0.41      0.00
   -6   38    4      0.17      0.00
   -6   36    4     -0.14      0.00
   -6   34    4      0.49      0.00
   -6   32    4      0.15      0.00
   -6   30    4      0.06      0.00
   -6   28    4      0.41      0.00
   -6   26    4     -0.32      0.00
   -6   24    4     -0.61      0.00
   -6   22    4     -0.81      0.00
   -6   20    4     -1.00      0.00
   -6   18    4     -3.59      0.00
   -6   16    4     -5.24      0.00
   -6   14    4     -1.82      0.00
   -6   12    4     -1.58      0.00
   -6   10    4      0.09      0.00
   -6    8    4      6.24      0.00
   -6    6    4      1.02      0.00
   -6    4    4     -3.95      0.00
   -6    0    4     27.63      0.00
   -6    2    4     13.14      0.00
   -6   42    5      0.31      0.00
   -6   40    5      0.23      0.00
   -6   38    5      0.43      0.00
   -6   36    5      0.30      0.00
   -6   34    5     -0.21      0.00
   -6   32    5     -0.71      0.00
   -6   30    5     -0.93      0.00
   -6   28    5     -0.43      0.00
   -6   26    5     -0.53      0.00
   -6   24    5     -0.27      0.00
   -6   22    5     -0.77      0.00
   -6   20    5     -0.79      0.00
   -6   18    5      3.78      0.00
   -6   16    5      4.85      0.00
   -6   14    5      1.06      0.00
   -6   12    5      0.51      0.00
   -6   10    5      1.11      0.00
   -6    8    5      2.64      0.00
   -6    6    5     -0.42      0.00
   -6    4    5    -16.25      0.00
   -6    2    5    -22.64      0.00
   -6   40    6      0.06      0.00
   -6   38    6     -0.43      0.00
   -6   36    6     -0.92      0.00
   -6   34    6     -0.60      0.00
   -6   32    6      0.25      0.00
   -6   30    6      0.74      0.00
   -6   28    6      1.64      0.00
   -6   26    6      1.99      0.00
   -6   24    6      1.39      0.00
   -6   22    6      1.84      0.00
   -6   20    6      1.91      0.00
   -6   18    6      1.62      0.00
   -6   16    6     -0.92      0.00
   -6   14    6     -6.80      0.00
   -6   12    6     -6.56      0.00
   -6   10    6     -3.65      0.00
   -6    8    6     -7.14      0.00
   -6    6    6     -4.24      0.00
   -6    4    6      5.67      0.00
   -6    0    6     -0.80      0.00
   -6   40    7      0.51      0.00
   -6   38    7     -0.19      0.00
   -6   36    7     -0.14      0.00
   -6   34    7      0.87      0.00
   -6   32    7      0.97      0.00
   -6   30    7     -0.16      0.00
   -6   28    7     -0.69      0.00
   -6   26    7     -0.30      0.00
   -6   24    7     -1.43      0.00
   -6   22    7     -2.04      0.00
   -6   20    7      0.50      0.00
   -6   18    7      2.53      0.00
   -6   16    7      1.63      0.00
   -6   14    7     -0.24      0.00
   -6   12    7      0.17      0.00
   -6   10    7      2.63      0.00
   -6    8    7      2.16      0.00
   -6    6    7      0.27      0.00
   -6    4    7      2.54      0.00
   -6    2    7      4.34      0.00
   -6   40    8      0.81      0.00
   -6   38    8     -0.37      0.00
   -6   36    8     -0.91      0.00
   -6   34    8     -0.18      0.00
   -6   32    8      0.29      0.00
   -6   30    8      0.34      0.00
   -6   28    8     -0.20      0.00
   -6   26    8     -0.25      0.00
   -6   24    8     -0.19      0.00
   -6   22    8     -0.64      0.00
   -6   20    8      1.70      0.00
   -6   18    8      4.05      0.00
   -6   16    8      0.53      0.00
   -6   14    8     -3.97      0.00
   -6   12    8     -2.33      0.00
   -6    8    8      4.86      0.00
   -6    6    8      0.35      0.00
   -6    4    8     -4.67      0.00
   -6   10    8      2.85      0.00
   -6   38    9     -0.72      0.00
   -6   36    9     -0.40      0.00
   -6   34    9      0.38      0.00
   -6   32    9      0.54      0.00
   -6   30    9      0.16      0.00
   -6   28    9     -0.07      0.00
   -6   26    9     -0.22      0.00
   -6   24    9     -0.32      0.00
   -6   22    9      0.01      0.00
   -6   20    9      0.90      0.00
   -6   18    9     -0.01      0.00
   -6   16    9     -1.39      0.00
   -6   14    9      0.34      0.00
   -6   12    9      1.71      0.00
   -6   10    9      0.05      0.00
   -6    8    9     -2.91      0.00
   -6    6    9     -3.14      0.00
   -6    4    9      2.02      0.00
   -6    2    9      5.04      0.00
   -6   38   10     -0.99      0.00
   -6   36   10     -0.04      0.00
   -6   34   10      0.51      0.00
   -6   32   10      0.16      0.00
   -6   30   10     -0.57      0.00
   -6   28   10     -0.28      0.00
   -6   26   10      0.51      0.00
   -6   24   10      0.24      0.00
   -6   22   10     -0.36      0.00
   -6   20   10     -0.16      0.00
   -6   18   10      0.18      0.00
   -6   16   10     -0.37      0.00
   -6   14   10      0.04      0.00
   -6   12   10      0.20      0.00
   -6   10   10     -1.08      0.00
   -6    8   10     -0.81      0.00
   -6    6   10     -0.76      0.00
   -6    4   10     -1.03      0.00
   -6    2   10      0.98      0.00
   -6    0   10      2.51      0.00
   -6   36   11      1.29      0.00
   -6   34   11      1.21      0.00
   -6   32   11     -0.66      0.00
   -6   30   11     -1.68      0.00
   -6   28   11      0.04      0.00
   -6   26   11      1.28      0.00
   -6   24   11     -0.18      0.00
   -6   22   11     -0.12      0.00
   -6   20   11      1.15      0.00
   -6   18   11      0.75      0.00
   -6   16   11      0.06      0.00
   -6   14   11     -0.11      0.00
   -6   12   11      0.47      0.00
   -6   10   11      0.03      0.00
   -6    8   11     -0.91      0.00
   -6    6   11     -0.53      0.00
   -6    4   11     -1.08      0.00
   -6    2   11     -1.56      0.00
   -6   36   12      0.09      0.00
   -6   34   12     -0.70      0.00
   -6   32   12     -1.43      0.00
   -6   30   12     -0.28      0.00
   -6   28   12      1.13      0.00
   -6   26   12      0.77      0.00
   -6   24   12     -0.01      0.00
   -6   22   12      0.39      0.00
   -6   20   12      0.35      0.00
   -6   18   12     -1.59      0.00
   -6   16   12     -1.31      0.00
   -6   14   12      0.45      0.00
   -6   12   12     -0.72      0.00
   -6   10   12     -1.76      0.00
   -6    8   12     -0.51      0.00
   -6    6   12      1.09      0.00
   -6    4   12      1.78      0.00
   -6    2   12      2.14      0.00
   -6    0   12      2.49      0.00
   -6   34   13     -0.32      0.00
   -6   32   13      0.10      0.00
   -6   30   13      1.43      0.00
   -6   28   13      1.35      0.00
   -6   26   13     -0.71      0.00
   -6   24   13     -0.99      0.00
   -6   22   13     -0.04      0.00
   -6   20   13     -0.36      0.00
   -6   18   13     -0.09      0.00
   -6   16   13      0.74      0.00
   -6   14   13      1.08      0.00
   -6   12   13      1.36      0.00
   -6   10   13      1.47      0.00
   -6    8   13      1.22      0.00
   -6    6   13      1.19      0.00
   -6    4   13      1.27      0.00
   -6    2   13      0.62      0.00
   -6   32   14      0.76      0.00
   -6   30   14      0.58      0.00
   -6   28   14     -0.30      0.00
   -6   26   14     -0.67      0.00
   -6   24   14     -0.26      0.00
   -6   22   14      0.40      0.00
   -6   20   14     -0.04      0.00
   -6   18   14     -0.40      0.00
   -6   16   14      0.18      0.00
   -6   14   14     -0.28      0.00
   -6   12   14     -0.92      0.00
   -6   10   14     -0.27      0.00
   -6    8   14      0.55      0.00
   -6    6   14      0.93      0.00
   -6    4   14      0.69      0.00
   -6    2   14     -0.52      0.00
   -6    0   14     -1.43      0.00
   -6   30   15      0.09      0.00
   -6   28   15     -0.06      0.00
   -6   26   15     -0.66      0.00
   -6   24   15     -0.20      0.00
   -6   22   15      0.30      0.00
   -6   20   15     -0.13      0.00
   -6   18   15     -0.73      0.00
   -6   16   15     -0.41      0.00
   -6   14   15      0.43      0.00
   -6   12   15      0.21      0.00
   -6   10   15     -0.45      0.00
   -6    8   15     -0.05      0.00
   -6    6   15      0.68      0.00
   -6    4   15      0.12      0.00
   -6    2   15     -0.85      0.00
   -6   28   16     -0.19      0.00
   -6   26   16     -0.43      0.00
   -6   24   16     -0.36      0.00
   -6   22   16     -0.07      0.00
   -6   20   16     -0.07      0.00
   -6   18   16      0.04      0.00
   -6   16   16      0.23      0.00
   -6   14   16      0.08      0.00
   -6   12   16      0.24      0.00
   -6   10   16      0.72      0.00
   -6    8   16      0.30      0.00
   -6    6   16     -0.52      0.00
   -6    4   16     -0.18      0.00
   -6    2   16     -0.35      0.00
   -6    0   16     -1.00      0.00
   -6   26   17      0.36      0.00
   -6   24   17      0.65      0.00
   -6   22   17      0.11      0.00
   -6   20   17      0.14      0.00
   -6   18   17      0.12      0.00
   -6   16   17      0.04      0.00
   -6   14   17      0.12      0.00
   -6   12   17     -0.57      0.00
   -6   10   17     -1.03      0.00
   -6    8   17     -0.23      0.00
   -6    6   17     -0.16      0.00
   -6    4   17     -0.56      0.00
   -6    2   17      0.08      0.00
   -6   24   18      0.85      0.00
   -6   22   18      0.33      0.00
   -6   20   18     -0.50      0.00
   -6   18   18      0.08      0.00
   -6   16   18      0.30      0.00
   -6   14   18     -0.39      0.00
   -6   12   18     -0.19      0.00
   -6   10   18      0.17      0.00
   -6    8   18     -0.27      0.00
   -6    6   18     -0.06      0.00
   -6    4   18      0.45      0.00
   -6    2   18      0.20      0.00
   -6    0   18     -0.06      0.00
   -6   20   19     -0.28      0.00
   -6   18   19      0.07      0.00
   -6   16   19      0.59      0.00
   -6   14   19      0.28      0.00
   -6   12   19     -0.16      0.00
   -6   10   19      0.34      0.00
   -6    8   19      0.53      0.00
   -6    6   19     -0.45      0.00
   -6    4   19     -0.83      0.00
   -6    2   19     -0.26      0.00
   -6   16   20     -0.78      0.00
   -6   14   20     -0.42      0.00
   -6   12   20      0.29      0.00
   -6   10   20     -0.27      0.00
   -6    8   20     -0.15      0.00
   -6    6   20      0.64      0.00
   -6    4   20      0.05      0.00
   -6    2   20     -0.32      0.00
   -6    0   20      0.05      0.00
   -6   10   21      0.51      0.00
   -6    8   21      0.06      0.00
   -6    6   21     -0.08      0.00
   -6    4   21      0.24      0.00
   -6    2   21     -0.06      0.00
    7    7   16      0.75      0.00
    7    9   16      0.81      0.00
    7   11   16      0.57      0.00
    7   13   16      1.07      0.00
    7    7   15      0.37      0.00
    7    9   15      0.55      0.00
    7   11   15      1.07      0.00
    7   13   15      0.42      0.00
    7   15   15     -0.11      0.00
    7   17   15     -0.81      0.00
    7    5   14     -0.08      0.00
    7    7   14     -1.09      0.00
    7    9   14     -1.42      0.00
    7   11   14     -0.06      0.00
    7   13   14      0.72      0.00
    7   15   14     -0.83      0.00
    7   17   14     -1.44      0.00
    7   19   14     -0.47      0.00
    7   21   14     -0.23      0.00
    7    5   13      1.84      0.00
    7    7   13      2.22      0.00
    7    9   13      1.43      0.00
    7   11   13     -0.61      0.00
    7   13   13     -1.16      0.00
    7   15   13      0.04      0.00
    7   17   13      0.03      0.00
    7   19   13     -0.01      0.00
    7   21   13      0.85      0.00
    7   23   13      0.77      0.00
    7   25   13      0.35      0.00
    7    3   12      2.92      0.00
    7    5   12      2.82      0.00
    7    7   12      0.01      0.00
    7    9   12     -3.10      0.00
    7   11   12     -3.15      0.00
    7   13   12     -1.65      0.00
    7   15   12     -0.37      0.00
    7   17   12     -0.06      0.00
    7   19   12      0.21      0.00
    7   21   12      1.40      0.00
    7   23   12      0.88      0.00
    7   25   12     -0.19      0.00
    7   27   12      0.35      0.00
    7    3   11      0.44      0.00
    7    5   11     -2.69      0.00
    7    7   11     -4.75      0.00
    7    9   11     -4.27      0.00
    7   11   11     -1.56      0.00
    7   13   11      0.02      0.00
    7   15   11     -0.51      0.00
    7   17   11      0.83      0.00
    7   19   11      1.50      0.00
    7   21   11     -0.22      0.00
    7   23   11     -1.10      0.00
    7   25   11     -0.34      0.00
    7   27   11      1.05      0.00
    7   29   11      0.85      0.00
    7   31   10     -0.68      0.00
    7   29   10      0.00      0.00
    7   27   10     -0.14      0.00
    7   25   10     -1.17      0.00
    7    3   10     -2.23      0.00
    7    5   10     -3.27      0.00
    7    7   10     -1.21      0.00
    7    9   10      1.64      0.00
    7   11   10      1.95      0.00
    7   13   10      1.39      0.00
    7   15   10      0.53      0.00
    7   17   10      1.01      0.00
    7   19   10      2.21      0.00
    7   21   10      0.38      0.00
    7   23   10     -1.44      0.00
    7   33    9     -0.47      0.00
    7   31    9     -0.35      0.00
    7   29    9      0.61      0.00
    7   25    9     -0.35      0.00
    7   23    9     -1.65      0.00
    7   21    9     -0.05      0.00
    7    1    9     -0.54      0.00
    7    3    9      0.16      0.00
    7    5    9      2.12      0.00
    7    7    9      3.27      0.00
    7    9    9      3.16      0.00
    7   11    9      0.54      0.00
    7   13    9     -0.35      0.00
    7   15    9      1.25      0.00
    7   17    9      0.67      0.00
    7   19    9      0.53      0.00
    7   27    9      1.02      0.00
    7   35    8      0.19      0.00
    7   33    8     -0.01      0.00
    7   31    8      0.78      0.00
    7   29    8      0.70      0.00
    7   27    8      0.18      0.00
    7   25    8     -0.54      0.00
    7   23    8     -0.22      0.00
    7   21    8      0.38      0.00
    7   19    8      0.15      0.00
    7   17    8      0.17      0.00
    7    3    8      0.47      0.00
    7    1    8     -0.49      0.00
    7    5    8      1.15      0.00
    7    7    8      0.10      0.00
    7    9    8      0.80      0.00
    7   11    8      1.06      0.00
    7   13    8     -1.99      0.00
    7   15    8     -1.81      0.00
    7   35    7      0.36      0.00
    7   33    7     -0.18      0.00
    7   31    7     -0.56      0.00
    7   29    7      0.36      0.00
    7   27    7      1.75      0.00
    7   25    7      0.81      0.00
    7   23    7     -1.21      0.00
    7   21    7     -1.29      0.00
    7   19    7      1.00      0.00
    7   17    7      0.00      0.00
    7   15    7     -3.27      0.00
    7   13    7     -1.44      0.00
    7   11    7      0.60      0.00
    7    3    7     -1.21      0.00
    7    1    7     -0.86      0.00
    7    5    7      2.41      0.00
    7    7    7      4.38      0.00
    7    9    7      1.65      0.00
    7   37    6     -0.18      0.00
    7   35    6     -0.30      0.00
    7   33    6     -0.29      0.00
    7   31    6     -0.36      0.00
    7   29    6      0.65      0.00
    7   27    6      1.52      0.00
    7   25    6      1.30      0.00
    7   23    6      0.52      0.00
    7   21    6      0.88      0.00
    7   19    6      2.52      0.00
    7   17    6      0.03      0.00
    7   15    6     -5.36      0.00
    7   13    6     -9.08      0.00
    7   11    6     -9.07      0.00
    7    9    6     -3.21      0.00
    7    7    6      0.96      0.00
    7    5    6      1.92      0.00
    7    3    6      4.92      0.00
    7    1    6      5.86      0.00
    7   37    5     -0.34      0.00
    7   35    5     -0.17      0.00
    7   33    5     -0.62      0.00
    7   31    5     -0.64      0.00
    7   29    5     -0.14      0.00
    7   27    5      0.55      0.00
    7   25    5      2.26      0.00
    7   23    5      0.85      0.00
    7   21    5     -1.54      0.00
    7   19    5      0.92      0.00
    7   17    5      5.75      0.00
    7   15    5      6.63      0.00
    7   13    5     -1.04      0.00
    7   11    5     -6.87      0.00
    7    9    5     -3.50      0.00
    7    5    5     -4.36      0.00
    7    3    5    -10.15      0.00
    7    1    5     -6.62      0.00
    7    7    5     -1.11      0.00
    7   39    4      0.44      0.00
    7   37    4      0.18      0.00
    7   35    4     -0.37      0.00
    7   33    4     -0.67      0.00
    7   31    4     -0.14      0.00
    7   29    4     -1.09      0.00
    7   27    4     -0.97      0.00
    7   25    4      0.99      0.00
    7   23    4      0.72      0.00
    7   21    4     -1.79      0.00
    7   19    4     -4.46      0.00
    7   17    4     -0.78      0.00
    7   15    4      6.94      0.00
    7   13    4      7.48      0.00
    7   11    4     -0.67      0.00
    7    9    4     -8.43      0.00
    7    7    4     -1.15      0.00
    7    5    4      9.41      0.00
    7    3    4      2.44      0.00
    7    1    4     -8.40      0.00
    7   39    3     -0.47      0.00
    7   37    3     -0.14      0.00
    7   35    3      0.00      0.00
    7   33    3     -0.23      0.00
    7   31    3     -0.18      0.00
    7   29    3      0.06      0.00
    7   27    3     -0.70      0.00
    7   25    3     -2.55      0.00
    7   23    3     -0.40      0.00
    7   21    3      1.48      0.00
    7   19    3     -1.78      0.00
    7   17    3     -5.86      0.00
    7   15    3     -5.70      0.00
    7   13    3      4.51      0.00
    7   11    3     10.99      0.00
    7    9    3      2.27      0.00
    7    7    3     -6.28      0.00
    7    1    3      5.04      0.00
    7    3    3      4.00      0.00
    7    5    3     -5.01      0.00
    7   39    2     -0.39      0.00
    7   37    2      0.23      0.00
    7   35    2      0.27      0.00
    7   33    2      0.33      0.00
    7   31    2      0.01      0.00
    7   29    2      0.85      0.00
    7   27    2      0.47      0.00
    7   25    2     -0.64      0.00
    7   23    2      0.19      0.00
    7   21    2      1.01      0.00
    7   19    2      1.02      0.00
    7   17    2     -1.31      0.00
    7   15    2     -1.24      0.00
    7   13    2      0.22      0.00
    7   11    2     -1.30      0.00
    7    9    2      2.20      0.00
    7    7    2      2.86      0.00
    7    5    2     -0.90      0.00
    7    3    2      2.58      0.00
    7    1    2      5.21      0.00
    7   41    1      0.25      0.00
    7   39    1     -0.09      0.00
    7   37    1     -1.39      0.00
    7   35    1     -0.75      0.00
    7   33    1      0.38      0.00
    7   31    1      0.27      0.00
    7   29    1     -0.58      0.00
    7   27    1     -0.48      0.00
    7   25    1      1.77      0.00
    7   23    1      1.78      0.00
    7   21    1      0.79      0.00
    7   19    1      1.44      0.00
    7   17    1      5.23      0.00
    7   15    1      7.89      0.00
    7   13    1     -0.42      0.00
    7   11    1     -5.83      0.00
    7    9    1     -4.14      0.00
    7    7    1     -7.70      0.00
    7    5    1     -5.71      0.00
    7    3    1     -0.06      0.00
    7   41    0     -0.31      0.00
    7   39    0     -0.36      0.00
    7   37    0     -0.21      0.00
    7   35    0     -0.72      0.00
    7   33    0     -1.01      0.00
    7   31    0      0.62      0.00
    7   29    0      0.61      0.00
    7   27    0     -0.32      0.00
    7   25    0     -0.47      0.00
    7   23    0      2.16      0.00
    7   21    0      5.99      0.00
    7   19    0      5.11      0.00
    7   17    0      2.56      0.00
    7   15    0     -2.20      0.00
    7   13    0     -2.51      0.00
    7   11    0      4.09      0.00
    7    9    0     -2.79      0.00
    7    7    0    -13.45      0.00
    7    5    0    -10.06      0.00
    7    1    0      1.92      0.00
   -7   41    1      0.37      0.00
   -7   39    1     -0.28      0.00
   -7   37    1     -0.90      0.00
   -7   35    1     -0.05      0.00
   -7   33    1     -0.05      0.00
   -7   31    1      0.46      0.00
   -7   29    1      0.37      0.00
   -7   27    1     -0.38      0.00
   -7   25    1      1.69      0.00
   -7   23    1      1.54      0.00
   -7   21    1     -0.61      0.00
   -7   19    1     -1.87      0.00
   -7   17    1     -0.64      0.00
   -7   15    1      0.77      0.00
   -7   13    1     -4.11      0.00
   -7   11    1      0.13      0.00
   -7    9    1     13.09      0.00
   -7    7    1     13.11      0.00
   -7    5    1      9.72      0.00
   -7    3    1      9.16      0.00
   -7    1    1      3.75      0.00
   -7   41    2     -0.35      0.00
   -7   39    2     -0.03      0.00
   -7   37    2      0.19      0.00
   -7   35    2      0.95      0.00
   -7   33    2      0.54      0.00
   -7   31    2     -1.02      0.00
   -7   29    2      0.28      0.00
   -7   27    2      0.16      0.00
   -7   25    2     -1.55      0.00
   -7   23    2     -1.99      0.00
   -7   21    2     -0.53      0.00
   -7   19    2      3.18      0.00
   -7   17    2      0.74      0.00
   -7   15    2     -3.89      0.00
   -7   13    2     -4.28      0.00
   -7   11    2     -1.86      0.00
   -7    9    2      7.78      0.00
   -7    7    2      6.74      0.00
   -7    5    2     -9.63      0.00
   -7    3    2     -9.50      0.00
   -7    1    2      5.29      0.00
   -7   41    3      0.65      0.00
   -7   39    3      0.82      0.00
   -7   37    3      0.47      0.00
   -7   35    3     -0.35      0.00
   -7   33    3      0.40      0.00
   -7   31    3      0.45      0.00
   -7   29    3      0.38      0.00
   -7   27    3     -0.05      0.00
   -7   25    3     -2.06      0.00
   -7   23    3      0.09      0.00
   -7   21    3      1.33      0.00
   -7   19    3     -1.88      0.00
   -7   17    3     -4.30      0.00
   -7   15    3     -2.77      0.00
   -7   13    3      6.59      0.00
   -7   11    3      6.10      0.00
   -7    9    3     -9.52      0.00
   -7    7    3    -10.24      0.00
   -7    5    3      4.69      0.00
   -7    3    3     12.51      0.00
   -7    1    3      6.48      0.00
   -7   41    4     -0.17      0.00
   -7   39    4     -0.44      0.00
   -7   37    4     -0.18      0.00
   -7   35    4     -0.28      0.00
   -7   33    4     -0.22      0.00
   -7   31    4      0.23      0.00
   -7   29    4     -0.86      0.00
   -7   27    4     -0.40      0.00
   -7   25    4      1.03      0.00
   -7   23    4      1.49      0.00
   -7   21    4      1.24      0.00
   -7   19    4     -0.81      0.00
   -7   17    4      1.16      0.00
   -7   15    4      4.43      0.00
   -7   13    4      4.34      0.00
   -7   11    4      2.71      0.00
   -7    9    4     -5.11      0.00
   -7    7    4     -4.68      0.00
   -7    5    4      7.37      0.00
   -7    3    4     -1.04      0.00
   -7    1    4    -25.02      0.00
   -7   41    5     -0.44      0.00
   -7   39    5     -0.11      0.00
   -7   37    5     -0.43      0.00
   -7   35    5     -0.31      0.00
   -7   33    5     -0.02      0.00
   -7   31    5      0.22      0.00
   -7   29    5     -0.10      0.00
   -7   27    5     -0.13      0.00
   -7   25    5      0.87      0.00
   -7   23    5      0.30      0.00
   -7   21    5      0.00      0.00
   -7   19    5     -1.43      0.00
   -7   17    5     -3.21      0.00
   -7   15    5      0.70      0.00
   -7   13    5      1.80      0.00
   -7   11    5     -0.43      0.00
   -7    9    5      0.64      0.00
   -7    7    5      0.42      0.00
   -7    5    5      5.21      0.00
   -7    3    5     13.17      0.00
   -7    1    5      7.62      0.00
   -7   39    6      0.25      0.00
   -7   37    6      0.53      0.00
   -7   35    6      0.73      0.00
   -7   33    6      0.40      0.00
   -7   31    6     -0.47      0.00
   -7   29    6     -1.32      0.00
   -7   27    6     -1.57      0.00
   -7   25    6     -0.01      0.00
   -7   23    6      0.33      0.00
   -7   21    6     -1.45      0.00
   -7   19    6     -0.33      0.00
   -7   17    6      1.98      0.00
   -7   15    6      4.07      0.00
   -7   13    6      3.88      0.00
   -7   11    6     -0.38      0.00
   -7    9    6      1.33      0.00
   -7    7    6      3.33      0.00
   -7    5    6     -3.85      0.00
   -7    3    6     -4.30      0.00
   -7    1    6      4.59      0.00
   -7   39    7     -0.15      0.00
   -7   37    7      0.62      0.00
   -7   35    7     -0.01      0.00
   -7   33    7     -0.71      0.00
   -7   31    7     -0.11      0.00
   -7   29    7      0.75      0.00
   -7   27    7      0.75      0.00
   -7   25    7      0.60      0.00
   -7   23    7      1.17      0.00
   -7   21    7      0.34      0.00
   -7   19    7     -1.44      0.00
   -7   17    7     -2.14      0.00
   -7   15    7     -2.65      0.00
   -7   13    7     -2.69      0.00
   -7   11    7     -2.68      0.00
   -7    9    7     -0.51      0.00
   -7    7    7      3.11      0.00
   -7    5    7     -0.23      0.00
   -7    3    7     -5.88      0.00
   -7    1    7     -3.50      0.00
   -7   39    8     -0.42      0.00
   -7   37    8      0.61      0.00
   -7   35    8      0.83      0.00
   -7   33    8      0.19      0.00
   -7   31    8     -0.52      0.00
   -7   29    8     -0.69      0.00
   -7   27    8     -0.07      0.00
   -7   25    8     -0.04      0.00
   -7   23    8      0.34      0.00
   -7   21    8      0.34      0.00
   -7   19    8     -2.44      0.00
   -7   17    8     -2.88      0.00
   -7   15    8      1.40      0.00
   -7   13    8      3.32      0.00
   -7   11    8     -0.04      0.00
   -7    9    8     -2.77      0.00
   -7    7    8      0.42      0.00
   -7    5    8      4.29      0.00
   -7    3    8      1.03      0.00
   -7    1    8     -5.08      0.00
   -7   37    9      0.55      0.00
   -7   35    9      0.27      0.00
   -7   33    9     -0.35      0.00
   -7   31    9     -0.23      0.00
   -7   29    9      0.55      0.00
   -7   27    9      0.88      0.00
   -7   25    9      0.26      0.00
   -7   23    9     -0.45      0.00
   -7   21    9     -0.68      0.00
   -7   19    9     -0.36      0.00
   -7   17    9      1.06      0.00
   -7   15    9      0.79      0.00
   -7   13    9     -1.30      0.00
   -7   11    9     -0.99      0.00
   -7    9    9      1.17      0.00
   -7    7    9      3.07      0.00
   -7    5    9      1.86      0.00
   -7    3    9     -2.99      0.00
   -7    1    9     -2.87      0.00
   -7   37   10      0.33      0.00
   -7   35   10     -0.32      0.00
   -7   33   10     -0.37      0.00
   -7   31   10      0.23      0.00
   -7   29   10      0.84      0.00
   -7   27   10     -0.04      0.00
   -7   25   10     -1.11      0.00
   -7   23   10     -0.94      0.00
   -7   21   10      0.25      0.00
   -7   19   10      0.96      0.00
   -7   17   10      0.58      0.00
   -7   15   10     -0.12      0.00
   -7   13   10     -0.57      0.00
   -7   11   10      0.78      0.00
   -7    9   10      0.84      0.00
   -7    7   10     -1.86      0.00
   -7    5   10     -1.74      0.00
   -7    3   10      0.26      0.00
   -7    1   10      0.28      0.00
   -7   37   11     -0.23      0.00
   -7   35   11     -1.37      0.00
   -7   33   11     -0.84      0.00
   -7   31   11      1.08      0.00
   -7   29   11      1.33      0.00
   -7   27   11     -0.93      0.00
   -7   25   11     -1.03      0.00
   -7   23   11      0.83      0.00
   -7   21   11      0.11      0.00
   -7   19   11     -0.47      0.00
   -7   17   11      0.30      0.00
   -7   15   11      0.46      0.00
   -7   13   11      0.07      0.00
   -7   11   11     -0.46      0.00
   -7    9   11     -0.42      0.00
   -7    7   11     -0.63      0.00
   -7    5   11      0.29      0.00
   -7    3   11      2.58      0.00
   -7    1   11      1.77      0.00
   -7   35   12     -0.44      0.00
   -7   33   12      0.30      0.00
   -7   31   12      0.82      0.00
   -7   29   12     -0.13      0.00
   -7   27   12     -0.76      0.00
   -7   25   12     -0.18      0.00
   -7   23   12      0.63      0.00
   -7   21   12     -0.12      0.00
   -7   19   12     -0.42      0.00
   -7   17   12      0.77      0.00
   -7   15   12     -0.06      0.00
   -7   13   12     -0.37      0.00
   -7   11   12      1.28      0.00
   -7    9   12      1.02      0.00
   -7    7   12     -0.54      0.00
   -7    5   12     -0.97      0.00
   -7    3   12     -0.72      0.00
   -7    1   12     -1.00      0.00
   -7   33   13      0.26      0.00
   -7   31   13     -0.25      0.00
   -7   29   13     -1.39      0.00
   -7   27   13     -0.25      0.00
   -7   25   13      1.60      0.00
   -7   23   13      0.64      0.00
   -7   21   13     -0.17      0.00
   -7   19   13      0.03      0.00
   -7   17   13     -0.24      0.00
   -7   15   13     -0.20      0.00
   -7   13   13     -0.55      0.00
   -7   11   13     -1.19      0.00
   -7    9   13     -0.95      0.00
   -7    7   13     -0.37      0.00
   -7    5   13     -0.43      0.00
   -7    3   13     -0.43      0.00
   -7    1   13     -0.07      0.00
   -7   31   14     -0.30      0.00
   -7   29   14     -0.33      0.00
   -7   27   14      0.04      0.00
   -7   25   14      0.91      0.00
   -7   23   14      0.61      0.00
   -7   21   14     -0.18      0.00
   -7   19   14      0.40      0.00
   -7   17   14      0.27      0.00
   -7   15   14     -0.38      0.00
   -7   13   14     -0.06      0.00
   -7   11   14     -0.04      0.00
   -7    9   14     -0.34      0.00
   -7    7   14     -0.40      0.00
   -7    5   14     -0.33      0.00
   -7    3   14      0.05      0.00
   -7    1   14      0.50      0.00
   -7   31   15      0.09      0.00
   -7   29   15     -0.86      0.00
   -7   27   15      0.01      0.00
   -7   25   15      0.35      0.00
   -7   23   15     -0.64      0.00
   -7   21   15     -0.74      0.00
   -7   19   15     -0.01      0.00
   -7   17   15      0.03      0.00
   -7   15   15     -0.67      0.00
   -7   13   15     -0.48      0.00
   -7   11   15      0.63      0.00
   -7    9   15      0.90      0.00
   -7    7   15      0.12      0.00
   -7    5   15     -0.17      0.00
   -7    3   15      0.86      0.00
   -7    1   15      0.90      0.00
   -7   29   16     -0.64      0.00
   -7   27   16      0.20      0.00
   -7   25   16      0.46      0.00
   -7   23   16     -0.07      0.00
   -7   21   16      0.00      0.00
   -7   19   16      0.59      0.00
   -7   17   16      0.40      0.00
   -7   15   16      0.08      0.00
   -7   13   16      0.16      0.00
   -7   11   16     -0.07      0.00
   -7    9   16     -0.28      0.00
   -7    7   16      0.33      0.00
   -7    5   16      0.08      0.00
   -7    3   16     -0.72      0.00
   -7    1   16      0.09      0.00
   -7   25   17      0.05      0.00
   -7   23   17      0.34      0.00
   -7   21   17      0.37      0.00
   -7   19   17     -0.16      0.00
   -7   17   17     -0.17      0.00
   -7   15   17     -0.29      0.00
   -7   13   17     -0.23      0.00
   -7   11   17      0.48      0.00
   -7    9   17      0.32      0.00
   -7    7   17     -0.09      0.00
   -7    5   17      0.80      0.00
   -7    3   17      0.73      0.00
   -7    1   17     -0.01      0.00
   -7   23   18     -1.01      0.00
   -7   21   18      0.04      0.00
   -7   19   18      0.27      0.00
   -7   17   18     -0.31      0.00
   -7   15   18      0.24      0.00
   -7   13   18      0.45      0.00
   -7   11   18     -0.24      0.00
   -7    9   18      0.17      0.00
   -7    7   18      0.53      0.00
   -7    5   18     -0.32      0.00
   -7    3   18     -0.58      0.00
   -7    1   18     -0.22      0.00
   -7   19   19      0.19      0.00
   -7   17   19     -0.47      0.00
   -7   15   19     -0.70      0.00
   -7   13   19     -0.08      0.00
   -7   11   19      0.01      0.00
   -7    9   19     -0.50      0.00
   -7    7   19     -0.15      0.00
   -7    5   19      0.46      0.00
   -7    3   19      0.32      0.00
   -7    1   19      0.05      0.00
   -7   15   20      0.35      0.00
   -7   13   20     -0.21      0.00
   -7   11   20      0.00      0.00
   -7    9   20      0.27      0.00
   -7    7   20     -0.55      0.00
   -7    5   20     -0.50      0.00
   -7    3   20      0.29      0.00
   -7    1   20      0.02      0.00
   -7    7   21      0.37      0.00
   -7    5   21      0.18      0.00
   -7    3   21     -0.11      0.00
   -7    1   21      0.01      0.00
    8    8   15      0.25      0.00
    8   10   15     -0.37      0.00
    8   12   15      0.05      0.00
    8   14   15      0.73      0.00
    8    6   14      0.28      0.00
    8    8   14      1.34      0.00
    8   10   14      1.35      0.00
    8   12   14      0.03      0.00
    8   14   14      0.03      0.00
    8   16   14      0.68      0.00
    8   18   14      0.27      0.00
    8    4   13      0.05      0.00
    8    6   13      0.54      0.00
    8    8   13      0.60      0.00
    8   10   13      0.69      0.00
    8   12   13      0.65      0.00
    8   14   13     -0.45      0.00
    8   16   13     -0.72      0.00
    8   18   13     -0.18      0.00
    8   20   13     -0.89      0.00
    8   22   13     -1.41      0.00
    8    4   12      0.31      0.00
    8    6   12     -0.82      0.00
    8    8   12     -0.08      0.00
    8   10   12     -0.07      0.00
    8   12   12     -0.57      0.00
    8   14   12     -0.39      0.00
    8   16   12     -0.41      0.00
    8   18   12     -0.70      0.00
    8   20   12     -1.16      0.00
    8   22   12     -0.54      0.00
    8   24   12      0.90      0.00
    8    2   11     -1.75      0.00
    8    4   11     -1.22      0.00
    8    6   11     -0.19      0.00
    8    8   11      0.69      0.00
    8   10   11      0.64      0.00
    8   12   11     -0.27      0.00
    8   14   11      0.74      0.00
    8   16   11      0.87      0.00
    8   18   11     -0.63      0.00
    8   20   11      0.70      0.00
    8   22   11      2.28      0.00
    8   24   11      0.80      0.00
    8   26   11     -1.19      0.00
    8   28   10     -0.17      0.00
    8    2   10     -0.32      0.00
    8    4   10      1.07      0.00
    8    6   10      1.74      0.00
    8    8   10     -0.12      0.00
    8   10   10     -0.72      0.00
    8   12   10      0.27      0.00
    8   14   10      0.38      0.00
    8   16   10      0.05      0.00
    8   18   10     -0.68      0.00
    8   20   10     -0.23      0.00
    8   22   10      0.76      0.00
    8   24   10      0.60      0.00
    8   26   10      0.15      0.00
    8   30   10      0.20      0.00
    8   30    9     -0.79      0.00
    8   28    9     -1.22      0.00
    8   26    9     -1.00      0.00
    8   24    9      0.07      0.00
    8    2    9      1.39      0.00
    8    4    9     -0.09      0.00
    8    6    9     -1.94      0.00
    8    8    9     -2.66      0.00
    8   10    9     -1.24      0.00
    8   12    9      0.65      0.00
    8   14    9     -0.34      0.00
    8   16    9     -0.45      0.00
    8   18    9      0.45      0.00
    8   20    9     -0.18      0.00
    8   22    9      0.20      0.00
    8   32    8      0.56      0.00
    8   30    8     -0.38      0.00
    8   28    8     -0.83      0.00
    8   26    8     -0.28      0.00
    8   24    8      0.81      0.00
    8   22    8      0.11      0.00
    8   20    8     -0.37      0.00
    8   18    8     -0.12      0.00
    8    2    8     -1.02      0.00
    8    0    8     -0.88      0.00
    8    4    8     -1.42      0.00
    8    6    8     -0.44      0.00
    8    8    8      0.47      0.00
    8   10    8     -0.39      0.00
    8   12    8      0.85      0.00
    8   14    8      2.03      0.00
    8   16    8      0.53      0.00
    8   34    7     -0.59      0.00
    8   32    7      0.44      0.00
    8   30    7      1.10      0.00
    8   28    7     -0.64      0.00
    8   26    7     -1.44      0.00
    8   24    7      0.22      0.00
    8   22    7      2.03      0.00
    8   20    7      1.43      0.00
    8   18    7     -0.97      0.00
    8   16    7      0.21      0.00
    8   14    7      1.76      0.00
    8   12    7      0.22      0.00
    8   10    7     -0.04      0.00
    8    8    7     -1.32      0.00
    8    6    7     -2.15      0.00
    8    4    7      1.30      0.00
    8    2    7      2.74      0.00
    8   34    6     -0.19      0.00
    8   32    6     -0.01      0.00
    8   30    6      0.20      0.00
    8   28    6     -0.40      0.00
    8   26    6     -1.19      0.00
    8   24    6     -1.34      0.00
    8   22    6      0.08      0.00
    8   20    6      0.07      0.00
    8   18    6     -0.75      0.00
    8   16    6      1.41      0.00
    8   14    6      3.77      0.00
    8   12    6      5.84      0.00
    8   10    6      5.00      0.00
    8    6    6     -1.71      0.00
    8    4    6     -2.05      0.00
    8    2    6     -2.15      0.00
    8    8    6      0.13      0.00
    8   36    5      0.64      0.00
    8   34    5      0.55      0.00
    8   32    5      0.17      0.00
    8   30    5     -0.46      0.00
    8   28    5      0.02      0.00
    8   26    5     -0.79      0.00
    8   24    5     -2.08      0.00
    8   22    5     -0.08      0.00
    8   20    5      0.59      0.00
    8   18    5     -1.72      0.00
    8   16    5     -4.01      0.00
    8   14    5     -1.57      0.00
    8   12    5      5.30      0.00
    8   10    5      5.49      0.00
    8    8    5      1.14      0.00
    8    6    5     -0.09      0.00
    8    4    5      1.24      0.00
    8    2    5      3.20      0.00
    8   36    4     -0.23      0.00
    8   34    4      0.61      0.00
    8   32    4      0.43      0.00
    8   30    4      0.08      0.00
    8   28    4      1.09      0.00
    8   26    4      0.39      0.00
    8   24    4     -0.58      0.00
    8   22    4     -0.59      0.00
    8   20    4      0.56      0.00
    8   18    4      1.43      0.00
    8   16    4     -3.15      0.00
    8   14    4     -7.09      0.00
    8   12    4     -3.98      0.00
    8   10    4      4.49      0.00
    8    6    4      0.77      0.00
    8    4    4     -3.73      0.00
    8    2    4      0.04      0.00
    8    0    4      1.75      0.00
    8    8    4      8.65      0.00
    8   38    3      0.41      0.00
    8   36    3      0.10      0.00
    8   34    3      0.21      0.00
    8   32    3      0.03      0.00
    8   30    3      0.01      0.00
    8   28    3     -0.12      0.00
    8   26    3      1.34      0.00
    8   24    3      2.35      0.00
    8   22    3     -0.26      0.00
    8   20    3      0.18      0.00
    8   18    3      2.94      0.00
    8   16    3      3.91      0.00
    8   14    3      0.07      0.00
    8   12    3     -8.38      0.00
    8   10    3     -7.23      0.00
    8    8    3      1.25      0.00
    8    6    3      4.82      0.00
    8    4    3      1.54      0.00
    8    2    3     -4.04      0.00
    8   38    2      0.11      0.00
    8   36    2     -0.20      0.00
    8   34    2     -0.30      0.00
    8   32    2      0.12      0.00
    8   30    2      0.14      0.00
    8   28    2     -0.57      0.00
    8   26    2      0.89      0.00
    8   24    2      0.80      0.00
    8   22    2     -0.83      0.00
    8   20    2     -1.30      0.00
    8   18    2     -0.01      0.00
    8   16    2      3.73      0.00
    8   14    2      3.55      0.00
    8   10    2     -1.52      0.00
    8    6    2     -0.23      0.00
    8    4    2      1.94      0.00
    8    2    2     -2.74      0.00
    8    0    2     -4.21      0.00
    8    8    2     -5.27      0.00
    8   12    2      1.58      0.00
    8   38    1      0.52      0.00
    8   36    1      0.90      0.00
    8   34    1     -0.01      0.00
    8   32    1     -0.53      0.00
    8   30    1     -0.37      0.00
    8   28    1      0.77      0.00
    8   26    1     -0.17      0.00
    8   24    1     -2.13      0.00
    8   22    1     -0.57      0.00
    8   20    1      0.17      0.00
    8   18    1     -1.51      0.00
    8   16    1     -5.33      0.00
    8   14    1     -3.63      0.00
    8   12    1      5.57      0.00
    8   10    1      6.17      0.00
    8    8    1      3.43      0.00
    8    6    1      1.74      0.00
    8    4    1     -3.87      0.00
    8    2    1     -3.50      0.00
    8   40    0      0.42      0.00
    8   38    0      0.57      0.00
    8   36    0      0.35      0.00
    8   34    0      0.81      0.00
    8   32    0      0.02      0.00
    8   30    0     -1.34      0.00
    8   28    0     -1.48      0.00
    8   26    0     -1.58      0.00
    8   24    0     -1.03      0.00
    8   22    0     -3.74      0.00
    8   20    0     -6.14      0.00
    8   18    0     -3.08      0.00
    8   16    0      1.17      0.00
    8   14    0      5.02      0.00
    8   12    0      0.39      0.00
    8   10    0     -2.80      0.00
    8    8    0      7.90      0.00
    8    6    0     11.61      0.00
    8    4    0      4.68      0.00
    8    2    0     -3.55      0.00
    8    0    0     -8.55      0.00
   -8   40    1      0.08      0.00
   -8   38    1      0.42      0.00
   -8   36    1     -0.09      0.00
   -8   34    1     -0.56      0.00
   -8   32    1     -0.52      0.00
   -8   30    1     -1.33      0.00
   -8   28    1      0.31      0.00
   -8   26    1      0.84      0.00
   -8   24    1     -0.80      0.00
   -8   22    1      0.96      0.00
   -8   20    1      2.69      0.00
   -8   18    1      2.76      0.00
   -8   16    1     -0.72      0.00
   -8   14    1     -2.11      0.00
   -8   12    1      1.00      0.00
   -8   10    1     -4.91      0.00
   -8    8    1     -8.72      0.00
   -8    6    1     -5.17      0.00
   -8    4    1     -6.67      0.00
   -8    2    1     -5.32      0.00
   -8   40    2     -0.14      0.00
   -8   38    2      0.01      0.00
   -8   36    2     -0.05      0.00
   -8   34    2     -0.71      0.00
   -8   32    2      0.50      0.00
   -8   30    2      0.83      0.00
   -8   28    2      0.03      0.00
   -8   26    2      1.62      0.00
   -8   24    2      1.45      0.00
   -8   22    2      1.39      0.00
   -8   20    2      0.39      0.00
   -8   18    2     -2.96      0.00
   -8   16    2     -1.71      0.00
   -8   14    2      0.25      0.00
   -8   12    2      3.65      0.00
   -8   10    2      3.47      0.00
   -8    6    2      1.03      0.00
   -8    2    2      0.19      0.00
   -8    0    2     -5.10      0.00
   -8    4    2      7.15      0.00
   -8   40    3     -0.19      0.00
   -8   38    3     -0.43      0.00
   -8   36    3      0.37      0.00
   -8   34    3      0.42      0.00
   -8   32    3     -0.68      0.00
   -8   30    3     -0.22      0.00
   -8   28    3     -0.23      0.00
   -8   26    3      0.69      0.00
   -8   24    3      0.61      0.00
   -8   22    3     -2.74      0.00
   -8   20    3     -1.18      0.00
   -8   18    3      2.35      0.00
   -8   16    3      3.72      0.00
   -8   14    3      0.17      0.00
   -8   12    3     -6.41      0.00
   -8   10    3      1.13      0.00
   -8    8    3      9.97      0.00
   -8    6    3      2.52      0.00
   -8    4    3     -7.51      0.00
   -8    2    3     -9.41      0.00
   -8   40    4      0.29      0.00
   -8   38    4      0.49      0.00
   -8   36    4      0.15      0.00
   -8   34    4      0.05      0.00
   -8   32    4     -0.31      0.00
   -8   30    4      0.51      0.00
   -8   28    4      1.47      0.00
   -8   26    4     -0.38      0.00
   -8   24    4     -0.94      0.00
   -8   22    4     -0.87      0.00
   -8   20    4      0.08      0.00
   -8   18    4      2.19      0.00
   -8   16    4     -0.03      0.00
   -8   14    4     -1.83      0.00
   -8   12    4     -2.74      0.00
   -8   10    4      0.10      0.00
   -8    8    4      6.47      0.00
   -8    6    4     -0.01      0.00
   -8    4    4     -4.75      0.00
   -8    2    4      8.26      0.00
   -8   40    5      0.00      0.00
   -8   38    5     -0.10      0.00
   -8   36    5      0.43      0.00
   -8   34    5      0.51      0.00
   -8   32    5      0.54      0.00
   -8   30    5      0.22      0.00
   -8   28    5      0.30      0.00
   -8   26    5     -0.16      0.00
   -8   24    5     -0.55      0.00
   -8   22    5      0.14      0.00
   -8   20    5     -0.23      0.00
   -8   18    5      1.53      0.00
   -8   16    5      0.94      0.00
   -8   14    5     -3.58      0.00
   -8   12    5     -3.44      0.00
   -8   10    5     -2.90      0.00
   -8    8    5     -1.74      0.00
   -8    6    5     -1.88      0.00
   -8    4    5     -8.61      0.00
   -8    2    5     -9.06      0.00
   -8   38    6     -0.48      0.00
   -8   36    6     -0.41      0.00
   -8   34    6     -0.25      0.00
   -8   32    6     -0.19      0.00
   -8   30    6      0.29      0.00
   -8   28    6      0.86      0.00
   -8   26    6      0.19      0.00
   -8   24    6     -1.82      0.00
   -8   22    6     -0.86      0.00
   -8   20    6      0.89      0.00
   -8   18    6     -0.79      0.00
   -8   16    6     -2.55      0.00
   -8   14    6     -3.03      0.00
   -8   12    6      0.97      0.00
   -8   10    6      3.87      0.00
   -8    8    6     -0.29      0.00
   -8    6    6      0.26      0.00
   -8    4    6      2.54      0.00
   -8    2    6     -1.38      0.00
   -8   38    7     -0.33      0.00
   -8   36    7     -0.38      0.00
   -8   34    7      0.29      0.00
   -8   32    7     -0.11      0.00
   -8   30    7     -0.84      0.00
   -8   28    7     -0.72      0.00
   -8   26    7     -0.07      0.00
   -8   24    7      0.18      0.00
   -8   22    7      0.44      0.00
   -8   20    7      1.73      0.00
   -8   18    7      1.60      0.00
   -8   16    7      1.13      0.00
   -8   14    7      2.72      0.00
   -8   12    7      4.19      0.00
   -8   10    7      2.22      0.00
   -8    8    7     -4.73      0.00
   -8    6    7     -5.33      0.00
   -8    4    7      3.58      0.00
   -8    2    7      6.05      0.00
   -8   38    8      0.31      0.00
   -8   36    8     -0.64      0.00
   -8   34    8     -0.99      0.00
   -8   32    8     -0.21      0.00
   -8   30    8      0.95      0.00
   -8   28    8      0.92      0.00
   -8   26    8      0.25      0.00
   -8   24    8      0.30      0.00
   -8   22    8     -0.45      0.00
   -8   20    8     -0.37      0.00
   -8   18    8      1.09      0.00
   -8   16    8     -0.38      0.00
   -8   14    8     -2.88      0.00
   -8   12    8     -2.07      0.00
   -8   10    8      0.49      0.00
   -8    6    8     -3.72      0.00
   -8    4    8     -1.10      0.00
   -8    2    8      4.71      0.00
   -8    0    8      6.70      0.00
   -8    8    8     -0.42      0.00
   -8   36    9     -0.24      0.00
   -8   34    9      0.20      0.00
   -8   32    9      0.44      0.00
   -8   30    9     -0.37      0.00
   -8   28    9     -1.01      0.00
   -8   26    9     -0.75      0.00
   -8   24    9      0.08      0.00
   -8   22    9      0.36      0.00
   -8   20    9      0.12      0.00
   -8   18    9     -0.28      0.00
   -8   16    9     -0.83      0.00
   -8   14    9      0.20      0.00
   -8   10    9      0.39      0.00
   -8    8    9     -0.35      0.00
   -8    6    9     -1.39      0.00
   -8    4    9     -0.14      0.00
   -8    2    9      2.55      0.00
   -8   12    9      1.14      0.00
   -8   36   10      0.36      0.00
   -8   34   10      0.40      0.00
   -8   32   10      0.25      0.00
   -8   30   10     -0.48      0.00
   -8   28   10     -0.62      0.00
   -8   26   10      0.41      0.00
   -8   24   10      1.05      0.00
   -8   22   10      0.71      0.00
   -8   20   10     -0.67      0.00
   -8   18   10     -1.28      0.00
   -8   16   10     -0.49      0.00
   -8   14   10      0.42      0.00
   -8   12   10      0.06      0.00
   -8   10   10     -1.13      0.00
   -8    8   10      0.61      0.00
   -8    6   10      2.73      0.00
   -8    4   10      0.79      0.00
   -8    2   10     -1.12      0.00
   -8    0   10     -1.12      0.00
   -8   36   11      0.33      0.00
   -8   34   11      0.95      0.00
   -8   32   11      0.45      0.00
   -8   30   11     -0.63      0.00
   -8   28   11     -0.48      0.00
   -8   26   11      0.73      0.00
   -8   24   11     -0.21      0.00
   -8   22   11     -0.79      0.00
   -8   20   11     -0.06      0.00
   -8   18   11     -0.90      0.00
   -8   16   11     -0.76      0.00
   -8   14   11      0.46      0.00
   -8   12   11      0.49      0.00
   -8   10   11      0.17      0.00
   -8    8   11      0.73      0.00
   -8    6   11      1.37      0.00
   -8    4   11      0.01      0.00
   -8    2   11     -1.30      0.00
   -8   34   12      0.72      0.00
   -8   32   12      0.00      0.00
   -8   30   12     -0.40      0.00
   -8   28   12     -0.26      0.00
   -8   26   12      0.05      0.00
   -8   24   12     -0.23      0.00
   -8   22   12     -0.77      0.00
   -8   20   12      0.35      0.00
   -8   18   12      0.71      0.00
   -8   16   12      0.59      0.00
   -8   14   12      1.32      0.00
   -8   12   12     -0.11      0.00
   -8   10   12     -1.32      0.00
   -8    8   12      0.27      0.00
   -8    6   12      1.20      0.00
   -8    4   12     -0.10      0.00
   -8    2   12     -1.24      0.00
   -8    0   12     -1.34      0.00
   -8   32   13     -0.37      0.00
   -8   30   13      0.05      0.00
   -8   28   13      0.66      0.00
   -8   26   13     -0.72      0.00
   -8   24   13     -1.13      0.00
   -8   22   13     -0.12      0.00
   -8   20   13     -0.17      0.00
   -8   18   13      0.10      0.00
   -8   16   13      0.17      0.00
   -8   14   13     -0.21      0.00
   -8   12   13      0.33      0.00
   -8   10   13      0.60      0.00
   -8    8   13     -0.13      0.00
   -8    6   13     -0.80      0.00
   -8    4   13     -1.27      0.00
   -8    2   13     -1.40      0.00
   -8   30   14     -0.09      0.00
   -8   28   14      0.79      0.00
   -8   26   14      0.44      0.00
   -8   24   14     -1.00      0.00
   -8   22   14     -0.62      0.00
   -8   20   14     -0.03      0.00
   -8   18   14     -0.17      0.00
   -8   16   14      0.34      0.00
   -8   14   14      0.30      0.00
   -8   12   14     -0.05      0.00
   -8   10   14      0.10      0.00
   -8    8   14     -0.02      0.00
   -8    6   14     -0.32      0.00
   -8    4   14     -0.28      0.00
   -8    2   14      0.36      0.00
   -8    0   14      0.81      0.00
   -8   30   15      0.96      0.00
   -8   28   15      1.22      0.00
   -8   26   15     -0.07      0.00
   -8   24   15      0.14      0.00
   -8   22   15      0.91      0.00
   -8   20   15      0.72      0.00
   -8   18   15      0.33      0.00
   -8   16   15      0.36      0.00
   -8   14   15      0.22      0.00
   -8   12   15     -0.41      0.00
   -8   10   15     -0.70      0.00
   -8    8   15     -0.38      0.00
   -8    6   15      0.01      0.00
   -8    4   15     -0.40      0.00
   -8    2   15     -1.01      0.00
   -8   28   16      0.13      0.00
   -8   26   16     -0.63      0.00
   -8   24   16     -0.03      0.00
   -8   22   16      0.61      0.00
   -8   20   16     -0.41      0.00
   -8   18   16     -1.16      0.00
   -8   16   16     -0.63      0.00
   -8   14   16     -0.37      0.00
   -8   12   16     -0.36      0.00
   -8   10   16      0.03      0.00
   -8    8   16     -0.21      0.00
   -8    6   16     -0.42      0.00
   -8    4   16      0.85      0.00
   -8    2   16      1.04      0.00
   -8    0   16      0.28      0.00
   -8   24   17     -0.43      0.00
   -8   22   17     -0.67      0.00
   -8   20   17      0.03      0.00
   -8   18   17      0.33      0.00
   -8   16   17      0.03      0.00
   -8   14   17      0.18      0.00
   -8   12   17      0.14      0.00
   -8   10   17     -0.05      0.00
   -8    8   17      0.28      0.00
   -8    6   17     -0.12      0.00
   -8    4   17     -0.52      0.00
   -8    2   17      0.22      0.00
   -8   22   18      0.21      0.00
   -8   20   18     -0.41      0.00
   -8   18   18      0.00      0.00
   -8   16   18     -0.26      0.00
   -8   14   18     -0.60      0.00
   -8   12   18      0.30      0.00
   -8   10   18      0.39      0.00
   -8    8   18     -0.61      0.00
   -8    6   18     -0.27      0.00
   -8    4   18      0.38      0.00
   -8    2   18     -0.12      0.00
   -8    0   18     -0.57      0.00
   -8   18   19     -0.03      0.00
   -8   16   19      0.57      0.00
   -8   14   19      0.32      0.00
   -8   12   19     -0.27      0.00
   -8   10   19      0.06      0.00
   -8    8   19      0.46      0.00
   -8    6   19      0.09      0.00
   -8    4   19     -0.21      0.00
   -8    2   19     -0.12      0.00
   -8   14   20      0.26      0.00
   -8   12   20      0.36      0.00
   -8   10   20     -0.01      0.00
   -8    8   20      0.11      0.00
   -8    6   20      0.47      0.00
   -8    4   20      0.11      0.00
   -8    2   20      0.03      0.00
   -8    0   20      0.34      0.00
   -8    6   21     -0.58      0.00
   -8    4   21     -0.16      0.00
   -8    2   21     -0.15      0.00
    9    7   14     -0.15      0.00
    9    9   14     -0.43      0.00
    9   11   14      0.22      0.00
    9   13   14      0.58      0.00
    9    5   13     -0.94      0.00
    9    7   13     -1.28      0.00
    9    9   13     -0.75      0.00
    9   11   13     -0.16      0.00
    9   13   13      0.53      0.00
    9   15   13      0.88      0.00
    9   17   13      0.32      0.00
    9    3   12     -3.65      0.00
    9    5   12     -0.82      0.00
    9    7   12      0.37      0.00
    9    9   12      1.05      0.00
    9   11   12      2.01      0.00
    9   13   12      1.94      0.00
    9   15   12      1.12      0.00
    9   17   12      0.51      0.00
    9   19   12      0.53      0.00
    9   21   12      0.38      0.00
    9    3   11      1.39      0.00
    9    5   11      2.11      0.00
    9    7   11      2.70      0.00
    9    9   11      2.13      0.00
    9   11   11      1.89      0.00
    9   13   11      0.62      0.00
    9   15   11     -1.71      0.00
    9   17   11     -1.48      0.00
    9   19   11     -0.89      0.00
    9   21   11     -1.85      0.00
    9   23   11     -1.32      0.00
    9   25   11      0.51      0.00
    9    1   10      2.03      0.00
    9    3   10      1.94      0.00
    9    5   10      0.49      0.00
    9    7   10      0.00      0.00
    9    9   10     -0.02      0.00
    9   11   10     -1.49      0.00
    9   13   10     -2.23      0.00
    9   15   10     -1.64      0.00
    9   17   10     -0.70      0.00
    9   19   10     -0.22      0.00
    9   21   10     -0.47      0.00
    9   23   10     -0.23      0.00
    9   25   10      0.33      0.00
    9   27   10      0.78      0.00
    9   29    9      0.60      0.00
    9   27    9      0.98      0.00
    9   25    9      1.06      0.00
    9    1    9     -0.79      0.00
    9    3    9     -1.12      0.00
    9    5    9     -0.56      0.00
    9    7    9     -0.23      0.00
    9    9    9     -0.31      0.00
    9   11    9     -1.26      0.00
    9   13    9     -0.83      0.00
    9   15    9      0.26      0.00
    9   17    9     -0.18      0.00
    9   19    9      0.12      0.00
    9   21    9      0.59      0.00
    9   23    9      0.58      0.00
    9   31    8     -0.31      0.00
    9   29    8      0.22      0.00
    9   27    8      0.56      0.00
    9   25    8     -0.15      0.00
    9   23    8     -0.67      0.00
    9   21    8      0.15      0.00
    9   19    8      0.42      0.00
    9    5    8     -0.40      0.00
    9    3    8      0.58      0.00
    9    1    8      1.28      0.00
    9    7    8     -1.28      0.00
    9    9    8     -0.50      0.00
    9   11    8     -0.17      0.00
    9   13    8     -1.04      0.00
    9   15    8     -0.22      0.00
    9   17    8      0.53      0.00
    9   31    7     -0.84      0.00
    9   29    7     -0.52      0.00
    9   27    7      0.45      0.00
    9   25    7     -0.05      0.00
    9   23    7     -0.92      0.00
    9   21    7     -1.72      0.00
    9   19    7     -0.26      0.00
    9   17    7      2.43      0.00
    9   15    7      1.36      0.00
    9   13    7     -0.30      0.00
    9   11    7     -0.71      0.00
    9    9    7     -0.92      0.00
    9    7    7      0.52      0.00
    9    5    7     -0.19      0.00
    9    1    7     -1.83      0.00
    9    3    7     -2.83      0.00
    9   33    6      0.24      0.00
    9   31    6     -0.30      0.00
    9   29    6     -0.47      0.00
    9   27    6     -0.13      0.00
    9   25    6      0.46      0.00
    9   23    6     -0.20      0.00
    9   21    6     -2.00      0.00
    9   19    6     -1.28      0.00
    9   17    6      0.06      0.00
    9   15    6      0.78      0.00
    9   13    6      1.07      0.00
    9   11    6     -1.51      0.00
    9    9    6     -1.83      0.00
    9    7    6      0.72      0.00
    9    5    6      0.96      0.00
    9    3    6     -0.12      0.00
    9    1    6     -1.70      0.00
    9   35    5     -0.58      0.00
    9   33    5      0.02      0.00
    9   31    5      0.86      0.00
    9   29    5      0.72      0.00
    9   27    5     -0.11      0.00
    9   25    5      1.03      0.00
    9   23    5      1.01      0.00
    9   21    5     -0.74      0.00
    9   19    5     -1.34      0.00
    9   17    5     -1.77      0.00
    9   15    5     -0.77      0.00
    9   13    5     -1.03      0.00
    9   11    5     -1.82      0.00
    9    9    5      0.73      0.00
    9    7    5      1.73      0.00
    9    5    5      1.93      0.00
    9    3    5      2.42      0.00
    9    1    5      0.94      0.00
    9   35    4     -0.17      0.00
    9   33    4     -0.47      0.00
    9   31    4      0.19      0.00
    9   29    4      0.01      0.00
    9   27    4     -0.23      0.00
    9   25    4      0.93      0.00
    9   23    4      1.34      0.00
    9   21    4      1.89      0.00
    9   19    4      0.95      0.00
    9   17    4     -0.32      0.00
    9   15    4      0.21      0.00
    9   13    4     -0.50      0.00
    9   11    4     -1.68      0.00
    9    9    4     -4.09      0.00
    9    7    4     -3.49      0.00
    9    5    4      1.18      0.00
    9    3    4      2.18      0.00
    9    1    4      2.06      0.00
    9   35    3     -0.36      0.00
    9   33    3      0.00      0.00
    9   31    3      0.44      0.00
    9   29    3     -0.06      0.00
    9   27    3     -0.08      0.00
    9   25    3     -0.87      0.00
    9   23    3      0.01      0.00
    9   21    3      1.43      0.00
    9   19    3     -0.20      0.00
    9   17    3     -0.23      0.00
    9   15    3      0.41      0.00
    9   13    3      1.97      0.00
    9   11    3      2.32      0.00
    9    9    3     -2.35      0.00
    9    7    3     -3.80      0.00
    9    5    3     -1.34      0.00
    9    3    3      2.08      0.00
    9    1    3      2.30      0.00
    9   37    2      0.28      0.00
    9   35    2     -0.03      0.00
    9   33    2     -0.15      0.00
    9   31    2     -0.51      0.00
    9   29    2      0.07      0.00
    9   27    2     -0.27      0.00
    9   25    2     -1.48      0.00
    9   23    2      0.53      0.00
    9   21    2      1.47      0.00
    9   19    2      0.53      0.00
    9   17    2     -1.34      0.00
    9   15    2     -2.37      0.00
    9   13    2      0.19      0.00
    9   11    2      0.97      0.00
    9    9    2      1.84      0.00
    9    7    2      0.55      0.00
    9    5    2     -3.18      0.00
    9    3    2      0.00      0.00
    9    1    2      3.68      0.00
    9   37    1     -0.33      0.00
    9   35    1     -0.50      0.00
    9   33    1     -0.25      0.00
    9   31    1      0.01      0.00
    9   29    1      0.00      0.00
    9   27    1     -1.06      0.00
    9   25    1      0.15      0.00
    9   23    1      1.04      0.00
    9   21    1      0.07      0.00
    9   19    1      0.14      0.00
    9   17    1      0.30      0.00
    9   15    1      2.32      0.00
    9   13    1      0.79      0.00
    9    9    1     -1.84      0.00
    9    7    1     -2.66      0.00
    9    5    1      0.87      0.00
    9    3    1      4.74      0.00
    9    1    1      1.94      0.00
    9   11    1     -2.46      0.00
    9   37    0     -0.24      0.00
    9   35    0      0.04      0.00
    9   33    0     -0.17      0.00
    9   31    0      0.32      0.00
    9   29    0      0.96      0.00
    9   27    0      2.00      0.00
    9   25    0      1.35      0.00
    9   23    0     -0.70      0.00
    9   21    0      2.13      0.00
    9   19    0      3.81      0.00
    9   17    0      0.96      0.00
    9   15    0     -3.63      0.00
    9   13    0     -5.47      0.00
    9   11    0      1.57      0.00
    9    9    0      2.01      0.00
    9    7    0     -5.55      0.00
    9    5    0     -6.02      0.00
    9    3    0     -1.44      0.00
    9    1    0      5.28      0.00
   -9   37    1      0.30      0.00
   -9   35    1      0.73      0.00
   -9   33    1      0.29      0.00
   -9   31    1      0.60      0.00
   -9   29    1      0.80      0.00
   -9   27    1     -1.35      0.00
   -9   25    1     -0.70      0.00
   -9   23    1      0.03      0.00
   -9   21    1     -1.40      0.00
   -9   19    1     -1.83      0.00
   -9   17    1     -1.87      0.00
   -9   15    1      1.55      0.00
   -9   13    1      2.56      0.00
   -9   11    1      2.63      0.00
   -9    9    1      4.94      0.00
   -9    7    1      0.40      0.00
   -9    5    1     -0.68      0.00
   -9    3    1      2.66      0.00
   -9    1    1      1.21      0.00
   -9   39    2      0.09      0.00
   -9   37    2     -0.34      0.00
   -9   35    2     -0.16      0.00
   -9   33    2     -0.20      0.00
   -9   31    2     -0.98      0.00
   -9   29    2     -0.15      0.00
   -9   27    2     -0.73      0.00
   -9   25    2     -1.43      0.00
   -9   23    2      0.61      0.00
   -9   21    2     -0.45      0.00
   -9   19    2      0.02      0.00
   -9   17    2      2.48      0.00
   -9   15    2      2.82      0.00
   -9   13    2      1.36      0.00
   -9   11    2     -4.71      0.00
   -9    9    2     -3.29      0.00
   -9    7    2      2.42      0.00
   -9    5    2      0.23      0.00
   -9    3    2     -0.37      0.00
   -9    1    2      0.26      0.00
   -9   39    3      0.00      0.00
   -9   37    3     -0.21      0.00
   -9   35    3     -1.12      0.00
   -9   33    3     -0.22      0.00
   -9   31    3      0.73      0.00
   -9   29    3      0.20      0.00
   -9   27    3      0.30      0.00
   -9   25    3     -0.42      0.00
   -9   23    3      1.32      0.00
   -9   21    3      2.51      0.00
   -9   19    3     -1.34      0.00
   -9   17    3     -2.93      0.00
   -9   15    3     -1.99      0.00
   -9   13    3      2.48      0.00
   -9   11    3      3.04      0.00
   -9    9    3     -4.99      0.00
   -9    7    3     -5.30      0.00
   -9    5    3     -0.63      0.00
   -9    3    3      2.06      0.00
   -9    1    3      2.04      0.00
   -9   39    4     -0.54      0.00
   -9   37    4     -0.50      0.00
   -9   35    4      0.06      0.00
   -9   33    4      0.30      0.00
   -9   31    4      0.42      0.00
   -9   29    4     -0.79      0.00
   -9   27    4     -0.59      0.00
   -9   25    4      0.85      0.00
   -9   23    4     -0.10      0.00
   -9   21    4      0.05      0.00
   -9   19    4     -0.72      0.00
   -9   17    4     -1.64      0.00
   -9   15    4     -0.91      0.00
   -9   13    4     -0.88      0.00
   -9   11    4      0.65      0.00
   -9    9    4     -3.01      0.00
   -9    7    4     -4.99      0.00
   -9    5    4      1.11      0.00
   -9    3    4      0.55      0.00
   -9    1    4     -3.66      0.00
   -9   37    5      0.14      0.00
   -9   35    5     -0.06      0.00
   -9   33    5     -0.28      0.00
   -9   31    5     -0.35      0.00
   -9   29    5      0.36      0.00
   -9   27    5      0.23      0.00
   -9   25    5      0.16      0.00
   -9   23    5     -0.44      0.00
   -9   21    5     -0.28      0.00
   -9   19    5      0.68      0.00
   -9   17    5     -0.92      0.00
   -9   15    5      0.52      0.00
   -9   13    5      3.12      0.00
   -9   11    5      3.85      0.00
   -9    9    5      3.76      0.00
   -9    7    5      1.08      0.00
   -9    5    5      4.28      0.00
   -9    3    5      7.79      0.00
   -9    1    5      3.24      0.00
   -9   37    6      0.70      0.00
   -9   35    6      0.01      0.00
   -9   33    6     -0.17      0.00
   -9   31    6     -0.14      0.00
   -9   29    6     -0.48      0.00
   -9   27    6     -0.50      0.00
   -9   25    6      0.52      0.00
   -9   23    6      1.53      0.00
   -9   21    6      0.01      0.00
   -9   19    6     -0.43      0.00
   -9   17    6      0.58      0.00
   -9   15    6      1.13      0.00
   -9   13    6      0.62      0.00
   -9   11    6     -2.74      0.00
   -9    9    6     -2.00      0.00
   -9    7    6     -0.03      0.00
   -9    5    6     -1.14      0.00
   -9    3    6      0.93      0.00
   -9    1    6      2.07      0.00
   -9   37    7      0.25      0.00
   -9   35    7     -0.20      0.00
   -9   33    7     -0.36      0.00
   -9   31    7      0.48      0.00
   -9   29    7      0.76      0.00
   -9   27    7      0.39      0.00
   -9   25    7     -0.34      0.00
   -9   23    7     -0.68      0.00
   -9   21    7     -1.10      0.00
   -9   19    7     -1.30      0.00
   -9   17    7      0.11      0.00
   -9   15    7     -0.25      0.00
   -9   13    7     -2.66      0.00
   -9   11    7     -3.67      0.00
   -9    9    7      0.80      0.00
   -9    7    7      6.31      0.00
   -9    5    7      1.47      0.00
   -9    3    7     -4.22      0.00
   -9    1    7     -2.01      0.00
   -9   37    8     -0.16      0.00
   -9   35    8      0.80      0.00
   -9   33    8      0.84      0.00
   -9   31    8     -0.09      0.00
   -9   29    8     -0.60      0.00
   -9   27    8     -0.12      0.00
   -9   25    8     -0.38      0.00
   -9   23    8     -0.62      0.00
   -9   21    8      0.83      0.00
   -9   19    8      0.82      0.00
   -9   17    8      0.26      0.00
   -9   15    8      1.46      0.00
   -9   13    8      1.70      0.00
   -9   11    8      0.11      0.00
   -9    9    8     -0.76      0.00
   -9    7    8      1.90      0.00
   -9    5    8      2.30      0.00
   -9    3    8     -2.72      0.00
   -9    1    8     -5.15      0.00
   -9   35    9     -0.34      0.00
   -9   33    9     -0.68      0.00
   -9   31    9      0.17      0.00
   -9   29    9      0.74      0.00
   -9   27    9      0.16      0.00
   -9   25    9     -0.16      0.00
   -9   23    9      0.04      0.00
   -9   21    9      0.40      0.00
   -9   19    9      0.00      0.00
   -9   17    9     -0.28      0.00
   -9   15    9      0.21      0.00
   -9   13    9     -0.23      0.00
   -9   11    9     -0.43      0.00
   -9    9    9     -0.31      0.00
   -9    7    9     -0.03      0.00
   -9    5    9      1.18      0.00
   -9    3    9      0.09      0.00
   -9    1    9     -0.83      0.00
   -9   35   10     -0.53      0.00
   -9   33   10     -0.40      0.00
   -9   31   10     -0.05      0.00
   -9   29   10      0.57      0.00
   -9   27   10      0.16      0.00
   -9   25   10      0.00      0.00
   -9   23   10      0.20      0.00
   -9   21   10      0.20      0.00
   -9   19   10      0.82      0.00
   -9   17   10      0.86      0.00
   -9   15   10      0.14      0.00
   -9   13   10     -0.26      0.00
   -9   11   10      0.58      0.00
   -9    9   10      1.31      0.00
   -9    7   10     -0.22      0.00
   -9    5   10     -0.85      0.00
   -9    3   10      0.41      0.00
   -9    1   10      0.58      0.00
   -9   33   11     -0.35      0.00
   -9   31   11     -0.34      0.00
   -9   29   11      0.26      0.00
   -9   27   11      0.23      0.00
   -9   25   11     -0.03      0.00
   -9   23   11      0.49      0.00
   -9   21   11     -0.32      0.00
   -9   19   11     -0.07      0.00
   -9   17   11      1.06      0.00
   -9   15   11     -0.24      0.00
   -9   13   11     -0.99      0.00
   -9   11   11     -0.08      0.00
   -9    9   11      0.00      0.00
   -9    7   11     -0.69      0.00
   -9    5   11     -0.68      0.00
   -9    3   11     -0.17      0.00
   -9    1   11     -0.01      0.00
   -9   33   12     -0.12      0.00
   -9   31   12      0.14      0.00
   -9   29   12      0.07      0.00
   -9   27   12      0.20      0.00
   -9   25   12     -0.17      0.00
   -9   23   12      0.27      0.00
   -9   21   12      0.63      0.00
   -9   19   12     -0.17      0.00
   -9   17   12     -0.15      0.00
   -9   15   12     -0.71      0.00
   -9   13   12     -0.82      0.00
   -9   11   12      0.72      0.00
   -9    9   12      0.38      0.00
   -9    7   12     -1.07      0.00
   -9    5   12     -0.24      0.00
   -9    3   12      1.44      0.00
   -9    1   12      1.58      0.00
   -9   31   13      0.15      0.00
   -9   29   13     -0.36      0.00
   -9   27   13      0.00      0.00
   -9   25   13      1.12      0.00
   -9   23   13      0.51      0.00
   -9   21   13      0.33      0.00
   -9   19   13      0.60      0.00
   -9   17   13     -0.07      0.00
   -9   15   13     -0.11      0.00
   -9   13   13     -0.06      0.00
   -9   11   13     -0.22      0.00
   -9    9   13      0.28      0.00
   -9    7   13      0.64      0.00
   -9    5   13      0.80      0.00
   -9    3   13      1.51      0.00
   -9    1   13      1.04      0.00
   -9   29   14      0.01      0.00
   -9   27   14     -0.89      0.00
   -9   25   14     -0.08      0.00
   -9   23   14      0.79      0.00
   -9   21   14      0.04      0.00
   -9   19   14     -0.27      0.00
   -9   17   14     -0.30      0.00
   -9   15   14     -0.20      0.00
   -9   13   14      0.35      0.00
   -9   11   14      0.35      0.00
   -9    9   14      0.13      0.00
   -9    7   14      0.24      0.00
   -9    5   14      0.34      0.00
   -9    3   14     -0.01      0.00
   -9    1   14     -0.67      0.00
   -9   27   15     -0.55      0.00
   -9   25   15     -0.09      0.00
   -9   23   15     -0.58      0.00
   -9   21   15     -0.64      0.00
   -9   19   15     -0.28      0.00
   -9   17   15     -0.01      0.00
   -9   15   15      0.24      0.00
   -9   13   15      0.30      0.00
   -9   11   15     -0.07      0.00
   -9    9   15     -0.35      0.00
   -9    7   15     -0.19      0.00
   -9    5   15      0.08      0.00
   -9    3   15      0.49      0.00
   -9    1   15      0.36      0.00
   -9   25   16      0.36      0.00
   -9   23   16     -0.53      0.00
   -9   21   16     -0.24      0.00
   -9   19   16      0.97      0.00
   -9   17   16      0.61      0.00
   -9   15   16     -0.10      0.00
   -9   13   16      0.23      0.00
   -9   11   16      0.33      0.00
   -9    9   16      0.27      0.00
   -9    7   16      0.73      0.00
   -9    5   16      0.16      0.00
   -9    3   16     -0.94      0.00
   -9    1   16     -0.57      0.00
   -9   23   17      0.63      0.00
   -9   21   17      0.11      0.00
   -9   19   17     -0.71      0.00
   -9   17   17     -0.17      0.00
   -9   15   17      0.50      0.00
   -9   13   17      0.35      0.00
   -9   11   17     -0.04      0.00
   -9    9   17     -0.38      0.00
   -9    7   17     -0.27      0.00
   -9    5   17      0.16      0.00
   -9    3   17     -0.30      0.00
   -9    1   17     -0.45      0.00
   -9   21   18      0.29      0.00
   -9   19   18      0.04      0.00
   -9   17   18      0.29      0.00
   -9   15   18      0.86      0.00
   -9   13   18     -0.06      0.00
   -9   11   18     -0.85      0.00
   -9    9   18      0.18      0.00
   -9    7   18      0.85      0.00
   -9    5   18      0.17      0.00
   -9    3   18      0.18      0.00
   -9    1   18      1.01      0.00
   -9   17   19     -0.21      0.00
   -9   15   19     -0.38      0.00
   -9   13   19      0.36      0.00
   -9   11   19      0.68      0.00
   -9    9   19     -0.15      0.00
   -9    7   19     -0.68      0.00
   -9    5   19     -0.15      0.00
   -9    3   19      0.36      0.00
   -9    1   19      0.20      0.00
   -9   11   20     -0.25      0.00
   -9    9   20     -0.13      0.00
   -9    7   20     -0.03      0.00
   -9    5   20     -0.19      0.00
   -9    3   20     -0.34      0.00
   -9    1   20     -0.59      0.00
   10    6   13      0.12      0.00
   10    8   13      0.01      0.00
   10   10   13     -0.53      0.00
   10   12   13     -0.73      0.00
   10    4   12      0.93      0.00
   10    6   12      0.40      0.00
   10    8   12      0.54      0.00
   10   10   12     -0.12      0.00
   10   12   12     -0.93      0.00
   10   14   12     -0.98      0.00
   10   16   12     -0.12      0.00
   10   18   12      0.39      0.00
   10    2   11      0.19      0.00
   10    4   11      0.29      0.00
   10    6   11     -0.75      0.00
   10    8   11     -1.50      0.00
   10   10   11     -1.69      0.00
   10   12   11     -1.45      0.00
   10   14   11      0.37      0.00
   10   16   11      1.64      0.00
   10   18   11      0.87      0.00
   10   20   11      0.16      0.00
   10    0   10     -0.99      0.00
   10    2   10     -1.26      0.00
   10    4   10     -1.07      0.00
   10    6   10     -0.60      0.00
   10    8   10     -0.53      0.00
   10   10   10      0.35      0.00
   10   12   10      1.36      0.00
   10   14   10      1.35      0.00
   10   16   10      0.71      0.00
   10   18   10     -0.05      0.00
   10   20   10     -0.11      0.00
   10   22   10      0.18      0.00
   10   24   10     -0.01      0.00
   10    2    9      0.43      0.00
   10    4    9      0.77      0.00
   10    6    9      1.13      0.00
   10    8    9      0.94      0.00
   10   10    9      1.06      0.00
   10   12    9      1.23      0.00
   10   14    9      0.40      0.00
   10   16    9     -0.23      0.00
   10   18    9     -0.56      0.00
   10   20    9     -0.48      0.00
   10   22    9      0.01      0.00
   10   24    9     -0.42      0.00
   10   26    9     -0.67      0.00
   10   28    8      0.18      0.00
   10   26    8     -0.21      0.00
   10   24    8      0.19      0.00
   10   22    8      0.92      0.00
   10   20    8      0.84      0.00
   10    8    8      0.64      0.00
   10    4    8      0.85      0.00
   10    2    8      0.38      0.00
   10    0    8      0.15      0.00
   10    6    8      1.23      0.00
   10   10    8     -0.04      0.00
   10   12    8      0.41      0.00
   10   14    8     -0.15      0.00
   10   16    8     -1.00      0.00
   10   18    8     -0.11      0.00
   10   30    7     -0.02      0.00
   10   28    7     -0.03      0.00
   10   26    7      0.36      0.00
   10   24    7      0.11      0.00
   10   22    7     -0.06      0.00
   10   18    7     -0.39      0.00
   10   16    7     -2.31      0.00
   10   14    7     -0.65      0.00
   10   12    7      0.86      0.00
   10   10    7      0.91      0.00
   10    8    7      0.04      0.00
   10    6    7     -1.25      0.00
   10    4    7     -0.27      0.00
   10    2    7      1.08      0.00
   10   20    7      1.00      0.00
   10   30    6      0.21      0.00
   10   28    6      0.34      0.00
   10   26    6      0.26      0.00
   10   24    6     -0.03      0.00
   10   22    6      0.80      0.00
   10   20    6      1.65      0.00
   10   18    6      0.57      0.00
   10   16    6     -0.71      0.00
   10   14    6     -2.34      0.00
   10   12    6     -1.81      0.00
   10    8    6      1.09      0.00
   10    6    6     -0.87      0.00
   10    4    6     -0.60      0.00
   10    0    6      1.38      0.00
   10   10    6      1.38      0.00
   10   32    5     -0.44      0.00
   10   30    5     -0.74      0.00
   10   28    5     -0.19      0.00
   10   26    5      0.07      0.00
   10   24    5     -0.51      0.00
   10   22    5      0.30      0.00
   10   20    5      1.03      0.00
   10   18    5      2.40      0.00
   10   16    5      3.44      0.00
   10   14    5      0.60      0.00
   10   12    5     -1.66      0.00
   10   10    5     -2.46      0.00
   10    8    5     -2.34      0.00
   10    6    5     -0.71      0.00
   10    4    5     -1.51      0.00
   10    2    5     -2.36      0.00
   10   34    4      0.04      0.00
   10   32    4     -0.04      0.00
   10   30    4     -0.26      0.00
   10   28    4      0.21      0.00
   10   26    4     -0.66      0.00
   10   24    4     -1.63      0.00
   10   22    4     -1.34      0.00
   10   20    4     -1.32      0.00
   10   18    4      0.53      0.00
   10   16    4      2.70      0.00
   10   14    4      4.04      0.00
   10   12    4      3.33      0.00
   10   10    4      0.34      0.00
   10    8    4     -0.30      0.00
   10    6    4     -0.84      0.00
   10    4    4     -1.82      0.00
   10    2    4     -1.60      0.00
   10    0    4     -1.71      0.00
   10   34    3      0.41      0.00
   10   32    3     -0.59      0.00
   10   30    3     -0.48      0.00
   10   28    3      0.21      0.00
   10   26    3     -0.30      0.00
   10   24    3     -0.47      0.00
   10   22    3     -1.93      0.00
   10   20    3     -1.72      0.00
   10   18    3     -0.24      0.00
   10   16    3     -0.89      0.00
   10   14    3     -0.25      0.00
   10   12    3      1.27      0.00
   10   10    3      4.31      0.00
   10    8    3      5.81      0.00
   10    6    3      2.41      0.00
   10    4    3     -0.56      0.00
   10    2    3     -1.62      0.00
   10   34    2      0.21      0.00
   10   32    2      0.23      0.00
   10   30    2      0.39      0.00
   10   28    2     -0.28      0.00
   10   26    2      0.65      0.00
   10   24    2      0.56      0.00
   10   22    2     -1.80      0.00
   10   20    2     -1.56      0.00
   10   18    2     -0.80      0.00
   10   16    2     -0.29      0.00
   10   14    2     -1.42      0.00
   10   12    2     -2.62      0.00
   10   10    2     -0.70      0.00
   10    8    2      0.83      0.00
   10    6    2      3.31      0.00
   10    4    2      3.12      0.00
   10    2    2     -0.88      0.00
   10    0    2     -2.46      0.00
   10   36    1      0.36      0.00
   10   34    1      0.58      0.00
   10   32    1      0.61      0.00
   10   30    1      0.02      0.00
   10   28    1      0.20      0.00
   10   26    1      1.35      0.00
   10   24    1      0.12      0.00
   10   22    1     -0.38      0.00
   10   20    1     -0.54      0.00
   10   18    1     -0.51      0.00
   10   16    1      0.19      0.00
   10   14    1     -1.58      0.00
   10   12    1     -2.39      0.00
   10   10    1     -2.45      0.00
   10    8    1     -0.37      0.00
   10    6    1      1.86      0.00
   10    4    1     -0.75      0.00
   10    2    1     -1.29      0.00
   10   36    0     -0.22      0.00
   10   34    0     -0.39      0.00
   10   32    0      0.23      0.00
   10   30    0      0.07      0.00
   10   28    0     -0.65      0.00
   10   26    0     -1.32      0.00
   10   24    0      1.02      0.00
   10   22    0      2.52      0.00
   10   20    0     -0.73      0.00
   10   18    0     -1.56      0.00
   10   16    0      0.45      0.00
   10   14    0      3.94      0.00
   10   12    0      3.18      0.00
   10   10    0     -2.79      0.00
   10    8    0     -2.13      0.00
   10    6    0      1.14      0.00
   10    4    0      1.66      0.00
   10    2    0     -0.82      0.00
   10    0    0     -3.68      0.00
  -10   36    1     -0.69      0.00
  -10   34    1     -0.53      0.00
  -10   32    1     -0.01      0.00
  -10   30    1     -0.35      0.00
  -10   28    1      0.38      0.00
  -10   26    1      1.47      0.00
  -10   24    1     -0.32      0.00
  -10   22    1     -0.31      0.00
  -10   20    1      0.23      0.00
  -10   18    1      0.47      0.00
  -10   16    1      0.34      0.00
  -10   14    1     -2.62      0.00
  -10   12    1     -3.16      0.00
  -10   10    1     -3.04      0.00
  -10    8    1     -0.30      0.00
  -10    6    1      3.33      0.00
  -10    4    1      0.41      0.00
  -10    2    1     -0.85      0.00
  -10   36    2      0.49      0.00
  -10   34    2      0.54      0.00
  -10   32    2      0.95      0.00
  -10   30    2      0.94      0.00
  -10   28    2     -0.06      0.00
  -10   26    2      0.55      0.00
  -10   24    2     -0.70      0.00
  -10   22    2     -2.03      0.00
  -10   20    2      0.20      0.00
  -10   18    2     -0.31      0.00
  -10   16    2     -1.38      0.00
  -10   14    2     -1.92      0.00
  -10   12    2      0.37      0.00
  -10   10    2      4.32      0.00
  -10    8    2      0.27      0.00
  -10    6    2     -3.26      0.00
  -10    4    2     -2.60      0.00
  -10    0    2      2.01      0.00
  -10    2    2     -0.47      0.00
  -10   36    3      0.63      0.00
  -10   34    3      0.98      0.00
  -10   32    3     -0.27      0.00
  -10   30    3     -0.75      0.00
  -10   28    3     -0.58      0.00
  -10   26    3     -0.47      0.00
  -10   24    3      0.32      0.00
  -10   22    3     -1.23      0.00
  -10   20    3      0.06      0.00
  -10   18    3      3.34      0.00
  -10   16    3      2.73      0.00
  -10   14    3      0.17      0.00
  -10   12    3     -2.91      0.00
  -10   10    3      0.51      0.00
  -10    8    3      3.96      0.00
  -10    6    3      1.17      0.00
  -10    4    3     -0.02      0.00
  -10    2    3     -1.15      0.00
  -10   36    4     -0.20      0.00
  -10   34    4     -0.40      0.00
  -10   32    4     -0.13      0.00
  -10   30    4     -0.45      0.00
  -10   28    4      0.24      0.00
  -10   26    4     -0.25      0.00
  -10   24    4     -0.20      0.00
  -10   22    4      0.72      0.00
  -10   20    4     -0.39      0.00
  -10   18    4     -0.11      0.00
  -10   16    4      0.14      0.00
  -10   14    4      0.83      0.00
  -10   12    4      0.54      0.00
  -10   10    4     -0.38      0.00
  -10    8    4      2.39      0.00
  -10    6    4      0.98      0.00
  -10    4    4     -0.37      0.00
  -10    2    4      1.87      0.00
  -10    0    4      2.15      0.00
  -10   36    5     -0.43      0.00
  -10   34    5     -0.20      0.00
  -10   32    5      0.34      0.00
  -10   30    5     -0.33      0.00
  -10   28    5     -1.22      0.00
  -10   26    5     -0.40      0.00
  -10   24    5      0.07      0.00
  -10   22    5      0.91      0.00
  -10   20    5      0.08      0.00
  -10   18    5     -0.74      0.00
  -10   16    5      0.47      0.00
  -10   14    5      0.24      0.00
  -10   12    5     -0.42      0.00
  -10   10    5     -2.68      0.00
  -10    8    5     -2.07      0.00
  -10    6    5     -0.04      0.00
  -10    4    5     -2.11      0.00
  -10    2    5     -1.25      0.00
  -10   36    6     -0.02      0.00
  -10   34    6      0.49      0.00
  -10   32    6      0.13      0.00
  -10   30    6      0.70      0.00
  -10   28    6      0.78      0.00
  -10   26    6      0.13      0.00
  -10   24    6     -0.48      0.00
  -10   22    6     -0.28      0.00
  -10   20    6      0.60      0.00
  -10   18    6     -0.05      0.00
  -10   16    6     -0.03      0.00
  -10   14    6     -0.12      0.00
  -10   12    6      0.19      0.00
  -10   10    6      0.66      0.00
  -10    8    6     -0.66      0.00
  -10    6    6      0.79      0.00
  -10    4    6      0.08      0.00
  -10    2    6     -2.30      0.00
  -10    0    6     -1.96      0.00
  -10   36    7     -0.08      0.00
  -10   34    7      0.27      0.00
  -10   32    7      0.29      0.00
  -10   30    7     -0.08      0.00
  -10   28    7     -0.53      0.00
  -10   26    7     -0.74      0.00
  -10   24    7      0.25      0.00
  -10   22    7      0.63      0.00
  -10   20    7      0.29      0.00
  -10   18    7     -0.65      0.00
  -10   16    7     -1.09      0.00
  -10   14    7      0.71      0.00
  -10   12    7      2.35      0.00
  -10   10    7      1.90      0.00
  -10    8    7     -2.09      0.00
  -10    6    7     -2.56      0.00
  -10    4    7      2.11      0.00
  -10    2    7      1.98      0.00
  -10   36    8     -0.23      0.00
  -10   34    8     -0.53      0.00
  -10   32    8     -0.10      0.00
  -10   30    8     -0.06      0.00
  -10   28    8     -0.64      0.00
  -10   26    8     -0.36      0.00
  -10   24    8      1.23      0.00
  -10   22    8      0.69      0.00
  -10   20    8     -1.29      0.00
  -10   18    8     -0.69      0.00
  -10   16    8      0.12      0.00
  -10   14    8      0.15      0.00
  -10   12    8      0.72      0.00
  -10   10    8      1.75      0.00
  -10    8    8      1.31      0.00
  -10    6    8     -1.21      0.00
  -10    4    8     -0.19      0.00
  -10    2    8      1.83      0.00
  -10    0    8      1.50      0.00
  -10   34    9      0.97      0.00
  -10   32    9      0.04      0.00
  -10   30    9     -1.11      0.00
  -10   28    9     -0.04      0.00
  -10   26    9      1.08      0.00
  -10   24    9      0.39      0.00
  -10   22    9     -0.63      0.00
  -10   20    9     -0.65      0.00
  -10   18    9      0.59      0.00
  -10   16    9      0.65      0.00
  -10   14    9     -0.30      0.00
  -10   12    9     -0.17      0.00
  -10   10    9     -0.25      0.00
  -10    8    9     -0.20      0.00
  -10    6    9     -0.85      0.00
  -10    4    9     -2.01      0.00
  -10    2    9     -1.03      0.00
  -10   34   10      0.14      0.00
  -10   32   10      0.13      0.00
  -10   30   10     -0.27      0.00
  -10   28   10     -0.04      0.00
  -10   26   10      0.34      0.00
  -10   24   10     -0.93      0.00
  -10   22   10     -1.28      0.00
  -10   20   10     -0.49      0.00
  -10   18   10     -0.32      0.00
  -10   16   10     -0.06      0.00
  -10   14   10      0.13      0.00
  -10   12   10     -0.11      0.00
  -10   10   10     -1.08      0.00
  -10    8   10     -1.56      0.00
  -10    6   10     -0.56      0.00
  -10    4   10     -0.16      0.00
  -10    2   10     -0.36      0.00
  -10    0   10     -0.30      0.00
  -10   32   11      0.13      0.00
  -10   30   11      0.50      0.00
  -10   28   11     -0.09      0.00
  -10   26   11      0.00      0.00
  -10   24   11     -0.18      0.00
  -10   22   11      0.04      0.00
  -10   20   11      1.34      0.00
  -10   18   11      0.66      0.00
  -10   16   11     -0.03      0.00
  -10   14   11      0.55      0.00
  -10   12   11      0.24      0.00
  -10   10   11      0.22      0.00
  -10    8   11      0.31      0.00
  -10    6   11     -0.98      0.00
  -10    4   11     -1.64      0.00
  -10    2   11     -0.59      0.00
  -10   32   12     -0.34      0.00
  -10   30   12      0.03      0.00
  -10   28   12      0.14      0.00
  -10   26   12      0.04      0.00
  -10   24   12      0.18      0.00
  -10   22   12     -0.64      0.00
  -10   20   12     -0.72      0.00
  -10   18   12     -0.54      0.00
  -10   16   12     -0.91      0.00
  -10   14   12     -0.33      0.00
  -10   12   12     -0.22      0.00
  -10   10   12     -0.33      0.00
  -10    8   12      0.35      0.00
  -10    6   12     -0.16      0.00
  -10    4   12     -1.36      0.00
  -10    2   12     -0.41      0.00
  -10    0   12      0.93      0.00
  -10   30   13      0.31      0.00
  -10   28   13      0.59      0.00
  -10   26   13     -0.55      0.00
  -10   24   13     -0.81      0.00
  -10   22   13      0.10      0.00
  -10   20   13     -0.36      0.00
  -10   18   13     -0.63      0.00
  -10   16   13     -0.17      0.00
  -10   14   13      0.07      0.00
  -10   12   13      0.17      0.00
  -10   10   13     -0.33      0.00
  -10    8   13     -0.60      0.00
  -10    6   13      0.31      0.00
  -10    4   13      0.74      0.00
  -10    2   13     -0.01      0.00
  -10   28   14      0.00      0.00
  -10   26   14      0.12      0.00
  -10   24   14     -0.56      0.00
  -10   22   14     -0.14      0.00
  -10   20   14      0.55      0.00
  -10   18   14      0.27      0.00
  -10   16   14     -0.07      0.00
  -10   14   14     -0.32      0.00
  -10   12   14     -0.38      0.00
  -10   10   14     -0.36      0.00
  -10    8   14     -0.42      0.00
  -10    6   14     -0.18      0.00
  -10    4   14      0.18      0.00
  -10    2   14      0.27      0.00
  -10    0   14      0.21      0.00
  -10   26   15      0.00      0.00
  -10   24   15      0.44      0.00
  -10   22   15      0.57      0.00
  -10   20   15      0.04      0.00
  -10   18   15     -0.20      0.00
  -10   16   15     -0.28      0.00
  -10   14   15     -0.19      0.00
  -10   12   15      0.52      0.00
  -10   10   15      1.11      0.00
  -10    8   15      0.78      0.00
  -10    6   15      0.25      0.00
  -10    4   15      0.20      0.00
  -10    2   15      0.20      0.00
  -10   24   16      0.25      0.00
  -10   22   16      0.49      0.00
  -10   20   16     -0.30      0.00
  -10   18   16     -0.34      0.00
  -10   16   16      0.63      0.00
  -10   14   16      0.39      0.00
  -10   12   16     -0.43      0.00
  -10   10   16     -0.45      0.00
  -10    8   16     -0.41      0.00
  -10    6   16     -0.41      0.00
  -10    4   16     -0.02      0.00
  -10    2   16     -0.09      0.00
  -10    0   16     -0.44      0.00
  -10   22   17     -0.48      0.00
  -10   20   17      0.40      0.00
  -10   18   17      0.50      0.00
  -10   16   17     -0.43      0.00
  -10   14   17     -0.89      0.00
  -10   12   17     -0.42      0.00
  -10   10   17      0.44      0.00
  -10    8   17      0.69      0.00
  -10    6   17      0.02      0.00
  -10    4   17     -0.62      0.00
  -10    2   17     -0.43      0.00
  -10   18   18      0.22      0.00
  -10   16   18     -0.73      0.00
  -10   14   18     -0.53      0.00
  -10   12   18      0.60      0.00
  -10   10   18      0.36      0.00
  -10    8   18     -0.92      0.00
  -10    6   18     -1.24      0.00
  -10    4   18     -0.56      0.00
  -10    2   18     -0.44      0.00
  -10    0   18     -0.69      0.00
  -10   14   19     -0.20      0.00
  -10   12   19     -0.91      0.00
  -10   10   19     -0.72      0.00
  -10    8   19      0.45      0.00
  -10    6   19      0.86      0.00
  -10    4   19      0.18      0.00
  -10    2   19     -0.19      0.00
  -10    8   20     -0.07      0.00
  -10    6   20      0.11      0.00
  -10    4   20      0.56      0.00
  -10    2   20      0.52      0.00
  -10    0   20      0.40      0.00
   11    5   12      0.15      0.00
   11    7   12     -1.08      0.00
   11    9   12     -1.41      0.00
   11   11   12     -0.92      0.00
   11    1   11     -0.26      0.00
   11    3   11     -1.25      0.00
   11    5   11     -1.68      0.00
   11    7   11     -0.85      0.00
   11    9   11     -0.05      0.00
   11   11   11      0.19      0.00
   11   13   11     -0.14      0.00
   11   15   11     -0.43      0.00
   11   17   11     -0.12      0.00
   11    1   10     -1.03      0.00
   11    3   10     -0.71      0.00
   11    5   10     -0.11      0.00
   11    7   10      0.64      0.00
   11    9   10      0.64      0.00
   11   11   10      0.39      0.00
   11   13   10      0.57      0.00
   11   15   10      0.68      0.00
   11   17   10      0.64      0.00
   11   19   10      0.45      0.00
   11    3    9      0.53      0.00
   11    1    9      0.37      0.00
   11    5    9      0.04      0.00
   11    7    9      0.18      0.00
   11    9    9      0.61      0.00
   11   11    9      0.25      0.00
   11   13    9     -0.22      0.00
   11   15    9     -0.24      0.00
   11   17    9      0.40      0.00
   11   19    9      0.67      0.00
   11   21    9     -0.24      0.00
   11   23    9     -0.64      0.00
   11   25    8      0.29      0.00
   11   23    8     -0.68      0.00
   11   21    8     -1.91      0.00
   11   19    8     -1.25      0.00
   11    9    8      0.42      0.00
   11    7    8     -0.30      0.00
   11    5    8     -0.70      0.00
   11    3    8     -0.52      0.00
   11    1    8     -0.39      0.00
   11   11    8     -0.21      0.00
   11   13    8     -0.78      0.00
   11   15    8      0.14      0.00
   11   17    8      0.18      0.00
   11   27    7     -0.04      0.00
   11   25    7      0.27      0.00
   11   23    7      1.02      0.00
   11   21    7      0.12      0.00
   11   19    7     -1.20      0.00
   11   17    7      0.13      0.00
   11   15    7      0.43      0.00
   11   13    7     -1.31      0.00
   11   11    7     -1.15      0.00
   11    9    7      0.11      0.00
   11    7    7      1.24      0.00
   11    5    7      1.56      0.00
   11    3    7      0.36      0.00
   11    1    7     -0.26      0.00
   11   29    6     -0.02      0.00
   11   27    6     -0.22      0.00
   11   25    6      0.31      0.00
   11   23    6      1.08      0.00
   11   21    6      0.51      0.00
   11   19    6     -0.32      0.00
   11   17    6     -0.17      0.00
   11   15    6      0.17      0.00
   11   13    6      0.62      0.00
   11   11    6     -0.64      0.00
   11    9    6     -1.66      0.00
   11    7    6      0.24      0.00
   11    5    6      1.55      0.00
   11    3    6      0.83      0.00
   11    1    6     -0.09      0.00
   11   29    5      0.19      0.00
   11   27    5     -0.36      0.00
   11   25    5     -0.51      0.00
   11   23    5      0.00      0.00
   11   21    5      0.14      0.00
   11   19    5      0.12      0.00
   11   17    5     -1.53      0.00
   11   15    5     -1.25      0.00
   11   13    5      1.85      0.00
   11   11    5      2.40      0.00
   11    9    5      1.32      0.00
   11    7    5     -0.17      0.00
   11    5    5     -1.03      0.00
   11    3    5      0.22      0.00
   11    1    5      0.57      0.00
   11   31    4     -0.02      0.00
   11   29    4     -0.17      0.00
   11   27    4     -0.44      0.00
   11   25    4      0.48      0.00
   11   23    4      0.30      0.00
   11   21    4     -0.12      0.00
   11   19    4     -0.13      0.00
   11   17    4     -1.58      0.00
   11   15    4     -2.25      0.00
   11   13    4     -1.67      0.00
   11   11    4      0.59      0.00
   11    9    4      2.29      0.00
   11    7    4      1.09      0.00
   11    5    4      0.41      0.00
   11    3    4      0.51      0.00
   11    1    4      0.48      0.00
   11   31    3      0.56      0.00
   11   29    3     -0.12      0.00
   11   27    3      0.12      0.00
   11   25    3      0.63      0.00
   11   23    3      0.33      0.00
   11   21    3      1.30      0.00
   11   19    3      0.17      0.00
   11   17    3     -1.02      0.00
   11   15    3     -0.51      0.00
   11   13    3     -0.86      0.00
   11   11    3     -1.54      0.00
   11    9    3     -2.87      0.00
   11    7    3     -2.42      0.00
   11    5    3     -0.88      0.00
   11    3    3     -0.56      0.00
   11    1    3     -0.20      0.00
   11   33    2      0.17      0.00
   11   31    2     -0.22      0.00
   11   29    2     -0.32      0.00
   11   27    2      0.50      0.00
   11   25    2     -0.42      0.00
   11   23    2      0.51      0.00
   11   21    2      1.98      0.00
   11   19    2      1.16      0.00
   11   17    2      0.83      0.00
   11   15    2      0.44      0.00
   11   13    2      1.03      0.00
   11   11    2      0.89      0.00
   11    9    2     -0.56      0.00
   11    7    2     -1.74      0.00
   11    5    2     -2.94      0.00
   11    3    2     -1.09      0.00
   11    1    2      1.75      0.00
   11   33    1     -0.21      0.00
   11   31    1     -0.11      0.00
   11   29    1      0.59      0.00
   11   27    1     -0.28      0.00
   11   25    1     -0.87      0.00
   11   23    1      0.69      0.00
   11   21    1      0.72      0.00
   11   19    1      1.45      0.00
   11   17    1      1.28      0.00
   11   15    1     -0.08      0.00
   11   13    1      0.74      0.00
   11   11    1      2.15      0.00
   11    9    1      2.30      0.00
   11    7    1     -0.42      0.00
   11    5    1     -2.05      0.00
   11    3    1     -1.77      0.00
   11    1    1     -1.03      0.00
   11   33    0     -0.17      0.00
   11   31    0     -0.57      0.00
   11   29    0      0.16      0.00
   11   27    0      0.37      0.00
   11   25    0      0.20      0.00
   11   23    0     -1.55      0.00
   11   21    0     -1.05      0.00
   11   19    0      1.23      0.00
   11   17    0      0.94      0.00
   11   15    0      0.05      0.00
   11   13    0     -1.64      0.00
   11   11    0     -0.41      0.00
   11    9    0      2.10      0.00
   11    7    0      1.23      0.00
   11    5    0      0.12      0.00
   11    3    0     -0.04      0.00
   11    1    0      1.70      0.00
  -11   35    1      0.39      0.00
  -11   33    1      0.52      0.00
  -11   31    1     -0.02      0.00
  -11   29    1     -0.11      0.00
  -11   27    1     -0.86      0.00
  -11   25    1     -0.37      0.00
  -11   23    1      1.50      0.00
  -11   21    1      0.74      0.00
  -11   19    1      0.37      0.00
  -11   17    1     -0.06      0.00
  -11   15    1      0.58      0.00
  -11   13    1      2.29      0.00
  -11   11    1      1.47      0.00
  -11    9    1     -0.17      0.00
  -11    7    1     -2.23      0.00
  -11    5    1     -0.77      0.00
  -11    3    1      1.42      0.00
  -11    1    1      0.42      0.00
  -11   35    2     -0.33      0.00
  -11   33    2     -0.63      0.00
  -11   31    2     -1.05      0.00
  -11   29    2     -0.67      0.00
  -11   27    2      0.47      0.00
  -11   25    2      0.40      0.00
  -11   23    2      1.59      0.00
  -11   21    2      0.99      0.00
  -11   19    2     -0.80      0.00
  -11   17    2     -0.15      0.00
  -11   15    2     -0.01      0.00
  -11   13    2      0.50      0.00
  -11   11    2     -1.10      0.00
  -11    9    2     -1.49      0.00
  -11    7    2      1.91      0.00
  -11    5    2      3.21      0.00
  -11    3    2      2.35      0.00
  -11    1    2     -0.78      0.00
  -11   35    3     -0.05      0.00
  -11   33    3     -0.13      0.00
  -11   31    3      0.90      0.00
  -11   29    3      0.70      0.00
  -11   27    3      0.47      0.00
  -11   25    3     -0.27      0.00
  -11   23    3     -1.02      0.00
  -11   21    3      0.12      0.00
  -11   19    3     -1.50      0.00
  -11   17    3     -2.60      0.00
  -11   15    3     -1.20      0.00
  -11   13    3      0.88      0.00
  -11   11    3      1.32      0.00
  -11    9    3     -1.65      0.00
  -11    7    3     -0.37      0.00
  -11    5    3      2.11      0.00
  -11    3    3      2.15      0.00
  -11    1    3      1.34      0.00
  -11   35    4      0.99      0.00
  -11   33    4     -0.04      0.00
  -11   31    4     -0.41      0.00
  -11   29    4      0.25      0.00
  -11   27    4     -0.27      0.00
  -11   25    4      0.34      0.00
  -11   23    4     -0.19      0.00
  -11   21    4     -0.04      0.00
  -11   19    4      1.60      0.00
  -11   17    4      1.57      0.00
  -11   15    4      1.11      0.00
  -11   13    4     -0.12      0.00
  -11   11    4      0.63      0.00
  -11    9    4      0.47      0.00
  -11    7    4     -0.59      0.00
  -11    5    4      0.14      0.00
  -11    3    4     -2.19      0.00
  -11    1    4     -3.76      0.00
  -11   35    5      0.28      0.00
  -11   33    5     -0.54      0.00
  -11   31    5     -0.97      0.00
  -11   29    5      0.95      0.00
  -11   27    5      1.57      0.00
  -11   25    5      0.67      0.00
  -11   23    5      0.24      0.00
  -11   21    5     -0.85      0.00
  -11   19    5      0.14      0.00
  -11   17    5      0.40      0.00
  -11   15    5     -1.23      0.00
  -11   13    5     -2.63      0.00
  -11   11    5     -1.57      0.00
  -11    9    5      1.51      0.00
  -11    7    5      0.19      0.00
  -11    5    5     -0.67      0.00
  -11    3    5      0.14      0.00
  -11    1    5     -0.28      0.00
  -11   35    6     -0.90      0.00
  -11   33    6     -0.26      0.00
  -11   31    6      0.06      0.00
  -11   29    6     -0.64      0.00
  -11   27    6      0.26      0.00
  -11   25    6      0.60      0.00
  -11   23    6      0.41      0.00
  -11   21    6     -0.12      0.00
  -11   19    6     -0.23      0.00
  -11   17    6      0.28      0.00
  -11   15    6     -0.18      0.00
  -11   13    6      0.17      0.00
  -11   11    6      0.33      0.00
  -11    9    6      1.62      0.00
  -11    7    6      1.97      0.00
  -11    5    6      0.14      0.00
  -11    3    6      0.71      0.00
  -11    1    6      0.25      0.00
  -11   33    7      0.16      0.00
  -11   31    7      0.23      0.00
  -11   29    7      0.04      0.00
  -11   27    7      0.57      0.00
  -11   25    7      0.48      0.00
  -11   23    7     -0.73      0.00
  -11   21    7     -0.53      0.00
  -11   19    7      0.20      0.00
  -11   17    7      0.89      0.00
  -11   15    7      0.11      0.00
  -11   13    7     -1.22      0.00
  -11   11    7     -1.34      0.00
  -11    9    7     -0.32      0.00
  -11    7    7      1.27      0.00
  -11    5    7     -1.26      0.00
  -11    3    7     -3.28      0.00
  -11    1    7     -1.17      0.00
  -11   33    8      0.13      0.00
  -11   31    8     -0.29      0.00
  -11   29    8      0.15      0.00
  -11   27    8      0.62      0.00
  -11   25    8     -0.32      0.00
  -11   23    8     -1.63      0.00
  -11   21    8     -0.14      0.00
  -11   19    8      1.22      0.00
  -11   17    8      0.11      0.00
  -11   15    8     -0.81      0.00
  -11   13    8     -1.21      0.00
  -11   11    8     -1.17      0.00
  -11    9    8     -1.71      0.00
  -11    7    8     -1.33      0.00
  -11    5    8      0.07      0.00
  -11    3    8     -0.03      0.00
  -11    1    8      0.71      0.00
  -11   33    9     -0.60      0.00
  -11   31    9      0.67      0.00
  -11   29    9      0.68      0.00
  -11   27    9     -0.65      0.00
  -11   25    9     -0.66      0.00
  -11   23    9      0.11      0.00
  -11   21    9      0.52      0.00
  -11   19    9      0.29      0.00
  -11   17    9     -0.53      0.00
  -11   15    9      0.00      0.00
  -11   13    9      0.51      0.00
  -11   11    9      0.18      0.00
  -11    9    9      0.19      0.00
  -11    7    9     -0.15      0.00
  -11    5    9      0.71      0.00
  -11    3    9      1.73      0.00
  -11    1    9      0.83      0.00
  -11   31   10      0.07      0.00
  -11   29   10      0.41      0.00
  -11   27   10     -0.59      0.00
  -11   25   10     -0.55      0.00
  -11   23   10      1.03      0.00
  -11   21   10      0.88      0.00
  -11   19   10      0.11      0.00
  -11   17   10     -0.12      0.00
  -11   15   10     -0.33      0.00
  -11   13   10     -0.17      0.00
  -11   11   10      0.04      0.00
  -11    9   10      0.61      0.00
  -11    7   10      0.72      0.00
  -11    5   10      0.15      0.00
  -11    3   10      0.58      0.00
  -11    1   10      1.51      0.00
  -11   31   11     -0.31      0.00
  -11   29   11     -0.31      0.00
  -11   27   11     -0.22      0.00
  -11   25   11     -0.59      0.00
  -11   23   11      0.19      0.00
  -11   21   11     -0.24      0.00
  -11   19   11     -1.61      0.00
  -11   17   11     -1.07      0.00
  -11   15   11     -0.22      0.00
  -11   13   11      0.10      0.00
  -11   11   11     -0.26      0.00
  -11    9   11     -0.96      0.00
  -11    7   11      0.72      0.00
  -11    5   11      3.27      0.00
  -11    3   11      2.69      0.00
  -11    1   11      0.63      0.00
  -11   29   12      0.05      0.00
  -11   27   12      0.10      0.00
  -11   25   12      0.02      0.00
  -11   23   12      0.54      0.00
  -11   21   12      1.29      0.00
  -11   19   12      0.66      0.00
  -11   17   12      0.61      0.00
  -11   15   12      1.25      0.00
  -11   13   12      0.95      0.00
  -11   11   12      0.17      0.00
  -11    9   12     -0.53      0.00
  -11    7   12      0.03      0.00
  -11    5   12      1.50      0.00
  -11    3   12      0.91      0.00
  -11    1   12     -1.70      0.00
  -11   29   13     -0.53      0.00
  -11   27   13     -0.38      0.00
  -11   25   13      0.45      0.00
  -11   23   13     -0.23      0.00
  -11   21   13     -0.74      0.00
  -11   19   13      0.17      0.00
  -11   17   13      0.59      0.00
  -11   15   13      0.25      0.00
  -11   13   13     -0.10      0.00
  -11   11   13      0.04      0.00
  -11    9   13      0.49      0.00
  -11    7   13      0.11      0.00
  -11    5   13     -1.02      0.00
  -11    3   13     -1.12      0.00
  -11    1   13     -0.33      0.00
  -11   27   14      0.15      0.00
  -11   25   14      0.74      0.00
  -11   23   14      0.71      0.00
  -11   21   14     -0.35      0.00
  -11   19   14     -0.55      0.00
  -11   17   14      0.02      0.00
  -11   15   14      0.20      0.00
  -11   13   14      0.08      0.00
  -11   11   14      0.32      0.00
  -11    9   14      0.98      0.00
  -11    7   14      1.03      0.00
  -11    5   14      0.10      0.00
  -11    3   14     -0.63      0.00
  -11    1   14     -0.45      0.00
  -11   25   15      0.15      0.00
  -11   23   15     -0.25      0.00
  -11   21   15     -0.15      0.00
  -11   19   15     -0.08      0.00
  -11   17   15     -0.22      0.00
  -11   15   15     -0.02      0.00
  -11   13   15     -0.20      0.00
  -11   11   15     -0.93      0.00
  -11    9   15     -1.06      0.00
  -11    7   15     -0.51      0.00
  -11    5   15     -0.26      0.00
  -11    3   15     -0.60      0.00
  -11    1   15     -0.43      0.00
  -11   23   16     -0.42      0.00
  -11   21   16     -0.41      0.00
  -11   19   16     -0.07      0.00
  -11   17   16     -0.29      0.00
  -11   15   16     -0.25      0.00
  -11   13   16      0.32      0.00
  -11   11   16      0.33      0.00
  -11    9   16     -0.01      0.00
  -11    7   16     -0.25      0.00
  -11    5   16      0.00      0.00
  -11    3   16      0.66      0.00
  -11    1   16      0.99      0.00
  -11   19   17      0.00      0.00
  -11   17   17      0.28      0.00
  -11   15   17      0.38      0.00
  -11   13   17      0.27      0.00
  -11   11   17     -0.13      0.00
  -11    9   17     -0.61      0.00
  -11    7   17     -0.46      0.00
  -11    5   17      0.58      0.00
  -11    3   17      1.77      0.00
  -11    1   17      1.08      0.00
  -11   15   18      0.60      0.00
  -11   13   18      0.22      0.00
  -11   11   18     -0.02      0.00
  -11    9   18      0.45      0.00
  -11    7   18      1.37      0.00
  -11    5   18      1.35      0.00
  -11    3   18      0.29      0.00
  -11    1   18     -0.13      0.00
  -11   11   19      0.68      0.00
  -11    9   19      0.21      0.00
  -11    7   19     -0.93      0.00
  -11    5   19     -1.09      0.00
  -11    3   19     -0.51      0.00
  -11    1   19     -0.13      0.00
   12    2   11     -0.09      0.00
   12    4   11      0.74      0.00
   12    6   11      0.92      0.00
   12    8   11      0.23      0.00
   12   10   11      0.04      0.00
   12    0   10      1.30      0.00
   12    2   10      1.29      0.00
   12    4   10      0.95      0.00
   12    6   10     -0.02      0.00
   12    8   10     -0.66      0.00
   12   10   10     -0.66      0.00
   12   12   10     -0.86      0.00
   12   14   10     -1.06      0.00
   12    4    9     -0.88      0.00
   12    2    9     -0.95      0.00
   12    6    9     -0.84      0.00
   12    8    9     -1.36      0.00
   12   10    9     -1.24      0.00
   12   12    9     -0.54      0.00
   12   14    9      0.18      0.00
   12   16    9      0.22      0.00
   12   18    9     -0.34      0.00
   12   10    8     -0.17      0.00
   12    8    8     -0.15      0.00
   12    6    8      0.36      0.00
   12    4    8      0.06      0.00
   12    2    8     -0.69      0.00
   12    0    8     -1.06      0.00
   12   12    8      0.96      0.00
   12   14    8      1.28      0.00
   12   16    8      0.46      0.00
   12   18    8      0.38      0.00
   12   20    8      1.31      0.00
   12   24    7     -0.89      0.00
   12   22    7     -0.62      0.00
   12   20    7      0.25      0.00
   12   18    7      0.53      0.00
   12   16    7      0.09      0.00
   12   14    7      1.05      0.00
   12   12    7      1.58      0.00
   12   10    7      0.36      0.00
   12    8    7     -0.57      0.00
   12    6    7     -0.82      0.00
   12    4    7     -0.19      0.00
   12    2    7      0.58      0.00
   12   26    6     -0.13      0.00
   12   24    6     -0.97      0.00
   12   22    6     -1.62      0.00
   12   20    6     -0.69      0.00
   12   18    6      0.23      0.00
   12   16    6      0.37      0.00
   12   14    6      0.83      0.00
   12   12    6      1.01      0.00
   12   10    6      1.06      0.00
   12    8    6      0.29      0.00
   12    6    6     -1.03      0.00
   12    4    6     -1.18      0.00
   12    2    6     -0.28      0.00
   12    0    6      0.26      0.00
   12   26    5      0.81      0.00
   12   24    5      0.34      0.00
   12   22    5     -0.71      0.00
   12   20    5     -0.92      0.00
   12   18    5     -0.55      0.00
   12   16    5      0.46      0.00
   12   14    5     -0.52      0.00
   12   12    5     -1.48      0.00
   12   10    5     -0.02      0.00
   12    8    5      0.82      0.00
   12    6    5      0.98      0.00
   12    4    5      1.01      0.00
   12    2    5      0.43      0.00
   12   28    4      0.36      0.00
   12   26    4      0.64      0.00
   12   24    4      0.38      0.00
   12   22    4      0.85      0.00
   12   20    4      0.15      0.00
   12   18    4     -0.13      0.00
   12   16    4      0.35      0.00
   12   14    4     -1.03      0.00
   12   12    4     -2.25      0.00
   12   10    4     -2.34      0.00
   12    8    4     -0.81      0.00
   12    6    4      1.20      0.00
   12    4    4      1.07      0.00
   12    2    4     -0.05      0.00
   12    0    4     -0.51      0.00
   12   30    3      0.05      0.00
   12   28    3      0.42      0.00
   12   26    3     -0.46      0.00
   12   24    3      0.30      0.00
   12   22    3      0.87      0.00
   12   20    3     -0.11      0.00
   12   18    3      1.06      0.00
   12   16    3      1.30      0.00
   12   14    3      0.32      0.00
   12   12    3     -0.39      0.00
   12   10    3     -1.36      0.00
   12    8    3     -1.11      0.00
   12    6    3     -0.31      0.00
   12    4    3      0.64      0.00
   12    2    3      1.05      0.00
   12   30    2      0.55      0.00
   12   28    2      0.01      0.00
   12   26    2     -0.37      0.00
   12   24    2      0.69      0.00
   12   22    2     -0.81      0.00
   12   20    2     -1.24      0.00
   12   18    2     -0.05      0.00
   12   16    2      0.59      0.00
   12   14    2      1.32      0.00
   12   12    2      0.40      0.00
   12   10    2     -0.31      0.00
   12    8    2      0.03      0.00
   12    6    2      0.85      0.00
   12    4    2      1.07      0.00
   12    2    2     -1.44      0.00
   12    0    2     -3.36      0.00
   12   30    1     -0.45      0.00
   12   28    1     -1.05      0.00
   12   26    1      0.04      0.00
   12   24    1     -0.35      0.00
   12   22    1     -1.02      0.00
   12   20    1     -0.26      0.00
   12   18    1     -1.49      0.00
   12   16    1     -0.49      0.00
   12   14    1      1.93      0.00
   12   12    1      1.62      0.00
   12   10    1      0.03      0.00
   12    8    1     -0.57      0.00
   12    6    1      0.84      0.00
   12    4    1      2.27      0.00
   12    2    1      2.26      0.00
   12   32    0      0.79      0.00
   12   30    0      0.06      0.00
   12   28    0     -0.62      0.00
   12   26    0     -0.43      0.00
   12   24    0     -0.95      0.00
   12   22    0     -0.44      0.00
   12   20    0     -1.36      0.00
   12   18    0     -1.78      0.00
   12   16    0     -0.92      0.00
   12   14    0     -0.67      0.00
   12   12    0      0.54      0.00
   12   10    0      0.53      0.00
   12    8    0      0.38      0.00
   12    6    0      0.84      0.00
   12    4    0      0.27      0.00
   12    2    0     -0.85      0.00
   12    0    0     -1.60      0.00
  -12   32    1     -0.59      0.00
  -12   30    1      0.26      0.00
  -12   28    1     -0.02      0.00
  -12   26    1      0.53      0.00
  -12   24    1     -0.21      0.00
  -12   22    1     -1.08      0.00
  -12   20    1      0.07      0.00
  -12   18    1      0.18      0.00
  -12   16    1      0.54      0.00
  -12   14    1     -0.03      0.00
  -12   12    1     -0.57      0.00
  -12   10    1      0.39      0.00
  -12    8    1      0.87      0.00
  -12    6    1     -0.07      0.00
  -12    4    1     -2.03      0.00
  -12    2    1     -1.66      0.00
  -12   32    2      0.13      0.00
  -12   30    2      0.77      0.00
  -12   28    2      0.24      0.00
  -12   26    2     -0.60      0.00
  -12   24    2      0.00      0.00
  -12   22    2     -0.50      0.00
  -12   20    2      0.39      0.00
  -12   18    2      0.62      0.00
  -12   16    2     -0.33      0.00
  -12   14    2     -0.50      0.00
  -12   12    2     -0.96      0.00
  -12   10    2     -0.08      0.00
  -12    8    2     -0.58      0.00
  -12    6    2     -2.01      0.00
  -12    4    2     -1.84      0.00
  -12    2    2     -0.05      0.00
  -12    0    2      1.57      0.00
  -12   32    3     -0.35      0.00
  -12   30    3     -0.98      0.00
  -12   28    3      0.19      0.00
  -12   26    3      0.24      0.00
  -12   24    3      0.72      0.00
  -12   22    3      0.65      0.00
  -12   20    3     -0.38      0.00
  -12   18    3      0.52      0.00
  -12   16    3      0.47      0.00
  -12   14    3      0.02      0.00
  -12   12    3     -0.58      0.00
  -12   10    3      0.27      0.00
  -12    8    3      1.07      0.00
  -12    6    3     -1.29      0.00
  -12    4    3     -1.81      0.00
  -12    2    3     -0.81      0.00
  -12   32    4      0.80      0.00
  -12   30    4      0.43      0.00
  -12   28    4      0.21      0.00
  -12   26    4      0.13      0.00
  -12   24    4     -1.07      0.00
  -12   22    4     -0.09      0.00
  -12   20    4     -0.62      0.00
  -12   18    4     -1.86      0.00
  -12   16    4     -1.68      0.00
  -12   14    4     -0.78      0.00
  -12   12    4      0.32      0.00
  -12   10    4      0.01      0.00
  -12    8    4      0.78      0.00
  -12    6    4      0.65      0.00
  -12    4    4      0.38      0.00
  -12    2    4      1.80      0.00
  -12    0    4      2.25      0.00
  -12   32    5      1.33      0.00
  -12   30    5      1.07      0.00
  -12   28    5     -1.43      0.00
  -12   26    5     -1.42      0.00
  -12   24    5     -0.94      0.00
  -12   22    5     -0.01      0.00
  -12   20    5      0.93      0.00
  -12   18    5     -0.49      0.00
  -12   16    5     -0.09      0.00
  -12   14    5      2.02      0.00
  -12   12    5      3.26      0.00
  -12   10    5      0.78      0.00
  -12    8    5     -1.48      0.00
  -12    6    5     -0.07      0.00
  -12    4    5     -0.74      0.00
  -12    2    5     -1.47      0.00
  -12   32    6     -0.32      0.00
  -12   30    6      0.01      0.00
  -12   28    6     -0.41      0.00
  -12   26    6     -1.39      0.00
  -12   24    6     -0.71      0.00
  -12   22    6     -0.80      0.00
  -12   20    6     -0.53      0.00
  -12   18    6     -0.39      0.00
  -12   16    6     -0.10      0.00
  -12   14    6      0.36      0.00
  -12   12    6      0.07      0.00
  -12   10    6     -0.40      0.00
  -12    8    6     -2.24      0.00
  -12    6    6     -1.81      0.00
  -12    4    6     -0.08      0.00
  -12    2    6      0.44      0.00
  -12    0    6      0.94      0.00
  -12   32    7     -0.81      0.00
  -12   30    7     -0.81      0.00
  -12   28    7      0.09      0.00
  -12   26    7      0.03      0.00
  -12   24    7      0.72      0.00
  -12   22    7      1.05      0.00
  -12   20    7      0.61      0.00
  -12   18    7      0.71      0.00
  -12   16    7      0.41      0.00
  -12   14    7      0.68      0.00
  -12   12    7      0.50      0.00
  -12   10    7      0.21      0.00
  -12    8    7     -0.37      0.00
  -12    6    7     -0.64      0.00
  -12    4    7      1.24      0.00
  -12    2    7      1.43      0.00
  -12   32    8      0.06      0.00
  -12   30    8      0.54      0.00
  -12   28    8      0.53      0.00
  -12   26    8      0.04      0.00
  -12   24    8      0.46      0.00
  -12   22    8      1.06      0.00
  -12   20    8     -0.31      0.00
  -12   18    8     -0.72      0.00
  -12   16    8     -0.03      0.00
  -12   14    8      0.26      0.00
  -12   12    8      0.08      0.00
  -12   10    8     -0.22      0.00
  -12    8    8      0.71      0.00
  -12    6    8      0.53      0.00
  -12    4    8     -0.01      0.00
  -12    2    8      0.71      0.00
  -12    0    8      1.08      0.00
  -12   30    9     -0.14      0.00
  -12   28    9      0.03      0.00
  -12   26    9      0.01      0.00
  -12   24    9     -0.29      0.00
  -12   22    9      0.23      0.00
  -12   20    9      0.12      0.00
  -12   18    9     -0.28      0.00
  -12   16    9     -0.05      0.00
  -12   14    9     -0.31      0.00
  -12   12    9      0.08      0.00
  -12   10    9      0.46      0.00
  -12    8    9      0.58      0.00
  -12    6    9      1.06      0.00
  -12    4    9      0.63      0.00
  -12    2    9      0.14      0.00
  -12   30   10     -0.37      0.00
  -12   28   10     -0.48      0.00
  -12   26   10      0.78      0.00
  -12   24   10      0.57      0.00
  -12   22   10     -0.28      0.00
  -12   20   10      0.12      0.00
  -12   18   10      0.12      0.00
  -12   16   10     -0.02      0.00
  -12   14   10      0.01      0.00
  -12   12   10     -0.08      0.00
  -12   10   10      0.05      0.00
  -12    8   10      0.08      0.00
  -12    6   10      0.54      0.00
  -12    4   10      0.35      0.00
  -12    2   10     -1.57      0.00
  -12    0   10     -2.86      0.00
  -12   28   11     -0.12      0.00
  -12   26   11      0.76      0.00
  -12   24   11      0.96      0.00
  -12   22   11     -0.27      0.00
  -12   20   11      0.27      0.00
  -12   18   11      1.21      0.00
  -12   16   11      0.35      0.00
  -12   14   11     -0.44      0.00
  -12   12   11     -0.08      0.00
  -12   10   11      0.98      0.00
  -12    8   11      0.76      0.00
  -12    6   11     -1.39      0.00
  -12    4   11     -2.24      0.00
  -12    2   11     -0.95      0.00
  -12   28   12     -0.33      0.00
  -12   26   12     -0.07      0.00
  -12   24   12     -0.20      0.00
  -12   22   12     -1.32      0.00
  -12   20   12     -1.32      0.00
  -12   18   12      0.06      0.00
  -12   16   12      0.00      0.00
  -12   14   12     -0.76      0.00
  -12   12   12     -0.22      0.00
  -12   10   12      0.87      0.00
  -12    8   12      0.85      0.00
  -12    6   12     -0.36      0.00
  -12    4   12     -0.98      0.00
  -12    2   12      0.04      0.00
  -12    0   12      1.01      0.00
  -12   26   13      0.14      0.00
  -12   24   13      0.16      0.00
  -12   22   13      0.86      0.00
  -12   20   13      0.58      0.00
  -12   18   13     -0.19      0.00
  -12   16   13      0.04      0.00
  -12   14   13      0.37      0.00
  -12   12   13      0.11      0.00
  -12   10   13     -0.18      0.00
  -12    8   13     -0.31      0.00
  -12    6   13     -0.25      0.00
  -12    4   13     -0.07      0.00
  -12    2   13     -0.12      0.00
  -12   24   14     -0.93      0.00
  -12   22   14     -0.40      0.00
  -12   20   14      0.55      0.00
  -12   18   14      0.59      0.00
  -12   16   14      0.20      0.00
  -12   14   14     -0.03      0.00
  -12   12   14     -0.32      0.00
  -12   10   14     -0.75      0.00
  -12    8   14     -1.08      0.00
  -12    6   14     -0.84      0.00
  -12    4   14      0.03      0.00
  -12    2   14      0.40      0.00
  -12    0   14      0.20      0.00
  -12   22   15     -0.23      0.00
  -12   20   15      0.16      0.00
  -12   18   15      0.74      0.00
  -12   16   15      0.59      0.00
  -12   14   15     -0.01      0.00
  -12   12   15      0.11      0.00
  -12   10   15      0.58      0.00
  -12    8   15      0.53      0.00
  -12    6   15     -0.20      0.00
  -12    4   15     -0.45      0.00
  -12    2   15      0.10      0.00
  -12   20   16      0.48      0.00
  -12   18   16      0.23      0.00
  -12   16   16     -0.25      0.00
  -12   14   16     -0.58      0.00
  -12   12   16     -0.20      0.00
  -12   10   16      0.13      0.00
  -12    8   16      0.30      0.00
  -12    6   16      0.34      0.00
  -12    4   16     -0.47      0.00
  -12    2   16     -0.56      0.00
  -12    0   16     -0.06      0.00
  -12   16   17     -0.15      0.00
  -12   14   17      0.35      0.00
  -12   12   17      0.21      0.00
  -12   10   17     -0.02      0.00
  -12    8   17      0.06      0.00
  -12    6   17      0.18      0.00
  -12    4   17     -0.85      0.00
  -12    2   17     -1.84      0.00
  -12   12   18     -0.53      0.00
  -12   10   18     -0.46      0.00
  -12    8   18     -0.58      0.00
  -12    6   18     -1.16      0.00
  -12    4   18     -0.53      0.00
  -12    2   18      0.30      0.00
  -12    0   18      0.34      0.00
  -12    6   19      1.30      0.00
  -12    4   19      1.09      0.00
  -12    2   19      0.48      0.00
   13    1   10      0.01      0.00
   13    3   10     -0.22      0.00
   13    5   10     -0.32      0.00
   13    5    9      0.38      0.00
   13    3    9      0.50      0.00
   13    1    9      0.31      0.00
   13    7    9      0.56      0.00
   13    9    9      0.46      0.00
   13   11    9     -0.01      0.00
   13   13    8     -0.85      0.00
   13   11    8     -0.38      0.00
   13    9    8     -0.32      0.00
   13    7    8     -0.50      0.00
   13    5    8     -0.22      0.00
   13    3    8      0.51      0.00
   13    1    8      1.45      0.00
   13   15    8     -0.73      0.00
   13   19    7      0.55      0.00
   13   17    7      0.28      0.00
   13   15    7      0.04      0.00
   13   13    7     -0.37      0.00
   13   11    7     -0.40      0.00
   13    9    7     -0.26      0.00
   13    7    7      0.00      0.00
   13    5    7      0.16      0.00
   13    3    7     -0.26      0.00
   13    1    7     -0.31      0.00
   13   21    6      0.72      0.00
   13   19    6     -0.05      0.00
   13   17    6     -0.22      0.00
   13   15    6     -0.23      0.00
   13   13    6     -0.67      0.00
   13   11    6     -0.26      0.00
   13    9    6      0.11      0.00
   13    7    6      0.03      0.00
   13    5    6      0.20      0.00
   13    3    6      0.21      0.00
   13    1    6     -0.32      0.00
   13   23    5      0.45      0.00
   13   21    5      0.50      0.00
   13   19    5     -0.06      0.00
   13   17    5     -0.13      0.00
   13   15    5     -0.38      0.00
   13   13    5      0.14      0.00
   13   11    5     -0.17      0.00
   13    9    5     -0.87      0.00
   13    7    5     -0.15      0.00
   13    5    5      0.26      0.00
   13    3    5     -0.10      0.00
   13    1    5     -0.13      0.00
   13   25    4     -0.35      0.00
   13   23    4     -0.36      0.00
   13   21    4     -0.35      0.00
   13   19    4      0.72      0.00
   13   17    4      0.24      0.00
   13   15    4      0.35      0.00
   13   13    4      1.99      0.00
   13   11    4      1.83      0.00
   13    9    4      0.59      0.00
   13    7    4     -0.95      0.00
   13    5    4     -1.62      0.00
   13    3    4     -0.32      0.00
   13    1    4      1.03      0.00
   13   27    3     -0.28      0.00
   13   25    3      0.24      0.00
   13   23    3     -1.02      0.00
   13   21    3     -0.56      0.00
   13   19    3      0.25      0.00
   13   17    3     -0.52      0.00
   13   15    3      0.02      0.00
   13   13    3      0.09      0.00
   13   11    3      0.52      0.00
   13    9    3      1.81      0.00
   13    7    3      1.51      0.00
   13    5    3      0.69      0.00
   13    3    3      0.00      0.00
   13    1    3     -0.22      0.00
   13   27    2      0.42      0.00
   13   25    2     -0.48      0.00
   13   23    2     -0.84      0.00
   13   21    2      1.20      0.00
   13   19    2      0.82      0.00
   13   17    2     -0.17      0.00
   13   15    2     -0.92      0.00
   13   13    2     -1.12      0.00
   13   11    2      0.48      0.00
   13    9    2      0.89      0.00
   13    7    2      0.26      0.00
   13    5    2     -0.63      0.00
   13    3    2     -0.29      0.00
   13    1    2      2.28      0.00
   13   29    1      0.24      0.00
   13   27    1      0.80      0.00
   13   25    1      0.02      0.00
   13   23    1      0.56      0.00
   13   21    1     -0.38      0.00
   13   19    1     -0.76      0.00
   13   17    1      0.67      0.00
   13   15    1     -1.07      0.00
   13   13    1     -2.44      0.00
   13   11    1     -1.34      0.00
   13    9    1      0.26      0.00
   13    7    1      1.07      0.00
   13    5    1     -0.14      0.00
   13    3    1     -1.13      0.00
   13    1    1     -0.55      0.00
   13   29    0      0.67      0.00
   13   27    0      0.54      0.00
   13   25    0      0.95      0.00
   13   23    0      1.68      0.00
   13   21    0      0.89      0.00
   13   19    0      1.32      0.00
   13   17    0      0.72      0.00
   13   15    0      0.06      0.00
   13   13    0     -0.17      0.00
   13   11    0     -1.12      0.00
   13    9    0     -0.84      0.00
   13    7    0     -0.96      0.00
   13    5    0     -0.82      0.00
   13    3    0      0.15      0.00
   13    1    0      0.02      0.00
  -13   29    1     -0.25      0.00
  -13   27    1      0.35      0.00
  -13   25    1     -0.96      0.00
  -13   23    1     -0.38      0.00
  -13   21    1     -0.23      0.00
  -13   19    1     -0.74      0.00
  -13   17    1      0.03      0.00
  -13   15    1     -0.21      0.00
  -13   13    1      0.14      0.00
  -13   11    1      0.47      0.00
  -13    9    1      0.46      0.00
  -13    7    1      0.68      0.00
  -13    5    1      0.43      0.00
  -13    3    1      0.52      0.00
  -13    1    1      0.37      0.00
  -13   29    2     -0.76      0.00
  -13   27    2      0.07      0.00
  -13   25    2      0.07      0.00
  -13   23    2     -0.56      0.00
  -13   21    2      0.32      0.00
  -13   19    2      0.03      0.00
  -13   17    2      0.92      0.00
  -13   15    2      1.48      0.00
  -13   13    2      0.97      0.00
  -13   11    2      0.62      0.00
  -13    9    2     -0.30      0.00
  -13    7    2      0.19      0.00
  -13    5    2      0.71      0.00
  -13    3    2     -0.06      0.00
  -13    1    2     -0.70      0.00
  -13   29    3      0.22      0.00
  -13   27    3     -0.92      0.00
  -13   25    3      0.19      0.00
  -13   23    3      0.00      0.00
  -13   21    3      0.51      0.00
  -13   19    3      1.07      0.00
  -13   17    3      0.21      0.00
  -13   15    3     -0.04      0.00
  -13   13    3     -0.12      0.00
  -13   11    3      0.23      0.00
  -13    9    3     -0.82      0.00
  -13    7    3     -0.80      0.00
  -13    5    3      0.81      0.00
  -13    3    3     -0.02      0.00
  -13    1    3     -0.58      0.00
  -13   31    4     -0.56      0.00
  -13   29    4      0.32      0.00
  -13   27    4     -0.10      0.00
  -13   25    4      0.93      0.00
  -13   23    4      1.47      0.00
  -13   21    4     -0.16      0.00
  -13   19    4      0.34      0.00
  -13   17    4      0.57      0.00
  -13   15    4      0.48      0.00
  -13   13    4      0.10      0.00
  -13   11    4     -0.64      0.00
  -13    9    4     -0.93      0.00
  -13    7    4     -1.18      0.00
  -13    5    4      0.23      0.00
  -13    3    4      0.57      0.00
  -13    1    4     -0.93      0.00
  -13   31    5     -1.17      0.00
  -13   29    5     -0.26      0.00
  -13   27    5      1.14      0.00
  -13   25    5      0.59      0.00
  -13   23    5      0.62      0.00
  -13   21    5     -0.73      0.00
  -13   19    5     -0.55      0.00
  -13   17    5      1.13      0.00
  -13   15    5      0.37      0.00
  -13   13    5     -1.21      0.00
  -13   11    5     -1.40      0.00
  -13    9    5      1.12      0.00
  -13    7    5      1.43      0.00
  -13    5    5     -0.18      0.00
  -13    3    5      0.80      0.00
  -13    1    5      0.89      0.00
  -13   29    6     -0.39      0.00
  -13   27    6      0.89      0.00
  -13   25    6      0.88      0.00
  -13   23    6      0.49      0.00
  -13   21    6      1.15      0.00
  -13   19    6      0.73      0.00
  -13   17    6      0.60      0.00
  -13   15    6     -0.25      0.00
  -13   13    6     -0.90      0.00
  -13   11    6     -0.78      0.00
  -13    9    6      0.01      0.00
  -13    7    6      0.92      0.00
  -13    5    6     -0.40      0.00
  -13    3    6     -0.47      0.00
  -13    1    6      1.33      0.00
  -13   29    7      0.36      0.00
  -13   27    7     -0.36      0.00
  -13   25    7     -0.67      0.00
  -13   23    7     -1.29      0.00
  -13   21    7     -0.42      0.00
  -13   19    7     -0.62      0.00
  -13   17    7     -1.24      0.00
  -13   15    7     -0.53      0.00
  -13   13    7     -0.06      0.00
  -13   11    7      0.39      0.00
  -13    9    7      0.05      0.00
  -13    7    7      0.44      0.00
  -13    5    7      1.42      0.00
  -13    3    7      1.37      0.00
  -13    1    7      0.64      0.00
  -13   29    8     -0.50      0.00
  -13   27    8     -0.54      0.00
  -13   25    8      0.20      0.00
  -13   23    8     -0.23      0.00
  -13   21    8     -0.45      0.00
  -13   19    8      0.38      0.00
  -13   17    8     -0.02      0.00
  -13   15    8      0.03      0.00
  -13   13    8      0.62      0.00
  -13   11    8      1.06      0.00
  -13    9    8      0.58      0.00
  -13    7    8     -0.30      0.00
  -13    5    8      0.35      0.00
  -13    3    8     -0.35      0.00
  -13    1    8     -2.60      0.00
  -13   29    9     -0.23      0.00
  -13   27    9     -0.06      0.00
  -13   25    9      0.35      0.00
  -13   23    9      0.06      0.00
  -13   21    9     -0.83      0.00
  -13   19    9     -0.14      0.00
  -13   17    9      0.30      0.00
  -13   15    9     -0.10      0.00
  -13   13    9     -0.24      0.00
  -13   11    9     -0.86      0.00
  -13    9    9     -0.78      0.00
  -13    7    9     -0.42      0.00
  -13    5    9     -0.68      0.00
  -13    3    9     -1.05      0.00
  -13    1    9     -0.66      0.00
  -13   27   10      0.36      0.00
  -13   25   10     -0.41      0.00
  -13   23   10     -0.10      0.00
  -13   21   10     -0.27      0.00
  -13   19   10     -0.67      0.00
  -13   17   10      0.10      0.00
  -13   15   10      0.45      0.00
  -13   13   10      0.55      0.00
  -13   11   10      0.68      0.00
  -13    9   10      0.40      0.00
  -13    7   10     -0.19      0.00
  -13    5   10     -0.88      0.00
  -13    3   10     -0.32      0.00
  -13    1   10      1.05      0.00
  -13   27   11      0.22      0.00
  -13   25   11     -0.95      0.00
  -13   23   11     -0.95      0.00
  -13   21   11     -0.12      0.00
  -13   19   11     -0.64      0.00
  -13   17   11     -0.52      0.00
  -13   15   11      0.51      0.00
  -13   13   11      0.33      0.00
  -13   11   11     -0.53      0.00
  -13    9   11     -0.81      0.00
  -13    7   11     -0.30      0.00
  -13    5   11     -0.16      0.00
  -13    3   11     -0.73      0.00
  -13    1   11     -0.47      0.00
  -13   25   12     -0.34      0.00
  -13   23   12      0.26      0.00
  -13   21   12      1.18      0.00
  -13   19   12      0.37      0.00
  -13   17   12     -0.78      0.00
  -13   15   12     -0.15      0.00
  -13   13   12      0.12      0.00
  -13   11   12     -0.82      0.00
  -13    9   12     -0.87      0.00
  -13    7   12     -0.21      0.00
  -13    5   12     -0.31      0.00
  -13    3   12     -0.39      0.00
  -13    1   12      0.23      0.00
  -13   23   13     -0.41      0.00
  -13   21   13     -0.41      0.00
  -13   19   13      0.07      0.00
  -13   17   13     -0.24      0.00
  -13   15   13     -0.88      0.00
  -13   13   13     -0.27      0.00
  -13   11   13      0.38      0.00
  -13    9   13      0.15      0.00
  -13    7   13      0.20      0.00
  -13    5   13      0.72      0.00
  -13    3   13      0.94      0.00
  -13    1   13      0.45      0.00
  -13   21   14      0.05      0.00
  -13   19   14     -0.57      0.00
  -13   17   14     -0.42      0.00
  -13   15   14      0.09      0.00
  -13   13   14      0.58      0.00
  -13   11   14      0.41      0.00
  -13    9   14     -0.37      0.00
  -13    7   14     -0.27      0.00
  -13    5   14      0.42      0.00
  -13    3   14      0.56      0.00
  -13    1   14      0.68      0.00
  -13   19   15     -0.19      0.00
  -13   17   15     -0.63      0.00
  -13   15   15     -0.53      0.00
  -13   13   15     -0.29      0.00
  -13   11   15     -0.03      0.00
  -13    9   15     -0.07      0.00
  -13    7   15      0.16      0.00
  -13    5   15      1.14      0.00
  -13    3   15      1.03      0.00
  -13    1   15      0.21      0.00
  -13   17   16     -0.19      0.00
  -13   15   16      0.18      0.00
  -13   13   16      0.18      0.00
  -13   11   16      0.08      0.00
  -13    9   16      0.30      0.00
  -13    7   16     -0.03      0.00
  -13    5   16      0.27      0.00
  -13    3   16      0.60      0.00
  -13    1   16     -0.90      0.00
  -13   13   17     -0.28      0.00
  -13   11   17      0.03      0.00
  -13    9   17      0.41      0.00
  -13    7   17      0.23      0.00
  -13    5   17     -0.19      0.00
  -13    3   17      0.80      0.00
  -13    1   17      0.88      0.00
  -13    7   18      0.60      0.00
  -13    5   18      0.64      0.00
  -13    3   18     -0.24      0.00
  -13    1   18     -0.23      0.00
   14    8    8      0.51      0.00
   14    6    8      0.08      0.00
   14    4    8     -0.10      0.00
   14    2    8     -0.37      0.00
   14    0    8     -0.75      0.00
   14   12    7     -0.60      0.00
   14   10    7      0.22      0.00
   14    8    7      0.52      0.00
   14    6    7     -0.22      0.00
   14    4    7     -0.70      0.00
   14    2    7     -0.47      0.00
   14   16    6     -0.09      0.00
   14   14    6     -0.23      0.00
   14   12    6     -0.18      0.00
   14   10    6     -0.50      0.00
   14    8    6     -0.07      0.00
   14    6    6      0.48      0.00
   14    4    6      0.22      0.00
   14    2    6      0.25      0.00
   14    0    6      0.53      0.00
   14   18    5      0.66      0.00
   14   16    5      0.33      0.00
   14   14    5      0.65      0.00
   14   12    5      0.46      0.00
   14   10    5      0.41      0.00
   14    8    5     -0.01      0.00
   14    6    5     -0.94      0.00
   14    4    5     -1.03      0.00
   14    2    5     -0.50      0.00
   14   20    4     -0.11      0.00
   14   18    4     -0.59      0.00
   14   16    4      0.37      0.00
   14   14    4      0.00      0.00
   14   12    4     -0.52      0.00
   14   10    4      0.12      0.00
   14    8    4      0.32      0.00
   14    6    4      0.53      0.00
   14    4    4      0.16      0.00
   14    2    4     -0.76      0.00
   14    0    4     -1.04      0.00
   14   22    3      0.65      0.00
   14   20    3     -0.21      0.00
   14   18    3     -0.30      0.00
   14   16    3     -0.19      0.00
   14   14    3     -0.36      0.00
   14   12    3      0.79      0.00
   14   10    3      0.44      0.00
   14    8    3     -0.35      0.00
   14    6    3     -0.28      0.00
   14    4    3     -0.56      0.00
   14    2    3     -0.30      0.00
   14   24    2      0.81      0.00
   14   22    2     -0.07      0.00
   14   20    2     -1.54      0.00
   14   18    2     -0.87      0.00
   14   16    2     -0.36      0.00
   14   14    2      0.52      0.00
   14   12    2      0.07      0.00
   14   10    2     -1.10      0.00
   14    8    2     -0.72      0.00
   14    6    2     -0.06      0.00
   14    4    2      1.26      0.00
   14    2    2      0.85      0.00
   14    0    2     -0.53      0.00
   14   24    1      0.18      0.00
   14   22    1     -0.16      0.00
   14   20    1      1.03      0.00
   14   18    1      0.34      0.00
   14   16    1     -0.39      0.00
   14   14    1      0.78      0.00
   14   12    1      0.29      0.00
   14   10    1     -0.63      0.00
   14    8    1     -1.65      0.00
   14    6    1     -1.65      0.00
   14    4    1     -0.26      0.00
   14    2    1     -0.18      0.00
   14   26    0      0.14      0.00
   14   24    0     -0.67      0.00
   14   22    0     -0.43      0.00
   14   20    0      0.39      0.00
   14   18    0     -0.21      0.00
   14   16    0      0.12      0.00
   14   14    0      0.02      0.00
   14   12    0      0.40      0.00
   14   10    0      0.39      0.00
   14    8    0     -0.55      0.00
   14    6    0     -0.01      0.00
   14    4    0      0.04      0.00
   14    2    0      0.98      0.00
   14    0    0      2.36      0.00
  -14   26    1     -0.07      0.00
  -14   24    1      1.15      0.00
  -14   22    1      0.13      0.00
  -14   20    1      0.41      0.00
  -14   18    1     -0.26      0.00
  -14   16    1     -1.26      0.00
  -14   14    1     -0.47      0.00
  -14   12    1     -0.44      0.00
  -14   10    1     -0.58      0.00
  -14    8    1     -0.73      0.00
  -14    6    1      0.60      0.00
  -14    4    1      2.13      0.00
  -14    2    1      0.88      0.00
  -14   26    2     -0.67      0.00
  -14   24    2     -0.07      0.00
  -14   22    2     -0.14      0.00
  -14   20    2     -0.73      0.00
  -14   18    2     -0.34      0.00
  -14   16    2     -1.02      0.00
  -14   14    2     -0.17      0.00
  -14   12    2      0.69      0.00
  -14   10    2      0.92      0.00
  -14    8    2      0.99      0.00
  -14    6    2     -0.19      0.00
  -14    4    2     -0.09      0.00
  -14    2    2      0.13      0.00
  -14    0    2     -0.53      0.00
  -14   28    3      0.43      0.00
  -14   26    3      0.26      0.00
  -14   24    3     -0.72      0.00
  -14   22    3      0.11      0.00
  -14   20    3     -0.71      0.00
  -14   18    3     -0.66      0.00
  -14   16    3      0.24      0.00
  -14   14    3      0.22      0.00
  -14   12    3     -0.42      0.00
  -14   10    3     -0.74      0.00
  -14    8    3      0.65      0.00
  -14    6    3      0.11      0.00
  -14    4    3     -0.58      0.00
  -14    2    3      1.00      0.00
  -14   28    4     -0.80      0.00
  -14   26    4     -0.08      0.00
  -14   24    4     -1.21      0.00
  -14   22    4     -0.67      0.00
  -14   20    4      0.09      0.00
  -14   18    4     -0.19      0.00
  -14   16    4      0.57      0.00
  -14   14    4     -0.02      0.00
  -14   12    4     -0.28      0.00
  -14   10    4      0.23      0.00
  -14    8    4      0.56      0.00
  -14    6    4      0.21      0.00
  -14    4    4     -1.06      0.00
  -14    2    4      0.08      0.00
  -14    0    4      1.74      0.00
  -14   28    5     -0.43      0.00
  -14   26    5     -0.22      0.00
  -14   24    5     -0.22      0.00
  -14   22    5     -0.51      0.00
  -14   20    5      0.68      0.00
  -14   18    5     -0.29      0.00
  -14   16    5     -1.01      0.00
  -14   14    5     -0.37      0.00
  -14   12    5      0.06      0.00
  -14   10    5     -0.24      0.00
  -14    8    5     -1.49      0.00
  -14    6    5     -0.24      0.00
  -14    4    5      1.03      0.00
  -14    2    5     -0.03      0.00
  -14   26    6     -0.32      0.00
  -14   24    6      0.22      0.00
  -14   22    6     -0.27      0.00
  -14   20    6     -0.36      0.00
  -14   18    6     -0.11      0.00
  -14   16    6     -0.49      0.00
  -14   14    6      0.54      0.00
  -14   12    6      0.89      0.00
  -14   10    6      0.51      0.00
  -14    8    6      0.09      0.00
  -14    6    6      0.57      0.00
  -14    4    6      1.41      0.00
  -14    2    6     -0.68      0.00
  -14    0    6     -2.64      0.00
  -14   26    7      0.18      0.00
  -14   24    7      0.92      0.00
  -14   22    7      0.64      0.00
  -14   20    7     -0.63      0.00
  -14   18    7      0.28      0.00
  -14   16    7      0.07      0.00
  -14   14    7     -0.77      0.00
  -14   12    7     -0.56      0.00
  -14   10    7     -0.37      0.00
  -14    8    7      0.31      0.00
  -14    6    7      0.11      0.00
  -14    4    7     -0.96      0.00
  -14    2    7     -1.21      0.00
  -14   26    8     -0.10      0.00
  -14   24    8     -0.41      0.00
  -14   22    8      0.46      0.00
  -14   20    8      0.16      0.00
  -14   18    8      0.10      0.00
  -14   16    8      0.87      0.00
  -14   14    8      0.17      0.00
  -14   12    8     -0.53      0.00
  -14   10    8     -0.50      0.00
  -14    8    8      0.39      0.00
  -14    6    8      0.61      0.00
  -14    4    8     -0.35      0.00
  -14    2    8     -0.12      0.00
  -14    0    8      0.52      0.00
  -14   26    9      0.15      0.00
  -14   24    9     -0.03      0.00
  -14   22    9      0.37      0.00
  -14   20    9      0.46      0.00
  -14   18    9     -0.56      0.00
  -14   16    9     -0.05      0.00
  -14   14    9      0.63      0.00
  -14   12    9      0.66      0.00
  -14   10    9      0.93      0.00
  -14    8    9      0.31      0.00
  -14    6    9     -0.73      0.00
  -14    4    9     -0.78      0.00
  -14    2    9     -0.05      0.00
  -14   24   10     -0.14      0.00
  -14   22   10     -0.40      0.00
  -14   20   10      0.37      0.00
  -14   18   10      0.48      0.00
  -14   16   10     -0.13      0.00
  -14   14   10     -0.12      0.00
  -14   12   10     -0.59      0.00
  -14   10   10     -0.86      0.00
  -14    8   10     -0.45      0.00
  -14    6   10     -0.10      0.00
  -14    4   10      0.21      0.00
  -14    2   10      0.78      0.00
  -14    0   10      1.13      0.00
  -14   24   11      0.83      0.00
  -14   22   11      0.82      0.00
  -14   20   11      0.75      0.00
  -14   18   11      1.22      0.00
  -14   16   11      0.47      0.00
  -14   14   11     -0.16      0.00
  -14   12   11      0.24      0.00
  -14   10   11      0.21      0.00
  -14    8   11     -0.27      0.00
  -14    6   11     -0.01      0.00
  -14    4   11      1.09      0.00
  -14    2   11      1.32      0.00
  -14   22   12     -0.16      0.00
  -14   20   12     -0.06      0.00
  -14   18   12      0.81      0.00
  -14   16   12      0.42      0.00
  -14   14   12     -0.63      0.00
  -14   12   12      0.13      0.00
  -14   10   12      0.55      0.00
  -14    8   12     -0.60      0.00
  -14    6   12     -0.14      0.00
  -14    4   12      1.69      0.00
  -14    2   12      1.28      0.00
  -14    0   12     -0.04      0.00
  -14   20   13      0.01      0.00
  -14   18   13     -0.08      0.00
  -14   16   13      0.43      0.00
  -14   14   13      0.10      0.00
  -14   12   13     -0.74      0.00
  -14   10   13     -0.42      0.00
  -14    8   13      0.12      0.00
  -14    6   13     -0.06      0.00
  -14    4   13     -0.46      0.00
  -14    2   13     -0.53      0.00
  -14   18   14     -0.11      0.00
  -14   16   14     -0.43      0.00
  -14   14   14     -0.74      0.00
  -14   12   14     -0.61      0.00
  -14   10   14      0.85      0.00
  -14    8   14      1.86      0.00
  -14    6   14      0.61      0.00
  -14    4   14     -0.70      0.00
  -14    2   14     -0.76      0.00
  -14    0   14     -0.53      0.00
  -14   16   15      0.32      0.00
  -14   14   15      0.97      0.00
  -14   12   15      0.48      0.00
  -14   10   15     -0.46      0.00
  -14    8   15     -0.07      0.00
  -14    6   15     -0.05      0.00
  -14    4   15     -0.56      0.00
  -14    2   15     -0.08      0.00
  -14   12   16      0.01      0.00
  -14   10   16     -0.54      0.00
  -14    8   16     -0.38      0.00
  -14    6   16     -0.03      0.00
  -14    4   16     -0.89      0.00
  -14    2   16     -0.09      0.00
  -14    0   16      1.38      0.00
  -14    6   17     -0.41      0.00
  -14    4   17     -0.16      0.00
  -14    2   17     -0.79      0.00
   15    7    6     -0.13      0.00
   15    5    6     -0.09      0.00
   15    3    6     -0.17      0.00
   15    1    6     -0.75      0.00
   15   11    5     -0.28      0.00
   15    9    5     -0.10      0.00
   15    7    5      0.13      0.00
   15    5    5      0.45      0.00
   15    3    5      0.51      0.00
   15    1    5      0.23      0.00
   15   15    4     -0.24      0.00
   15   13    4     -0.08      0.00
   15   11    4     -0.44      0.00
   15    9    4     -0.60      0.00
   15    7    4     -0.16      0.00
   15    5    4      0.17      0.00
   15    3    4      0.34      0.00
   15    1    4     -0.15      0.00
   15   17    3      0.02      0.00
   15   15    3      0.43      0.00
   15   13    3      0.22      0.00
   15   11    3     -0.53      0.00
   15    9    3     -0.19      0.00
   15    7    3     -0.29      0.00
   15    5    3     -0.13      0.00
   15    3    3      0.13      0.00
   15    1    3     -0.07      0.00
   15   19    2      0.67      0.00
   15   17    2      0.25      0.00
   15   15    2     -0.17      0.00
   15   13    2     -0.67      0.00
   15   11    2      0.42      0.00
   15    9    2      0.91      0.00
   15    7    2      0.62      0.00
   15    5    2     -0.22      0.00
   15    3    2     -1.62      0.00
   15    1    2     -0.81      0.00
   15   21    1      0.38      0.00
   15   19    1     -0.18      0.00
   15   17    1      0.42      0.00
   15   15    1     -0.03      0.00
   15   13    1     -0.08      0.00
   15   11    1      0.89      0.00
   15    9    1      1.25      0.00
   15    7    1      1.89      0.00
   15    5    1      0.86      0.00
   15    3    1     -0.02      0.00
   15    1    1      0.23      0.00
   15   21    0     -0.52      0.00
   15   19    0     -0.65      0.00
   15   17    0      0.19      0.00
   15   15    0      0.57      0.00
   15   13    0      0.67      0.00
   15   11    0     -0.28      0.00
   15    9    0      0.31      0.00
   15    7    0      0.67      0.00
   15    5    0     -0.03      0.00
   15    3    0     -0.22      0.00
   15    1    0     -2.08      0.00
  -15   23    1     -0.14      0.00
  -15   21    1      0.37      0.00
  -15   19    1     -0.10      0.00
  -15   17    1      1.03      0.00
  -15   15    1      0.57      0.00
  -15   13    1     -0.71      0.00
  -15   11    1     -0.72      0.00
  -15    9    1     -0.26      0.00
  -15    7    1      0.17      0.00
  -15    5    1     -1.29      0.00
  -15    3    1     -1.15      0.00
  -15    1    1      0.22      0.00
  -15   23    2      0.00      0.00
  -15   21    2      0.43      0.00
  -15   19    2      0.02      0.00
  -15   17    2     -0.58      0.00
  -15   15    2     -0.67      0.00
  -15   13    2     -1.54      0.00
  -15   11    2     -0.81      0.00
  -15    9    2     -0.29      0.00
  -15    7    2      0.32      0.00
  -15    5    2      0.81      0.00
  -15    3    2     -0.42      0.00
  -15    1    2     -0.19      0.00
  -15   23    3     -0.11      0.00
  -15   21    3     -0.53      0.00
  -15   19    3      0.64      0.00
  -15   17    3      0.09      0.00
  -15   15    3     -0.10      0.00
  -15   13    3      0.38      0.00
  -15   11    3      0.95      0.00
  -15    9    3      0.51      0.00
  -15    7    3     -0.47      0.00
  -15    5    3      0.55      0.00
  -15    3    3     -0.25      0.00
  -15    1    3     -1.10      0.00
  -15   23    4      0.59      0.00
  -15   21    4      0.13      0.00
  -15   19    4      0.74      0.00
  -15   17    4      0.26      0.00
  -15   15    4     -0.66      0.00
  -15   13    4      0.33      0.00
  -15   11    4      0.37      0.00
  -15    9    4      0.13      0.00
  -15    7    4     -0.08      0.00
  -15    5    4      0.25      0.00
  -15    3    4      0.71      0.00
  -15    1    4     -0.84      0.00
  -15   23    5      0.65      0.00
  -15   21    5      0.47      0.00
  -15   19    5     -0.12      0.00
  -15   17    5      0.39      0.00
  -15   15    5     -0.32      0.00
  -15   13    5     -0.15      0.00
  -15   11    5      0.24      0.00
  -15    9    5      0.47      0.00
  -15    7    5      1.02      0.00
  -15    5    5     -0.08      0.00
  -15    3    5     -0.40      0.00
  -15    1    5      0.14      0.00
  -15   23    6     -0.61      0.00
  -15   21    6      0.06      0.00
  -15   19    6     -0.62      0.00
  -15   17    6     -0.26      0.00
  -15   15    6      0.14      0.00
  -15   13    6     -0.47      0.00
  -15   11    6      0.12      0.00
  -15    9    6      0.47      0.00
  -15    7    6      0.14      0.00
  -15    5    6     -0.78      0.00
  -15    3    6     -1.08      0.00
  -15    1    6      0.27      0.00
  -15   23    7     -0.64      0.00
  -15   21    7      0.49      0.00
  -15   19    7      0.58      0.00
  -15   17    7     -0.03      0.00
  -15   15    7      1.56      0.00
  -15   13    7      1.38      0.00
  -15   11    7      0.18      0.00
  -15    9    7     -0.03      0.00
  -15    7    7     -0.91      0.00
  -15    5    7     -1.35      0.00
  -15    3    7     -0.50      0.00
  -15    1    7      0.07      0.00
  -15   23    8     -0.11      0.00
  -15   21    8     -0.89      0.00
  -15   19    8     -0.16      0.00
  -15   17    8     -0.48      0.00
  -15   15    8     -0.83      0.00
  -15   13    8     -0.33      0.00
  -15   11    8     -0.23      0.00
  -15    9    8     -0.06      0.00
  -15    7    8     -0.39      0.00
  -15    5    8     -0.50      0.00
  -15    3    8      0.55      0.00
  -15    1    8      1.71      0.00
  -15   21    9     -0.19      0.00
  -15   19    9      0.70      0.00
  -15   17    9      1.13      0.00
  -15   15    9     -0.44      0.00
  -15   13    9     -0.82      0.00
  -15   11    9     -0.39      0.00
  -15    9    9     -0.46      0.00
  -15    7    9      0.01      0.00
  -15    5    9      0.69      0.00
  -15    3    9      0.49      0.00
  -15    1    9      0.05      0.00
  -15   21   10      0.42      0.00
  -15   19   10     -0.24      0.00
  -15   17   10     -0.37      0.00
  -15   15   10     -0.67      0.00
  -15   13   10     -0.56      0.00
  -15   11   10      0.35      0.00
  -15    9   10      0.15      0.00
  -15    7   10     -0.24      0.00
  -15    5   10      0.39      0.00
  -15    3   10      0.35      0.00
  -15    1   10     -0.87      0.00
  -15   19   11     -1.09      0.00
  -15   17   11     -1.41      0.00
  -15   15   11     -0.52      0.00
  -15   13   11     -0.05      0.00
  -15   11   11      0.08      0.00
  -15    9   11      0.45      0.00
  -15    7   11      0.84      0.00
  -15    5   11      0.69      0.00
  -15    3   11      0.01      0.00
  -15    1   11     -0.20      0.00
  -15   19   12     -0.87      0.00
  -15   17   12     -0.79      0.00
  -15   15   12      0.74      0.00
  -15   13   12      0.88      0.00
  -15   11   12     -0.50      0.00
  -15    9   12      0.17      0.00
  -15    7   12      1.23      0.00
  -15    5   12     -0.40      0.00
  -15    3   12     -1.98      0.00
  -15    1   12     -1.10      0.00
  -15   17   13     -0.06      0.00
  -15   15   13      0.29      0.00
  -15   13   13      0.92      0.00
  -15   11   13      0.52      0.00
  -15    9   13     -0.03      0.00
  -15    7   13      0.22      0.00
  -15    5   13      0.30      0.00
  -15    3   13      0.28      0.00
  -15    1   13      0.20      0.00
  -15   13   14      0.77      0.00
  -15   11   14      0.17      0.00
  -15    9   14     -1.26      0.00
  -15    7   14     -1.05      0.00
  -15    5   14      0.17      0.00
  -15    3   14      0.03      0.00
  -15    1   14     -0.97      0.00
  -15    9   15      0.48      0.00
  -15    7   15     -0.74      0.00
  -15    5   15     -0.80      0.00
  -15    3   15     -0.72      0.00
  -15    1   15     -0.57      0.00
  -15    3   16      0.96      0.00
  -15    1   16     -0.50      0.00
   16    4    4     -0.09      0.00
   16    2    4      0.41      0.00
   16    0    4      1.10      0.00
   16   10    3     -0.30      0.00
   16    8    3     -0.39      0.00
   16    6    3     -0.13      0.00
   16    4    3      0.07      0.00
   16    2    3      0.46      0.00
   16   12    2      0.14      0.00
   16   10    2     -0.57      0.00
   16    8    2     -0.33      0.00
   16    6    2     -0.24      0.00
   16    4    2      0.47      0.00
   16    2    2      0.49      0.00
   16    0    2     -0.40      0.00
   16   14    1      0.63      0.00
   16   12    1     -0.35      0.00
   16   10    1     -0.88      0.00
   16    8    1     -1.00      0.00
   16    6    1     -0.97      0.00
   16    4    1      0.31      0.00
   16    2    1      0.30      0.00
   16   16    0     -0.24      0.00
   16   14    0     -0.67      0.00
   16   12    0     -0.13      0.00
   16   10    0      0.73      0.00
   16    8    0      0.04      0.00
   16    6    0      0.29      0.00
   16    4    0      0.02      0.00
   16    2    0     -0.33      0.00
   16    0    0      0.33      0.00
  -16   18    1      0.28      0.00
  -16   16    1      0.00      0.00
  -16   14    1      1.35      0.00
  -16   12    1      1.51      0.00
  -16   10    1      0.95      0.00
  -16    8    1     -0.35      0.00
  -16    6    1     -1.38      0.00
  -16    4    1     -0.87      0.00
  -16    2    1     -1.19      0.00
  -16   18    2      0.31      0.00
  -16   16    2      0.60      0.00
  -16   14    2      0.90      0.00
  -16   12    2      0.49      0.00
  -16   10    2     -0.84      0.00
  -16    8    2     -0.55      0.00
  -16    6    2     -0.59      0.00
  -16    4    2      0.12      0.00
  -16    2    2      1.02      0.00
  -16    0    2      0.68      0.00
  -16   18    3     -0.46      0.00
  -16   16    3      0.30      0.00
  -16   14    3      0.03      0.00
  -16   12    3      0.13      0.00
  -16   10    3      0.02      0.00
  -16    8    3      0.31      0.00
  -16    6    3     -0.08      0.00
  -16    4    3     -0.86      0.00
  -16    2    3      0.57      0.00
  -16   20    4      0.13      0.00
  -16   18    4     -0.79      0.00
  -16   16    4     -0.01      0.00
  -16   14    4      0.01      0.00
  -16   12    4     -0.64      0.00
  -16   10    4     -0.20      0.00
  -16    8    4     -0.32      0.00
  -16    6    4     -0.20      0.00
  -16    4    4     -0.49      0.00
  -16    2    4     -0.23      0.00
  -16    0    4      0.64      0.00
  -16   20    5     -0.07      0.00
  -16   18    5     -0.22      0.00
  -16   16    5      0.12      0.00
  -16   14    5      1.01      0.00
  -16   12    5      0.25      0.00
  -16   10    5      0.18      0.00
  -16    8    5     -0.20      0.00
  -16    6    5     -0.78      0.00
  -16    4    5      0.07      0.00
  -16    2    5      0.15      0.00
  -16   20    6     -0.19      0.00
  -16   18    6      0.68      0.00
  -16   16    6      0.20      0.00
  -16   14    6      0.41      0.00
  -16   12    6      0.44      0.00
  -16   10    6     -0.64      0.00
  -16    8    6     -0.64      0.00
  -16    6    6     -0.11      0.00
  -16    4    6      0.54      0.00
  -16    2    6      0.58      0.00
  -16    0    6      0.24      0.00
  -16   18    7      0.56      0.00
  -16   16    7     -0.21      0.00
  -16   14    7     -1.82      0.00
  -16   12    7     -0.51      0.00
  -16   10    7      0.11      0.00
  -16    8    7     -0.11      0.00
  -16    6    7      0.85      0.00
  -16    4    7      0.72      0.00
  -16    2    7     -0.32      0.00
  -16   18    8     -0.16      0.00
  -16   16    8      0.23      0.00
  -16   14    8      0.28      0.00
  -16   12    8      0.27      0.00
  -16   10    8      0.04      0.00
  -16    8    8     -0.84      0.00
  -16    6    8     -0.50      0.00
  -16    4    8      0.40      0.00
  -16    2    8      0.03      0.00
  -16    0    8     -0.60      0.00
  -16   18    9     -0.96      0.00
  -16   16    9     -0.52      0.00
  -16   14    9      0.66      0.00
  -16   12    9      0.24      0.00
  -16   10    9     -0.06      0.00
  -16    8    9      0.42      0.00
  -16    6    9      0.65      0.00
  -16    4    9      0.86      0.00
  -16    2    9      0.93      0.00
  -16   16   10      0.40      0.00
  -16   14   10      0.84      0.00
  -16   12   10      0.24      0.00
  -16   10   10     -0.29      0.00
  -16    8   10      0.44      0.00
  -16    6   10      0.46      0.00
  -16    4   10     -0.41      0.00
  -16    2   10     -0.26      0.00
  -16    0   10      0.23      0.00
  -16   14   11     -0.08      0.00
  -16   12   11     -0.30      0.00
  -16   10   11     -0.27      0.00
  -16    8   11      0.02      0.00
  -16    6   11     -0.29      0.00
  -16    4   11     -0.67      0.00
  -16    2   11     -0.36      0.00
  -16   12   12      0.25      0.00
  -16   10   12      1.04      0.00
  -16    8   12      0.06      0.00
  -16    6   12     -0.50      0.00
  -16    4   12      0.17      0.00
  -16    2   12      0.37      0.00
  -16    0   12     -0.18      0.00
  -16   10   13      0.40      0.00
  -16    8   13     -0.23      0.00
  -16    6   13     -0.90      0.00
  -16    4   13     -0.64      0.00
  -16    2   13     -0.38      0.00
  -16    6   14     -0.25      0.00
  -16    4   14      0.06      0.00
  -16    2   14      1.17      0.00
  -16    0   14      2.12      0.00
   17    3    1     -0.48      0.00
   17    1    1     -0.10      0.00
   17    7    0     -0.16      0.00
   17    5    0     -0.39      0.00
   17    3    0      0.71      0.00
   17    1    0      1.44      0.00
  -17    9    1     -0.03      0.00
  -17    7    1      1.35      0.00
  -17    5    1      1.98      0.00
  -17    3    1      1.33      0.00
  -17    1    1      0.65      0.00
  -17   11    2      0.47      0.00
  -17    9    2      0.45      0.00
  -17    7    2     -0.49      0.00
  -17    5    2     -0.26      0.00
  -17    3    2     -0.29      0.00
  -17    1    2      0.07      0.00
  -17   13    3     -0.59      0.00
  -17   11    3     -0.83      0.00
  -17    9    3     -0.22      0.00
  -17    7    3      0.17      0.00
  -17    5    3      1.09      0.00
  -17    3    3      0.91      0.00
  -17    1    3     -0.18      0.00
  -17   13    4      0.88      0.00
  -17   11    4      0.62      0.00
  -17    9    4      0.03      0.00
  -17    7    4      0.30      0.00
  -17    5    4      0.26      0.00
  -17    3    4      0.32      0.00
  -17    1    4     -0.41      0.00
  -17   13    5     -0.59      0.00
  -17   11    5     -0.37      0.00
  -17    9    5     -0.72      0.00
  -17    7    5      0.04      0.00
  -17    5    5      0.09      0.00
  -17    3    5     -0.62      0.00
  -17    1    5     -0.24      0.00
  -17   13    6     -0.81      0.00
  -17   11    6     -0.50      0.00
  -17    9    6      0.51      0.00
  -17    7    6      0.46      0.00
  -17    5    6      0.16      0.00
  -17    3    6     -0.04      0.00
  -17    1    6      0.32      0.00
  -17   13    7      0.86      0.00
  -17   11    7     -0.10      0.00
  -17    9    7      0.46      0.00
  -17    7    7      0.45      0.00
  -17    5    7     -0.12      0.00
  -17    3    7      0.65      0.00
  -17    1    7      0.71      0.00
  -17   11    8      0.18      0.00
  -17    9    8      0.54      0.00
  -17    7    8      0.95      0.00
  -17    5    8      0.07      0.00
  -17    3    8     -0.82      0.00
  -17    1    8     -0.69      0.00
  -17   11    9      0.30      0.00
  -17    9    9     -0.08      0.00
  -17    7    9     -0.60      0.00
  -17    5    9     -0.67      0.00
  -17    3    9     -0.76      0.00
  -17    1    9     -0.45      0.00
  -17    9   10      0.57      0.00
  -17    7   10      0.01      0.00
  -17    5   10     -0.16      0.00
  -17    3   10     -0.35      0.00
  -17    1   10     -0.90      0.00
  -17    7   11     -0.81      0.00
  -17    5   11     -0.67      0.00
  -17    3   11     -0.49      0.00
  -17    1   11     -0.28      0.00
    0    2    0    271.73      0.00
    7    3    0     -3.33      0.00
    5    1    1      7.63      0.00
    7    1    1      0.23      0.00
   -2    6    1    -51.92      0.00
    4   12    1    -27.06      0.00
   -6    0    2    -17.91      0.00
    0    0    2    -64.11      0.00
    4    0    2     63.52      0.00
   -8    8    2     -3.59      0.00
   -4    8    2      3.88      0.00
    4    8    2      9.30      0.00
   -4    4    3      5.46      0.00
   -1   13    3     -3.15      0.00
   -8    0    4     17.63      0.00
   -2    0    4    -43.81      0.00
   -3    3    4    -29.83      0.00
    0   12    4    -12.90      0.00
   -2   14    4      1.30      0.00
   -5    5    5      2.51      0.00
   -4    8    5     17.43      0.00
   -8    0    6     -4.09      0.00
    8    0    6     -1.28      0.00
   -6    2    6      4.40      0.00
   10    2    6      0.64      0.00
   -1    9    6     28.05      0.00
   -6    0    8      3.66      0.00
   -6    2    8     -1.02      0.00
   -4    4    8      0.50      0.00
   -4   12    8     -2.38      0.00
    0   12    8      1.58      0.00
   -5    7    9      1.97      0.00
    4    0   10     -4.15      0.00
    6    0   10     -1.15      0.00
    8    0   10     -0.55      0.00
    7    1   10     -0.68      0.00
   -5    5   10      3.52      0.00
    7    1   11      0.90      0.00
    9    1   11      0.69      0.00
    4    0   12      4.88      0.00
    6    0   12     -3.35      0.00
    8    0   12      3.65      0.00
   10    0   12      3.50      0.00
    7    1   12      2.05      0.00
    9    1   12     -5.94      0.00
    6    2   12     -3.83      0.00
    8    2   12      2.63      0.00
   10    2   12      2.61      0.00
   -4   12   12      0.39      0.00
    5    1   13     -0.07      0.00
    7    1   13      0.29      0.00
    9    1   13     -0.33      0.00
    6    2   13     -0.58      0.00
    8    2   13     -0.03      0.00
    7    3   13      1.04      0.00
    9    3   13     -0.56      0.00
    6    6   13     -3.60      0.00
    4    0   14      2.23      0.00
    6    0   14      0.67      0.00
    8    0   14     -3.56      0.00
    5    1   14     -2.89      0.00
    7    1   14      2.74      0.00
    6    2   14      0.43      0.00
    8    2   14     -2.67      0.00
    7    3   14      1.36      0.00
    6    4   14      0.13      0.00
    8    4   14     -0.95      0.00
    3    1   15     -0.03      0.00
    5    1   15     -0.56      0.00
    7    1   15      0.96      0.00
    4    2   15      1.00      0.00
    6    2   15     -0.47      0.00
    5    3   15     -1.30      0.00
    7    3   15      1.96      0.00
    6    4   15     -0.55      0.00
    7    5   15      1.45      0.00
    4    0   16     -3.73      0.00
    6    0   16      0.07      0.00
    5    1   16      3.03      0.00
    6    2   16      0.19      0.00
    5    3   16      1.43      0.00
    6    4   16      0.16      0.00
    5    1   17     -0.06      0.00
    4    2   17      0.14      0.00
    5    3   17      0.15      0.00
    3    1   18      0.51      0.00
    0    0    0      0.00      0.00
# SQUEEZE RESULTS (Version = 270319)
# Note: Data are Listed for all Voids in the P1 Unit Cell
# i.e. Centre of Gravity, Solvent Accessible Volume,
# Recovered number of Electrons in the Void and
# Details about the Squeezed Material
loop_
  _platon_squeeze_void_nr
  _platon_squeeze_void_average_x
  _platon_squeeze_void_average_y
  _platon_squeeze_void_average_z
  _platon_squeeze_void_volume
  _platon_squeeze_void_count_electrons
  _platon_squeeze_void_content
   1  0.000  0.500  0.678       804       268 ' '
   2  0.500  0.000  0.827       804       268 ' '
# Missing Reflections Below sin(th)/lambda = 0.25
loop_
  _platon_missing_refln_index_h
  _platon_missing_refln_index_k
  _platon_missing_refln_index_l
  _platon_missing_refln_theta
    0    2    0     1.071
    5    1    1     7.435
   -2    6    1     4.226
   -6    0    2     8.144
    0    0    2     2.319
    4    0    2     6.617
   -4    8    2     6.971
    4    8    2     7.896
   -4    4    3     6.169
   -1   13    3     7.768
   -2    0    4     4.755
   -3    3    4     5.627
    0   12    4     7.950
   -5    5    5     8.313
   -4    8    5     8.175
   -1    9    6     8.304
_platon_squeeze_void_probe_radius                  1.20
_platon_squeeze_details
)
TITL asflex_CH2 in C2/c
CELL   12.9200   32.6340   15.6170     90.00    105.16     90.00
SPGR C2/c
# Solvent Accessible Volume =      1600
# Electrons Found in S.A.V. =       536
# Note: Atoms in Void are Labelled as Cxxx and Qxxx for all Others
Q101 0.941 0.400 0.091 !       3.28 eA-3
C102 0.862 0.392 0.243 !       2.60 eA-3
C103 0.964 0.462 0.464 !       2.36 eA-3
C104 0.183 0.461 0.182 !       2.18 eA-3
C105 0.402 0.077 0.127 !       1.88 eA-3
C106 1.000 0.359 0.747 !       1.78 eA-3
C107 0.500 0.016 0.249 !       1.58 eA-3
Q108 0.207 0.463 0.362 !       1.26 eA-3
Q109 0.363 0.423 0.460 !       1.17 eA-3
Q110 0.301 0.253 0.467 !       0.70 eA-3
Q111 0.748 0.454 0.041 !       0.63 eA-3
Q112 0.918 0.308 0.735 !       0.57 eA-3
Q113 0.158 0.009 0.748 !       0.55 eA-3
Q114 0.356 0.452 0.081 !       0.53 eA-3
)
;
_shelx_fab_checksum              43304
loop_
_space_group_symop_operation_xyz
'x, y, z'
'-x, y, -z+1/2'
'x+1/2, y+1/2, z'
'-x+1/2, y+1/2, -z+1/2'
'-x, -y, -z'
'x, -y, z-1/2'
'-x+1/2, -y+1/2, -z'
'x+1/2, -y+1/2, z-1/2'
loop_
_atom_site_label
_atom_site_type_symbol
_atom_site_fract_x
_atom_site_fract_y
_atom_site_fract_z
_atom_site_U_iso_or_equiv
_atom_site_adp_type
_atom_site_occupancy
_atom_site_site_symmetry_order
_atom_site_calc_flag
_atom_site_refinement_flags_posn
_atom_site_refinement_flags_adp
_atom_site_refinement_flags_occupancy
_atom_site_disorder_assembly
_atom_site_disorder_group
Ni1 Ni 0.750000 0.750000 0.500000 0.05298(19) Uani 1 2 d S U P . .
N1 N 0.82988(19) 0.77184(7) 0.41097(16) 0.0632(5) Uani 1 1 d . U . . .
H1 H 0.841144 0.748775 0.373214 0.076 Uiso 1 1 calc R U . . .
N2 N 1.0095(2) 0.76256(10) 0.5150(2) 0.0711(6) Uani 1 1 d . U . . .
N3 N 0.88630(18) 0.72588(6) 0.58423(15) 0.0585(5) Uani 1 1 d . U . . .
H3 H 0.901388 0.699482 0.558663 0.070 Uiso 1 1 calc R U . . .
C1 C 0.7543(3) 0.80126(11) 0.3547(2) 0.0732(8) Uani 1 1 d . U . . .
H1A H 0.775740 0.806627 0.300036 0.088 Uiso 1 1 calc R U . . .
H1B H 0.755643 0.827258 0.386408 0.088 Uiso 1 1 calc R U . . .
C2 C 0.9370(2) 0.79040(10) 0.4547(2) 0.0715(7) Uani 1 1 d . U . . .
H2A H 0.971013 0.799288 0.408618 0.086 Uiso 1 1 calc R U . . .
H2B H 0.925853 0.814777 0.487842 0.086 Uiso 1 1 calc R U . . .
C3 C 0.9828(2) 0.75200(8) 0.5956(2) 0.0642(7) Uani 1 1 d . U . . .
H3A H 0.971565 0.777340 0.625661 0.077 Uiso 1 1 calc R U . . .
H3B H 1.043993 0.737716 0.634496 0.077 Uiso 1 1 calc R U . . .
C4 C 0.8582(2) 0.71673(10) 0.6676(2) 0.0686(7) Uani 1 1 d . U . . .
H4A H 0.860704 0.741857 0.702486 0.082 Uiso 1 1 calc R U . . .
H4B H 0.909436 0.697123 0.702841 0.082 Uiso 1 1 calc R U . . .
C5 C 1.0519(3) 0.72913(14) 0.4701(3) 0.0841(9) Uani 1 1 d . U . . .
H5A H 1.070625 0.740200 0.417738 0.101 Uiso 1 1 calc R U . . .
H5B H 0.995753 0.708484 0.449716 0.101 Uiso 1 1 calc R U . . .
C6 C 1.1475(4) 0.70930(18) 0.5285(4) 0.1067(14) Uani 1 1 d . U . . .
H6 H 1.205640 0.726583 0.553842 0.128 Uiso 1 1 calc R U . . .
C7 C 1.1599(6) 0.6713(2) 0.5484(5) 0.142(2) Uani 1 1 d . U . . .
H7A H 1.104326 0.652661 0.524887 0.170 Uiso 1 1 calc R U . . .
H7B H 1.224568 0.662078 0.586442 0.170 Uiso 1 1 calc R U . . .
Ni2 Ni 0.500000 0.500000 0.000000 0.0611(2) Uani 1 2 d S U P . .
N4 N 0.5795(4) 0.44892(10) 0.0569(2) 0.1029(11) Uani 1 1 d . U . . .
H4 H 0.599900 0.452954 0.121993 0.123 Uiso 1 1 calc R U . . .
N5 N 0.4419(5) 0.41253(15) 0.0706(3) 0.1392(17) Uani 1 1 d D U . . .
N6 N 0.3609(4) 0.48017(12) 0.0258(4) 0.1292(17) Uani 1 1 d . U . . .
H6A H 0.378714 0.489471 0.088262 0.155 Uiso 1 1 calc R U . . .
C8 C 0.6923(6) 0.4499(2) 0.0223(5) 0.145(2) Uani 1 1 d . U . . .
H8A H 0.751005 0.437420 0.067606 0.174 Uiso 1 1 calc R U . . .
H8B H 0.681648 0.433677 -0.032178 0.174 Uiso 1 1 calc R U . . .
C9 C 0.5340(7) 0.41094(16) 0.0397(4) 0.1377(19) Uani 1 1 d . U . . .
H9A H 0.583153 0.389686 0.070919 0.165 Uiso 1 1 calc R U . . .
H9B H 0.515448 0.405105 -0.024080 0.165 Uiso 1 1 calc R U . . .
C10 C 0.3553(6) 0.4390(2) 0.0438(7) 0.162(3) Uani 1 1 d . U . . .
H10A H 0.308484 0.426885 -0.009835 0.195 Uiso 1 1 calc R U . . .
H10B H 0.316068 0.437248 0.089627 0.195 Uiso 1 1 calc R U . . .
C11 C 0.2783(5) 0.5071(2) -0.0050(6) 0.141(2) Uani 1 1 d . U . . .
H11A H 0.235289 0.508127 0.038118 0.169 Uiso 1 1 calc R U . . .
H11B H 0.232408 0.496098 -0.060364 0.169 Uiso 1 1 calc R U . . .
C12 C 0.456182 0.409643 0.168292 0.181(3) Uani 1 1 d D U . A -1
H12A H 0.390755 0.419464 0.182164 0.217 Uiso 1 1 d . U . B -1
H12B H 0.515425 0.427608 0.198236 0.217 Uiso 1 1 d . U . C -1
C13 C 0.481050 0.363379 0.204247 0.225(5) Uani 1 1 d D U . A -1
H13 H 0.548985 0.353189 0.203900 0.270 Uiso 1 1 d . U . D -1
C14 C 0.420032 0.338156 0.233747 0.440(17) Uani 1 1 d D U . A -1
H14A H 0.351027 0.346350 0.235940 0.528 Uiso 1 1 d . U . E -1
H14B H 0.445065 0.311790 0.252809 0.528 Uiso 1 1 d . U . F -1
O1 O 0.71226(15) 0.69485(5) 0.42439(14) 0.0623(5) Uani 1 1 d . U . . .
O2 O 0.8617(2) 0.65829(8) 0.4673(2) 0.0994(10) Uani 1 1 d . U . . .
O3 O 0.5284(2) 0.53331(6) 0.12039(13) 0.0799(7) Uani 1 1 d . U . . .
O4 O 0.6234(4) 0.49146(8) 0.22527(19) 0.1357(17) Uani 1 1 d . U . . .
C15 C 0.7679(2) 0.66364(8) 0.4225(2) 0.0621(6) Uani 1 1 d . U . . .
C16 C 0.7166(2) 0.62908(7) 0.36114(16) 0.0544(5) Uani 1 1 d . U . . .
C17 C 0.7810(2) 0.59690(9) 0.3468(2) 0.0679(7) Uani 1 1 d . U . . .
H17 H 0.855282 0.597357 0.373162 0.081 Uiso 1 1 calc R U . . .
C18 C 0.7355(3) 0.56444(9) 0.2940(2) 0.0726(8) Uani 1 1 d . U . . .
H18 H 0.779628 0.543111 0.283795 0.087 Uiso 1 1 calc R U . . .
C19 C 0.6261(3) 0.56248(8) 0.25567(17) 0.0647(7) Uani 1 1 d . U . . .
C20 C 0.5587(2) 0.59430(6) 0.26888(14) 0.0524(5) Uani 1 1 d . U . . .
C21 C 0.60675(19) 0.62743(6) 0.32246(14) 0.0488(5) Uani 1 1 d . U . . .
H21 H 0.563272 0.649071 0.332384 0.059 Uiso 1 1 calc R U . . .
C22 C 0.5869(4) 0.52561(9) 0.1965(2) 0.0851(11) Uani 1 1 d . U . . .
N1S N 0.8067(7) 0.71847(19) 0.2295(4) 0.154(2) Uani 1 1 d . U . . .
C1S C 0.7559(5) 0.69340(18) 0.1840(4) 0.1071(13) Uani 1 1 d . U . . .
C2S C 0.6927(5) 0.66130(17) 0.1253(4) 0.1091(14) Uani 1 1 d . U . . .
H2S1 H 0.624727 0.672728 0.092035 0.164 Uiso 1 1 calc R U . . .
H2S2 H 0.679626 0.638561 0.161085 0.164 Uiso 1 1 calc R U . . .
H2S3 H 0.732437 0.651677 0.084431 0.164 Uiso 1 1 calc R U . . .
loop_
_atom_site_aniso_label
_atom_site_aniso_U_11
_atom_site_aniso_U_22
_atom_site_aniso_U_33
_atom_site_aniso_U_23
_atom_site_aniso_U_13
_atom_site_aniso_U_12
Ni1 0.0536(3) 0.0369(3) 0.0586(3) -0.00517(15) -0.0029(2) -0.00614(14)
N1 0.0629(12) 0.0503(11) 0.0689(13) -0.0018(9) 0.0038(10) -0.0083(9)
N2 0.0572(12) 0.0623(15) 0.0855(17) -0.0047(13) 0.0036(11) -0.0055(11)
N3 0.0579(11) 0.0418(10) 0.0658(12) -0.0054(8) -0.0020(9) -0.0041(8)
C1 0.0697(16) 0.0691(18) 0.0722(17) 0.0131(14) 0.0030(13) -0.0057(13)
C2 0.0622(14) 0.0624(16) 0.0816(18) 0.0021(14) 0.0037(13) -0.0135(12)
C3 0.0555(13) 0.0532(14) 0.0732(16) -0.0096(11) -0.0021(12) -0.0073(10)
C4 0.0681(15) 0.0605(16) 0.0649(14) 0.0015(12) -0.0046(12) -0.0031(12)
C5 0.077(2) 0.089(3) 0.086(2) -0.0091(18) 0.0220(17) 0.0012(17)
C6 0.089(3) 0.115(3) 0.119(3) 0.009(3) 0.033(2) 0.024(2)
C7 0.143(5) 0.125(5) 0.161(5) 0.015(4) 0.047(4) 0.051(4)
Ni2 0.0749(3) 0.0366(3) 0.0572(3) -0.01231(16) -0.0087(2) 0.00862(17)
N4 0.144(3) 0.0591(15) 0.0809(17) -0.0187(13) -0.0152(17) 0.0297(16)
N5 0.159(4) 0.100(3) 0.141(4) -0.049(3) 0.009(3) 0.010(3)
N6 0.120(3) 0.065(2) 0.213(5) -0.034(3) 0.062(3) -0.0049(18)
C8 0.184(5) 0.116(4) 0.131(4) -0.036(3) 0.035(4) 0.071(4)
C9 0.210(5) 0.073(3) 0.110(3) -0.013(2) 0.007(4) 0.045(3)
C10 0.127(4) 0.126(5) 0.227(8) 0.070(5) 0.034(5) -0.005(3)
C11 0.089(3) 0.131(5) 0.187(7) -0.002(4) 0.008(4) 0.000(3)
C12 0.252(10) 0.133(5) 0.148(5) -0.029(4) 0.037(5) 0.035(6)
C13 0.325(16) 0.147(6) 0.183(8) -0.016(5) 0.030(10) 0.059(8)
C14 0.62(4) 0.41(2) 0.277(18) 0.183(18) 0.08(3) -0.07(2)
O1 0.0609(9) 0.0400(8) 0.0745(12) -0.0134(8) -0.0026(8) -0.0037(7)
O2 0.0714(13) 0.0662(13) 0.131(2) -0.0372(14) -0.0265(14) 0.0117(10)
O3 0.1067(16) 0.0520(11) 0.0592(10) -0.0181(8) -0.0174(10) 0.0223(10)
O4 0.228(4) 0.0473(12) 0.0792(15) -0.0188(11) -0.053(2) 0.0359(18)
C15 0.0587(13) 0.0441(12) 0.0721(15) -0.0102(10) -0.0032(11) -0.0036(9)
C16 0.0623(12) 0.0399(11) 0.0545(11) -0.0062(8) 0.0034(10) 0.0007(9)
C17 0.0637(14) 0.0610(15) 0.0701(16) -0.0142(12) 0.0018(12) 0.0100(12)
C18 0.0840(18) 0.0551(15) 0.0671(15) -0.0162(12) -0.0004(14) 0.0203(13)
C19 0.0876(17) 0.0416(11) 0.0502(11) -0.0105(9) -0.0080(12) 0.0123(11)
C20 0.0730(14) 0.0329(9) 0.0422(9) -0.0012(7) -0.0014(9) 0.0009(9)
C21 0.0610(12) 0.0329(9) 0.0472(10) -0.0035(7) 0.0046(9) 0.0008(8)
C22 0.126(3) 0.0440(13) 0.0607(14) -0.0160(11) -0.0191(17) 0.0223(15)
N1S 0.205(6) 0.133(5) 0.133(4) -0.032(3) 0.059(4) -0.015(4)
C1S 0.119(4) 0.109(3) 0.105(3) 0.009(3) 0.051(3) 0.012(3)
C2S 0.123(4) 0.104(3) 0.107(3) 0.011(2) 0.041(3) 0.013(3)
loop_
_atom_type_symbol
_atom_type_description
_atom_type_scat_dispersion_real
_atom_type_scat_dispersion_imag
_atom_type_scat_source
C C 0.0019 0.0011 'International Tables Vol C Tables 4.2.6.8 and 6.1.1.4'
H H 0.0000 0.0000 'International Tables Vol C Tables 4.2.6.8 and 6.1.1.4'
N N 0.0040 0.0024 'International Tables Vol C Tables 4.2.6.8 and 6.1.1.4'
O O 0.0074 0.0043 'International Tables Vol C Tables 4.2.6.8 and 6.1.1.4'
Ni Ni 0.3348 0.8487 'International Tables Vol C Tables 4.2.6.8 and 6.1.1.4'
loop_
_geom_angle_atom_site_label_1
_geom_angle_atom_site_label_2
_geom_angle_atom_site_label_3
_geom_angle
_geom_angle_site_symmetry_1
_geom_angle_site_symmetry_3
N3 Ni1 N3 180.0 . 7_666
N3 Ni1 N1 93.88(10) . .
N3 Ni1 N1 86.12(10) 7_666 .
N3 Ni1 N1 86.13(10) . 7_666
N3 Ni1 N1 93.87(10) 7_666 7_666
N1 Ni1 N1 180.00(10) . 7_666
N3 Ni1 O1 93.69(8) . .
N3 Ni1 O1 86.31(8) 7_666 .
N1 Ni1 O1 90.03(9) . .
N1 Ni1 O1 89.97(9) 7_666 .
N3 Ni1 O1 86.31(8) . 7_666
N3 Ni1 O1 93.69(8) 7_666 7_666
N1 Ni1 O1 89.97(9) . 7_666
N1 Ni1 O1 90.03(9) 7_666 7_666
O1 Ni1 O1 180.0 . 7_666
C1 N1 C2 113.2(2) . .
C1 N1 Ni1 104.8(2) . .
C2 N1 Ni1 113.39(19) . .
C1 N1 H1 108.4 . .
C2 N1 H1 108.4 . .
Ni1 N1 H1 108.4 . .
C3 N2 C2 117.1(3) . .
C3 N2 C5 116.4(3) . .
C2 N2 C5 114.1(3) . .
C4 N3 C3 113.9(2) . .
C4 N3 Ni1 105.96(18) . .
C3 N3 Ni1 114.12(17) . .
C4 N3 H3 107.5 . .
C3 N3 H3 107.5 . .
Ni1 N3 H3 107.5 . .
N1 C1 C4 109.1(3) . 7_666
N1 C1 H1A 109.9 . .
C4 C1 H1A 109.9 7_666 .
N1 C1 H1B 109.9 . .
C4 C1 H1B 109.9 7_666 .
H1A C1 H1B 108.3 . .
N2 C2 N1 113.7(3) . .
N2 C2 H2A 108.8 . .
N1 C2 H2A 108.8 . .
N2 C2 H2B 108.8 . .
N1 C2 H2B 108.8 . .
H2A C2 H2B 107.7 . .
N2 C3 N3 114.9(2) . .
N2 C3 H3A 108.5 . .
N3 C3 H3A 108.5 . .
N2 C3 H3B 108.5 . .
N3 C3 H3B 108.5 . .
H3A C3 H3B 107.5 . .
N3 C4 C1 108.5(2) . 7_666
N3 C4 H4A 110.0 . .
C1 C4 H4A 110.0 7_666 .
N3 C4 H4B 110.0 . .
C1 C4 H4B 110.0 7_666 .
H4A C4 H4B 108.4 . .
N2 C5 C6 112.5(4) . .
N2 C5 H5A 109.1 . .
C6 C5 H5A 109.1 . .
N2 C5 H5B 109.1 . .
C6 C5 H5B 109.1 . .
H5A C5 H5B 107.8 . .
C7 C6 C5 127.3(6) . .
C7 C6 H6 116.4 . .
C5 C6 H6 116.4 . .
C6 C7 H7A 120.0 . .
C6 C7 H7B 120.0 . .
H7A C7 H7B 120.0 . .
N4 Ni2 N4 180.0 5_665 .
N4 Ni2 N6 88.6(2) 5_665 .
N4 Ni2 N6 91.4(2) . .
N4 Ni2 N6 91.4(2) 5_665 5_665
N4 Ni2 N6 88.6(2) . 5_665
N6 Ni2 N6 180.0 . 5_665
N4 Ni2 O3 94.71(11) 5_665 5_665
N4 Ni2 O3 85.29(11) . 5_665
N6 Ni2 O3 93.15(17) . 5_665
N6 Ni2 O3 86.85(17) 5_665 5_665
N4 Ni2 O3 85.28(11) 5_665 .
N4 Ni2 O3 94.72(11) . .
N6 Ni2 O3 86.85(17) . .
N6 Ni2 O3 93.15(17) 5_665 .
O3 Ni2 O3 180.00(14) 5_665 .
C9 N4 C8 108.5(4) . .
C9 N4 Ni2 120.9(4) . .
C8 N4 Ni2 103.0(3) . .
C9 N4 H4 107.9 . .
C8 N4 H4 107.9 . .
Ni2 N4 H4 107.9 . .
C10 N5 C9 127.7(6) . .
C10 N5 C12 102.8(5) . .
C9 N5 C12 117.5(5) . .
C11 N6 C10 128.3(6) . .
C11 N6 Ni2 111.8(5) . .
C10 N6 Ni2 116.4(4) . .
C11 N6 H6A 96.2 . .
C10 N6 H6A 96.2 . .
Ni2 N6 H6A 96.2 . .
C11 C8 N4 110.9(4) 5_665 .
C11 C8 H8A 109.5 5_665 .
N4 C8 H8A 109.5 . .
C11 C8 H8B 109.5 5_665 .
N4 C8 H8B 109.5 . .
H8A C8 H8B 108.0 . .
N4 C9 N5 105.1(4) . .
N4 C9 H9A 110.7 . .
N5 C9 H9A 110.7 . .
N4 C9 H9B 110.7 . .
N5 C9 H9B 110.7 . .
H9A C9 H9B 108.8 . .
N6 C10 N5 125.9(6) . .
N6 C10 H10A 105.8 . .
N5 C10 H10A 105.8 . .
N6 C10 H10B 105.8 . .
N5 C10 H10B 105.8 . .
H10A C10 H10B 106.2 . .
N6 C11 C8 117.0(6) . 5_665
N6 C11 H11A 108.0 . .
C8 C11 H11A 108.0 5_665 .
N6 C11 H11B 108.0 . .
C8 C11 H11B 108.0 5_665 .
H11A C11 H11B 107.3 . .
N5 C12 C13 112.04(19) . .
N5 C12 H12A 108.8(2) . .
C13 C12 H12A 109.506(11) . .
N5 C12 H12B 108.8(2) . .
C13 C12 H12B 109.511(19) . .
H12A C12 H12B 108.062(14) . .
C14 C13 C12 129.026(9) . .
C14 C13 H13 115.489(14) . .
C12 C13 H13 115.485(10) . .
C13 C14 H14A 120.000(14) . .
C13 C14 H14B 119.997(11) . .
H14A C14 H14B 120.003(9) . .
C15 O1 Ni1 130.48(16) . .
C22 O3 Ni2 131.20(19) . .
O2 C15 O1 125.6(2) . .
O2 C15 C16 116.8(2) . .
O1 C15 C16 117.6(2) . .
C21 C16 C17 119.0(2) . .
C21 C16 C15 122.1(2) . .
C17 C16 C15 118.8(2) . .
C18 C17 C16 119.8(3) . .
C18 C17 H17 120.1 . .
C16 C17 H17 120.1 . .
C17 C18 C19 121.5(3) . .
C17 C18 H18 119.2 . .
C19 C18 H18 119.2 . .
C18 C19 C20 120.3(2) . .
C18 C19 C22 116.1(3) . .
C20 C19 C22 123.6(3) . .
C19 C20 C21 117.5(2) . .
C19 C20 C20 123.57(17) . 2_655
C21 C20 C20 118.96(19) . 2_655
C16 C21 C20 121.9(2) . .
C16 C21 H21 119.0 . .
C20 C21 H21 119.0 . .
O4 C22 O3 126.7(3) . .
O4 C22 C19 116.9(3) . .
O3 C22 C19 116.0(2) . .
N1S C1S C2S 179.0(6) . .
C1S C2S H2S1 109.5 . .
C1S C2S H2S2 109.5 . .
H2S1 C2S H2S2 109.5 . .
C1S C2S H2S3 109.5 . .
H2S1 C2S H2S3 109.5 . .
H2S2 C2S H2S3 109.5 . .
loop_
_geom_bond_atom_site_label_1
_geom_bond_atom_site_label_2
_geom_bond_distance
_geom_bond_site_symmetry_2
Ni1 N3 2.059(2) .
Ni1 N3 2.059(2) 7_666
Ni1 N1 2.063(3) .
Ni1 N1 2.063(3) 7_666
Ni1 O1 2.1376(17) .
Ni1 O1 2.1376(17) 7_666
N1 C1 1.483(4) .
N1 C2 1.501(4) .
N1 H1 0.9900 .
N2 C3 1.432(5) .
N2 C2 1.459(4) .
N2 C5 1.478(5) .
N3 C4 1.472(4) .
N3 C3 1.482(4) .
N3 H3 0.9900 .
C1 C4 1.521(4) 7_666
C1 H1A 0.9800 .
C1 H1B 0.9800 .
C2 H2A 0.9800 .
C2 H2B 0.9800 .
C3 H3A 0.9800 .
C3 H3B 0.9800 .
C4 H4A 0.9800 .
C4 H4B 0.9800 .
C5 C6 1.479(6) .
C5 H5A 0.9800 .
C5 H5B 0.9800 .
C6 C7 1.277(8) .
C6 H6 0.9400 .
C7 H7A 0.9400 .
C7 H7B 0.9400 .
Ni2 N4 2.036(3) 5_665
Ni2 N4 2.036(3) .
Ni2 N6 2.046(5) .
Ni2 N6 2.046(5) 5_665
Ni2 O3 2.1190(19) 5_665
Ni2 O3 2.1191(19) .
N4 C9 1.368(7) .
N4 C8 1.681(9) .
N4 H4 0.9900 .
N5 C10 1.390(9) .
N5 C9 1.397(10) .
N5 C12 1.492(5) .
N6 C11 1.370(8) .
N6 C10 1.378(7) .
N6 H6A 0.9900 .
C8 C11 1.497(10) 5_665
C8 H8A 0.9800 .
C8 H8B 0.9800 .
C9 H9A 0.9800 .
C9 H9B 0.9800 .
C10 H10A 0.9800 .
C10 H10B 0.9800 .
C11 H11A 0.9800 .
C11 H11B 0.9800 .
C12 C13 1.6136(3) .
C12 H12A 0.97980(18) .
C12 H12B 0.9803(2) .
C13 C14 1.3043(2) .
C13 H13 0.93995(16) .
C14 H14A 0.93994(17) .
C14 H14B 0.93976(16) .
O1 C15 1.251(3) .
O2 C15 1.243(4) .
O3 C22 1.255(4) .
O4 C22 1.247(4) .
C15 C16 1.515(3) .
C16 C21 1.391(3) .
C16 C17 1.394(4) .
C17 C18 1.376(4) .
C17 H17 0.9400 .
C18 C19 1.384(5) .
C18 H18 0.9400 .
C19 C20 1.405(4) .
C19 C22 1.521(4) .
C20 C21 1.408(3) .
C20 C20 1.477(5) 2_655
C21 H21 0.9400 .
N1S C1S 1.166(8) .
C1S C2S 1.488(8) .
C2S H2S1 0.9700 .
C2S H2S2 0.9700 .
C2S H2S3 0.9700 .
loop_
_geom_hbond_atom_site_label_D
_geom_hbond_atom_site_label_H
_geom_hbond_atom_site_label_A
_geom_hbond_distance_DH
_geom_hbond_distance_HA
_geom_hbond_distance_DA
_geom_hbond_angle_DHA
_geom_hbond_publ_flag
N1 H1 N1S 0.99 2.39 3.272(6) 148.8 yes
N3 H3 O2 0.99 1.93 2.828(3) 149.5 yes
N4 H4 O4 0.99 2.00 2.895(4) 148.6 yes
N6 H6A O3 0.99 2.35 2.864(5) 111.3 yes
loop_
_geom_torsion_atom_site_label_1
_geom_torsion_atom_site_label_2
_geom_torsion_atom_site_label_3
_geom_torsion_atom_site_label_4
_geom_torsion
_geom_torsion_site_symmetry_1
_geom_torsion_site_symmetry_4
C2 N1 C1 C4 -166.1(3) . 7_666
Ni1 N1 C1 C4 -42.0(3) . 7_666
C3 N2 C2 N1 -69.4(4) . .
C5 N2 C2 N1 71.4(4) . .
C1 N1 C2 N2 176.0(3) . .
Ni1 N1 C2 N2 56.8(3) . .
C2 N2 C3 N3 69.0(3) . .
C5 N2 C3 N3 -71.0(3) . .
C4 N3 C3 N2 -177.8(3) . .
Ni1 N3 C3 N2 -56.0(3) . .
C3 N3 C4 C1 166.8(2) . 7_666
Ni1 N3 C4 C1 40.6(3) . 7_666
C3 N2 C5 C6 -55.9(5) . .
C2 N2 C5 C6 162.9(4) . .
N2 C5 C6 C7 123.6(6) . .
C9 N4 C8 C11 157.3(6) . 5_665
Ni2 N4 C8 C11 27.9(6) . 5_665
C8 N4 C9 N5 179.6(4) . .
Ni2 N4 C9 N5 -61.8(6) . .
C10 N5 C9 N4 59.1(8) . .
C12 N5 C9 N4 -76.8(5) . .
C11 N6 C10 N5 176.3(9) . .
Ni2 N6 C10 N5 19.3(12) . .
C9 N5 C10 N6 -40.3(13) . .
C12 N5 C10 N6 100.4(9) . .
C10 N6 C11 C8 -177.7(8) . 5_665
Ni2 N6 C11 C8 -19.8(9) . 5_665
C10 N5 C12 C13 138.4(4) . .
C9 N5 C12 C13 -76.0(5) . .
N5 C12 C13 C14 -109.5(3) . .
Ni1 O1 C15 O2 0.3(5) . .
Ni1 O1 C15 C16 179.60(18) . .
O2 C15 C16 C21 165.9(3) . .
O1 C15 C16 C21 -13.5(4) . .
O2 C15 C16 C17 -10.7(5) . .
O1 C15 C16 C17 169.9(3) . .
C21 C16 C17 C18 0.9(5) . .
C15 C16 C17 C18 177.6(3) . .
C16 C17 C18 C19 -1.2(5) . .
C17 C18 C19 C20 1.0(5) . .
C17 C18 C19 C22 178.1(3) . .
C18 C19 C20 C21 -0.5(4) . .
C22 C19 C20 C21 -177.3(3) . .
C18 C19 C20 C20 -179.3(3) . 2_655
C22 C19 C20 C20 3.8(5) . 2_655
C17 C16 C21 C20 -0.4(4) . .
C15 C16 C21 C20 -176.9(2) . .
C19 C20 C21 C16 0.1(4) . .
C20 C20 C21 C16 179.0(2) 2_655 .
Ni2 O3 C22 O4 -19.0(8) . .
Ni2 O3 C22 C19 154.2(3) . .
C18 C19 C22 O4 45.5(6) . .
C20 C19 C22 O4 -137.5(4) . .
C18 C19 C22 O3 -128.4(4) . .
C20 C19 C22 O3 48.6(6) . .
