#------------------------------------------------------------------------------
#$Date: 2020-02-04 22:07:08 +0200 (Tue, 04 Feb 2020) $
#$Revision: 247604 $
#$URL: file:///home/coder/svn-repositories/cod/cif/7/12/40/7124022.cif $
#------------------------------------------------------------------------------
#
# This file is available in the Crystallography Open Database (COD),
# http://www.crystallography.net/
#
# All data on this site have been placed in the public domain by the
# contributors.
#
data_7124022
loop_
_publ_author_name
'Ma, Xue'
'Zhang, Yanhao'
'Gao, Yu'
'Li, Xinglin'
'Wang, Cuijie'
'Yuan, Hang'
'Yu, Ajuan'
'Zhang, Shusheng'
'Cui, Yuanyuan'
_publ_section_title
;
 Revelation of the chiral recognition of alanine and leucine in an
 l-phenylalanine-based metal-organic framework.
;
_journal_issue                   7
_journal_name_full
'Chemical communications (Cambridge, England)'
_journal_page_first              1034
_journal_page_last               1037
_journal_paper_doi               10.1039/c9cc05912a
_journal_volume                  56
_journal_year                    2020
_chemical_formula_moiety         'C20.5 H17.5 N3 O2 Zn'
_chemical_formula_sum            'C21.5 H20.5 N3 O2.5 Zn'
_chemical_formula_weight         426.28
_space_group_crystal_system      monoclinic
_space_group_IT_number           15
_space_group_name_Hall           '-C 2yc'
_space_group_name_H-M_alt        'C 1 2/c 1'
_symmetry_space_group_name_Hall  '-C 2yc'
_symmetry_space_group_name_H-M   'C 1 2/c 1'
_atom_sites_solution_hydrogens   geom
_atom_sites_solution_primary     dual
_audit_creation_date             2019-02-28
_audit_creation_method
;
Olex2 1.2-alpha
(compiled 2018.07.26 svn.r3523 for OlexSys, GUI svn.r5532)
;
_audit_update_record
;
2019-07-08 deposited with the CCDC.    2019-08-16 downloaded from the CCDC.
;
_cell_angle_alpha                90
_cell_angle_beta                 99.109(6)
_cell_angle_gamma                90
_cell_formula_units_Z            8
_cell_length_a                   20.4932(17)
_cell_length_b                   25.8736(11)
_cell_length_c                   9.6520(4)
_cell_measurement_reflns_used    6705
_cell_measurement_temperature    150.00(10)
_cell_measurement_theta_max      29.0410
_cell_measurement_theta_min      3.1390
_cell_volume                     5053.3(5)
_computing_cell_refinement       'CrysAlisPro 1.171.39.27b (Rigaku OD, 2015)'
_computing_data_collection       'CrysAlisPro 1.171.39.27b (Rigaku OD, 2015)'
_computing_data_reduction        'CrysAlisPro 1.171.39.27b (Rigaku OD, 2015)'
_computing_molecular_graphics    'Olex2 (Dolomanov et al., 2009)'
_computing_publication_material  'Olex2 (Dolomanov et al., 2009)'
_computing_structure_refinement  'ShelXL (Sheldrick, 2015)'
_computing_structure_solution    'ShelXT (Sheldrick, 2015)'
_diffrn_ambient_environment      N~2~
_diffrn_ambient_temperature      150.00(10)
_diffrn_detector                 'CCD plate'
_diffrn_measured_fraction_theta_full 0.999
_diffrn_measured_fraction_theta_max 0.904
_diffrn_measurement_details
;
List of Runs (angles in degrees, time in seconds):

  # Type    Start    End  Width  t~exp~   \w     \q     \k     \f   Frames
#--------------------------------------------------------------------------
  1  \w    -11.00  89.00   0.50    4.14    --   -0.40  38.00   0.00  200
  2  \w     36.00  64.00   0.50    4.14    --   -0.40  38.00-180.00   56
  3  \w     37.00  63.00   0.50    4.14    --   -0.40  38.00-150.00   52
  4  \w    -20.00  78.00   0.50    4.14    --   -0.40  38.00 -90.00  196
  5  \w     39.00  64.00   0.50    4.14    --   -0.40  38.00 120.00   50
;
_diffrn_measurement_device       'four-circle diffractometer'
_diffrn_measurement_device_type  'XtaLAB AFC12 (RINC): Kappa single'
_diffrn_measurement_method       '\w scans'
_diffrn_orient_matrix_type
'CrysAlisPro convention (1999,Acta A55,543-557)'
_diffrn_orient_matrix_UB_11      -0.0283314000
_diffrn_orient_matrix_UB_12      -0.0156075000
_diffrn_orient_matrix_UB_13      -0.0202898000
_diffrn_orient_matrix_UB_21      0.0125007000
_diffrn_orient_matrix_UB_22      -0.0075969000
_diffrn_orient_matrix_UB_23      -0.0613653000
_diffrn_orient_matrix_UB_31      0.0164705000
_diffrn_orient_matrix_UB_32      -0.0212125000
_diffrn_orient_matrix_UB_33      0.0368560000
_diffrn_radiation_monochromator  graphite
_diffrn_radiation_probe          x-ray
_diffrn_radiation_type           MoK\a
_diffrn_radiation_wavelength     0.71073
_diffrn_reflns_av_R_equivalents  0.0499
_diffrn_reflns_av_unetI/netI     0.0473
_diffrn_reflns_Laue_measured_fraction_full 0.999
_diffrn_reflns_Laue_measured_fraction_max 0.904
_diffrn_reflns_limit_h_max       28
_diffrn_reflns_limit_h_min       -28
_diffrn_reflns_limit_k_max       34
_diffrn_reflns_limit_k_min       -34
_diffrn_reflns_limit_l_max       13
_diffrn_reflns_limit_l_min       -12
_diffrn_reflns_number            28127
_diffrn_reflns_point_group_measured_fraction_full 0.999
_diffrn_reflns_point_group_measured_fraction_max 0.904
_diffrn_reflns_theta_full        25.242
_diffrn_reflns_theta_max         29.774
_diffrn_reflns_theta_min         2.013
_diffrn_source                   'fine-focus sealed X-ray tube'
_diffrn_source_type              'Enhance (Mo) X-ray Source'
_exptl_absorpt_coefficient_mu    0.991
_exptl_absorpt_correction_T_max  1.00000
_exptl_absorpt_correction_T_min  0.39692
_exptl_absorpt_correction_type   multi-scan
_exptl_absorpt_process_details
;
CrysAlisPro 1.171.39.27b (Rigaku Oxford Diffraction, 2015)
Empirical absorption correction using spherical harmonics,
 implemented in SCALE3 ABSPACK scaling algorithm.
;
_exptl_crystal_colour            'clear light colourless'
_exptl_crystal_colour_lustre     clear
_exptl_crystal_colour_modifier   light
_exptl_crystal_colour_primary    colourless
_exptl_crystal_density_diffrn    1.121
_exptl_crystal_description       block
_exptl_crystal_F_000             1764
_exptl_crystal_size_max          0.2
_exptl_crystal_size_mid          0.2
_exptl_crystal_size_min          0.1
_refine_diff_density_max         1.676
_refine_diff_density_min         -0.650
_refine_diff_density_rms         0.136
_refine_ls_extinction_method     none
_refine_ls_goodness_of_fit_ref   1.065
_refine_ls_hydrogen_treatment    constr
_refine_ls_matrix_type           full
_refine_ls_number_parameters     232
_refine_ls_number_reflns         6540
_refine_ls_number_restraints     176
_refine_ls_restrained_S_all      1.118
_refine_ls_R_factor_all          0.1252
_refine_ls_R_factor_gt           0.1005
_refine_ls_shift/su_max          0.000
_refine_ls_shift/su_mean         0.000
_refine_ls_structure_factor_coef Fsqd
_refine_ls_weighting_details
;
 w=1/[\s^2^(Fo^2^)+(0.3000P)^2^]
 where P=(Fo^2^+2Fc^2^)/3
;
_refine_ls_weighting_scheme      calc
_refine_ls_wR_factor_gt          0.3675
_refine_ls_wR_factor_ref         0.3893
_reflns_Friedel_coverage         0.000
_reflns_number_gt                4245
_reflns_number_total             6540
_reflns_threshold_expression     'I > 2\s(I)'
_cod_data_source_file            c9cc05912a2.cif
_cod_data_source_block           20180205e2-1
_cod_depositor_comments          'Adding full bibliography for 7124022.cif.'
_cod_original_formula_sum        'C21.50 H20.50 N3 O2.50 Zn'
_cod_database_code               7124022
_shelxl_version_number           2013-2
_chemical_oxdiff_formula         'Zn C H F O N S'
_chemical_oxdiff_usercomment     'C H O'
_shelx_space_group_comment
;
The symmetry employed for this shelxl refinement is uniquely defined
by the following loop, which should always be used as a source of
symmetry information in preference to the above space-group names.
They are only intended as comments.
;
_shelx_estimated_absorpt_t_max   0.907
_shelx_estimated_absorpt_t_min   0.826
_reflns_odcompleteness_completeness 99.91
_reflns_odcompleteness_iscentric 1
_reflns_odcompleteness_theta     26.32
_olex2_refinement_description
;
1. Fixed Uiso
 At 1.2 times of:
  All C(H) groups, All C(H,H) groups, All N(H) groups
2. Restrained distances
 C9-C0AA
 1.4 with sigma of 0.02
 C0AA-C00J
 1.3 with sigma of 0.02
3. Uiso/Uaniso restraints and constraints
C12 \\sim C20 \\sim C14 \\sim C13 \\sim C9 \\sim C10: within 2A with sigma of
0.01 and sigma for terminal atoms of 0.02
Uanis(C00J) \\sim Ueq: with sigma of 0.01 and sigma for terminal atoms of 0.02
Uanis(C14) \\sim Ueq, Uanis(C20) \\sim Ueq, Uanis(C13) \\sim Ueq, Uanis(C10)
\\sim Ueq, Uanis(C9) \\sim Ueq, Uanis(C12) \\sim Ueq: with sigma of 0.01 and
sigma for terminal atoms of 0.02
Uanis(N008) \\sim Ueq: with sigma of 0.01 and sigma for terminal atoms of 0.02
Uanis(O004) \\sim Ueq, Uanis(C00J) \\sim Ueq, Uanis(O002) \\sim Ueq,
Uanis(N008) \\sim Ueq, Uanis(Zn01) \\sim Ueq, Uanis(N003) \\sim Ueq,
Uanis(C00C) \\sim Ueq, Uanis(C00I) \\sim Ueq, Uanis(C00A) \\sim Ueq,
Uanis(C00G) \\sim Ueq, Uanis(C009) \\sim Ueq, Uanis(C00B) \\sim Ueq,
Uanis(C0AA) \\sim Ueq, Uanis(C00F) \\sim Ueq, Uanis(C00E) \\sim Ueq,
Uanis(C007) \\sim Ueq, Uanis(C00L) \\sim Ueq: with sigma of 0.01 and sigma for
terminal atoms of 0.02
4. Others
 Fixed Sof: H12(0.5) C0AA(0.5) H0AB(0.5) H0AA(0.5)
5.a Ternary CH refined with riding coordinates:
 C00J(H00J)
5.b Secondary CH2 refined with riding coordinates:
 C0AA(H0AB,H0AA)
5.c Aromatic/amide H refined with riding coordinates:
 C007(H007), N008(H008), C00A(H00A), C00B(H00B), C00C(H00C), C00D(H00D),
 C00E(H00E), C00F(H00F), C00G(H00G), C00I(H00I), C00L(H00L), C12(H12), C10(H10),
  C13(H13), C14(H14), C20(H20)
5.d Fitted hexagon refined as free rotating group:
 C12(C9,C10,C13,C14,C20)
;
_smtbx_masks_void_probe_radius   1.2
_smtbx_masks_void_truncation_radius 1.2
_shelx_res_file
;
TITL 20180205e2-1_a.res in C2/c
REM Old TITL 20180205E2-1 in C2/m
REM SHELXT solution in C2/c
REM R1 0.379, Rweak 0.015, Alpha 0.058, Orientation as input
REM Formula found by SHELXT: C27 N18 F8 Zn2
CELL 0.71073 20.4932 25.8736 9.652 90 99.109 90
ZERR 8 0.0017 0.0011 0.0004 0 0.006 0
LATT 7
SYMM -X,+Y,0.5-Z
SFAC C H N O Zn
UNIT 172 164 24 20 8
DFIX 1.4 C9 C0AA
DFIX 1.3 C0AA C00J
SIMU 0.01 0.02 2 C12 C20 C14 C13 C9 C10
ISOR 0.01 0.02 C00J
ISOR 0.01 0.02 C14 C20 C13 C10 C9 C12
ISOR 0.01 0.02 N008
ISOR 0.01 0.02 O004 C00J O002 N008 Zn01 N003 C00C C00I C00A C00G C009 C00B =
 C0AA C00F C00E C007 C00L

L.S. 10
PLAN  50
SIZE 0.1 0.2 0.2
BOND $H
list 4
MORE -1
CONF
ABIN
fmap 2 53
acta
OMIT 0 128
REM <olex2.extras>
REM <HklSrc "%.\\20180205E2-1.hkl">
REM </olex2.extras>

WGHT    0.300000
FVAR       0.23270
ZN01  5    0.687876    0.468579    0.623711    11.00000    0.11659    0.02863 =
         0.02191    0.00294    0.01215    0.00712
O002  4    0.698574    0.507061    0.822398    11.00000    0.11808    0.04739 =
         0.02438   -0.00059    0.00694    0.01974
N003  3    0.698005    0.398261    0.726030    11.00000    0.10281    0.03063 =
         0.03924    0.00774    0.01856    0.00989
O004  4    0.654152    0.567712    0.936515    11.00000    0.15657    0.04492 =
         0.02109    0.00199    0.01415    0.02409
N005  3    0.785657    0.481521    0.606489    11.00000    0.10474    0.04732 =
         0.03435    0.00300    0.00952    0.00226
C006  1    0.660469    0.545055    0.823811    11.00000    0.12542    0.02831 =
         0.02618    0.00670    0.01205    0.00898
C007  1    0.819571    0.446958    0.542940    11.00000    0.09935    0.05877 =
         0.04539   -0.00753    0.01464    0.00584
AFIX  43
H007  2    0.799427    0.415660    0.514685    11.00000   -1.20000
AFIX   0
N008  3    0.616760    0.524030    0.583961    11.00000    0.13092    0.12654 =
         0.03305   -0.02071   -0.01547    0.05736
AFIX  43
H008  2    0.584428    0.522638    0.515382    11.00000   -1.20000
AFIX   0
C009  1    0.719199    0.305153    0.874183    11.00000    0.09715    0.03934 =
         0.04502    0.01364    0.01710    0.01280
C00A  1    0.664911    0.355964    0.680128    11.00000    0.12116    0.04376 =
         0.05983    0.02248    0.00399    0.00338
AFIX  43
H00A  2    0.633885    0.358230    0.598873    11.00000   -1.20000
AFIX   0
C00B  1    0.728672    0.254904    0.942717    11.00000    0.10408    0.03845 =
         0.04676    0.01732    0.01676    0.01028
AFIX  43
H00B  2    0.702685    0.227649    0.902709    11.00000   -1.20000
AFIX   0
C00C  1    0.738050    0.394198    0.846738    11.00000    0.11803    0.04533 =
         0.04624    0.01493   -0.00559    0.00252
AFIX  43
H00C  2    0.758059    0.424292    0.885349    11.00000   -1.20000
AFIX   0
C00D  1    0.879651    0.534678    0.628588    11.00000    0.09092    0.07335 =
         0.06542    0.00187    0.01567   -0.01225
AFIX  43
H00D  2    0.899364    0.565908    0.659043    11.00000   -1.20000
AFIX   0
C00E  1    0.882546    0.455604    0.517684    11.00000    0.10779    0.07764 =
         0.05699   -0.01138    0.01823    0.01287
AFIX  43
H00E  2    0.903906    0.430780    0.471474    11.00000   -1.20000
AFIX   0
C00F  1    0.819463    0.525568    0.653925    11.00000    0.11057    0.05730 =
         0.05139   -0.00237    0.00563    0.00980
AFIX  43
H00F  2    0.799314    0.549539    0.705210    11.00000   -1.20000
AFIX   0
C00G  1    0.674294    0.308303    0.747528    11.00000    0.11577    0.03892 =
         0.05920    0.01366   -0.00280   -0.00167
AFIX  43
H00G  2    0.651452    0.279187    0.709859    11.00000   -1.20000
AFIX   0
C00H  1    0.914432    0.501484    0.561179    11.00000    0.10791    0.07707 =
         0.03493   -0.00134    0.00262   -0.00432
C00I  1    0.752459    0.349282    0.919530    11.00000    0.13069    0.05991 =
         0.04861    0.01934    0.00373    0.00499
AFIX  43
H00I  2    0.784603    0.348754    0.999189    11.00000   -1.20000
AFIX   0
C00J  1    0.626962    0.566721    0.685818    11.00000    0.15415    0.07922 =
         0.03034   -0.00267    0.00689    0.04759
AFIX  13
H00J  2    0.582328    0.575365    0.702693    11.00000   -1.20000
AFIX   0
C00L  1    0.980538    0.515823    0.535176    11.00000    0.11265    0.07115 =
         0.06895   -0.01420    0.01174   -0.00266
AFIX  43
H00L  2    0.997429    0.547758    0.567342    11.00000   -1.20000
AFIX  66
C12   1    0.590147    0.680614    0.713842    11.00000    0.20274    0.18546 =
         0.20394   -0.00363    0.03676    0.01501
PART 1
AFIX  43
H12   2    0.551035    0.668477    0.661939    10.50000   -1.20000
AFIX  65
PART 0
C9    1    0.649164    0.654665    0.709330    11.00000    0.18497    0.17044 =
         0.18090    0.01715    0.04401    0.01243
C10   1    0.707621    0.672806    0.786906    11.00000    0.19246    0.17166 =
         0.17793    0.01472    0.04880   -0.01081
AFIX  43
H10   2    0.747107    0.655444    0.783887    11.00000   -1.20000
AFIX  65
C13   1    0.707062    0.716896    0.868993    11.00000    0.20925    0.20056 =
         0.20023    0.01072    0.04391   -0.00718
AFIX  43
H13   2    0.746175    0.729033    0.920896    11.00000   -1.20000
AFIX  65
C14   1    0.648046    0.742845    0.873506    11.00000    0.21940    0.20195 =
         0.21229    0.01263    0.03138   -0.00050
AFIX  43
H14   2    0.647673    0.772344    0.928428    11.00000   -1.20000
AFIX  65
C20   1    0.589588    0.724705    0.795931    11.00000    0.21742    0.20703 =
         0.22138   -0.00032    0.03410    0.00362
AFIX  43
H20   2    0.550102    0.742067    0.798950    11.00000   -1.20000
AFIX   0
PART 1
C0AA  1    0.645700    0.606904    0.625934    10.50000    0.09838    0.07018 =
         0.05692    0.02935    0.01476    0.00462
AFIX  23
H0AB  2    0.615546    0.612503    0.539128    10.50000   -1.20000
H0AA  2    0.689058    0.600193    0.601603    10.50000   -1.20000
AFIX   0
HKLF 4

REM  20180205e2-1_a.res in C2/c
REM R1 =  0.1005 for    4245 Fo > 4sig(Fo)  and  0.1252 for all    6540 data
REM    232 parameters refined using    176 restraints

END

WGHT      0.2000      0.0000

REM Highest difference peak  1.676,  deepest hole -0.650,  1-sigma level  0.136
Q1    1   0.5762  0.6028  0.7033  11.00000  0.05    1.68
Q2    1   0.7807  0.6424  0.7937  11.00000  0.05    1.67
Q3    1   0.5840  0.6981  0.5877  11.00000  0.05    0.93
Q4    1   0.5629  0.6453  0.5732  11.00000  0.05    0.93
Q5    1   0.7650  0.6804  0.8734  11.00000  0.05    0.85
Q6    1   0.6574  0.4609  0.6006  11.00000  0.05    0.81
Q7    1   0.7206  0.4617  0.6061  11.00000  0.05    0.73
Q8    1   0.5666  0.6740  0.8766  11.00000  0.05    0.63
Q9    1   0.6418  0.5396  0.5674  11.00000  0.05    0.61
Q10   1   0.7669  0.3952  0.8350  11.00000  0.05    0.59
Q11   1   0.6649  0.5023  0.8065  11.00000  0.05    0.57
Q12   1   0.5977  0.7392  0.9190  11.00000  0.05    0.57
Q13   1   0.6565  0.5808  0.6941  11.00000  0.05    0.55
Q14   1   0.5792  0.5569  0.6818  11.00000  0.05    0.51
Q15   1   0.5732  0.5015  0.5849  11.00000  0.05    0.50
Q16   1   1.0245  0.5223  0.5021  11.00000  0.05    0.50
Q17   1   0.8348  0.5206  0.6401  11.00000  0.05    0.46
Q18   1   0.6924  0.5776  0.9421  11.00000  0.05    0.45
Q19   1   0.8577  0.4265  0.4744  11.00000  0.05    0.43
Q20   1   0.7016  0.3598  0.6696  11.00000  0.05    0.42
Q21   1   0.6616  0.5390  0.8502  11.00000  0.05    0.41
Q22   1   0.8549  0.4409  0.4965  11.00000  0.05    0.40
Q23   1   0.6037  0.6345  0.4807  11.00000  0.05    0.39
Q24   1   0.6202  0.5976  0.6077  11.00000  0.05    0.39
Q25   1   0.8167  0.4998  0.4449  11.00000  0.05    0.39
Q26   1   0.5986  0.3587  0.5833  11.00000  0.05    0.39
Q27   1   0.6017  0.6275  0.5214  11.00000  0.05    0.39
Q28   1   0.6236  0.5665  0.9044  11.00000  0.05    0.37
Q29   1   0.5619  0.7578  0.6940  11.00000  0.05    0.34
Q30   1   0.6207  0.7423  0.7316  11.00000  0.05    0.34
Q31   1   0.6765  0.8011  0.8871  11.00000  0.05    0.34
Q32   1   0.6737  0.5591  0.8034  11.00000  0.05    0.33
Q33   1   0.7320  0.3936  0.7603  11.00000  0.05    0.33
Q34   1   0.7593  0.2437  0.9757  11.00000  0.05    0.31
Q35   1   0.7960  0.4006  1.0525  11.00000  0.05    0.30
Q36   1   0.5473  0.7422  0.6667  11.00000  0.05    0.30
Q37   1   0.7387  0.3425  0.7223  11.00000  0.05    0.29
Q38   1   0.5000  0.5000  0.5000  10.50000  0.05    0.29
Q39   1   0.8617  0.5595  0.7624  11.00000  0.05    0.28
Q40   1   0.8918  0.5364  0.6520  11.00000  0.05    0.28
Q41   1   0.6551  0.3853  0.7416  11.00000  0.05    0.28
Q42   1   0.7264  0.5771  0.5647  11.00000  0.05    0.28
Q43   1   0.6459  0.8018  0.8863  11.00000  0.05    0.27
Q44   1   0.6584  0.2837  1.0648  11.00000  0.05    0.27
Q45   1   0.5956  0.6637  0.7954  11.00000  0.05    0.27
Q46   1   0.6647  0.2366  0.9265  11.00000  0.05    0.26
Q47   1   0.7795  0.3996  1.1011  11.00000  0.05    0.26
Q48   1   0.6550  0.6987  0.6329  11.00000  0.05    0.26
Q49   1   0.9940  0.5749  0.5437  11.00000  0.05    0.25
Q50   1   1.0032  0.5214  0.6424  11.00000  0.05    0.25
;
_shelx_res_checksum              14519
_shelx_fab_file
;
-28 2 1 2.0958 -0.0294
-28 4 1 0.6648 0.0228
-28 4 2 3.0781 0.0998
-28 4 3 1.5454 0.0859
-28 4 4 -3.5623 -0.0156
-27 1 1 -3.7008 -0.0567
-27 1 2 -0.7986 0.0150
-27 1 3 -1.6567 0.1069
-27 1 4 -0.6884 0.0149
-27 3 1 -1.0655 -0.0974
-27 3 2 -1.3579 -0.0947
-27 3 3 0.4635 -0.0658
-27 3 4 -3.2405 0.0402
-27 3 5 2.0588 0.0244
-27 5 1 1.3254 0.1228
-27 5 2 3.2525 0.0763
-27 5 3 2.7352 0.0057
-27 5 4 -0.0093 0.0495
-27 5 5 1.1231 -0.0956
-27 7 1 0.9473 0.0058
-27 7 2 4.6799 0.0223
-27 7 3 1.2726 0.0667
-26 0 2 -0.4399 0.0809
-26 0 4 -2.3180 -0.0738
-26 0 6 -2.9234 0.0021
-26 2 1 5.5789 0.1674
-26 2 2 0.8413 0.0331
-26 2 3 2.0959 -0.0443
-26 2 4 -1.4378 0.0284
-26 2 5 2.3357 0.1289
-26 2 6 3.3004 0.0016
-26 4 1 0.2943 0.0174
-26 4 2 5.8889 -0.0792
-26 4 3 0.4030 0.0277
-26 4 4 -3.0114 0.0072
-26 4 5 0.3530 -0.1763
-26 4 6 -0.5312 -0.0536
-26 6 1 -1.4924 -0.1172
-26 6 2 -3.1666 -0.0174
-26 6 3 -2.8972 0.0642
-26 6 4 0.1721 0.0285
-26 6 5 0.2269 0.0420
-26 8 1 5.1673 0.1184
-26 8 2 2.0826 0.0745
-26 8 3 -0.1319 -0.0998
-26 8 4 -0.2189 0.0049
-25 1 1 -3.2933 0.0462
-25 1 2 -0.1209 -0.1023
-25 1 3 2.2695 -0.1826
-25 1 4 -0.4039 0.0259
-25 1 5 -3.4915 -0.1250
-25 1 6 0.9331 -0.0463
-25 1 7 -3.4004 0.2354
-25 3 1 -2.0451 0.0063
-25 3 2 -2.1473 0.1094
-25 3 3 3.4609 0.1751
-25 3 4 -0.9265 -0.0667
-25 3 5 1.7631 -0.0004
-25 3 6 -0.3490 0.0312
-25 3 7 -3.2365 -0.0457
-25 5 1 5.0333 0.0165
-25 5 2 4.7008 0.0073
-25 5 3 1.1499 -0.0146
-25 5 4 -0.9119 0.0009
-25 5 5 1.9320 0.0908
-25 5 6 -0.6234 0.0289
-25 7 1 1.0412 0.0102
-25 7 2 5.9979 -0.0852
-25 7 3 -1.7849 -0.0483
-25 7 4 -0.6410 0.0428
-25 7 5 -1.7076 -0.1264
-25 7 6 0.2505 -0.0029
-25 9 1 -2.3964 -0.0248
-25 9 2 -4.3838 0.0077
-25 9 3 0.1891 0.0586
-25 9 4 -0.4343 0.0077
-25 9 5 -3.2436 0.0136
-25 11 1 3.3230 0.0310
-25 11 2 2.1332 0.0028
-25 11 3 -0.5843 -0.0999
-25 11 4 -1.8261 -0.0447
-25 13 4 0.1499 0.0326
-25 13 5 1.4302 -0.0262
-24 0 2 1.2871 0.0103
-24 0 4 -1.3001 0.0006
-24 0 6 -1.4495 0.0928
-24 0 8 0.3776 -0.0430
-24 2 1 1.9855 -0.1636
-24 2 2 -0.8069 -0.0206
-24 2 3 2.2344 0.0660
-24 2 4 -1.3430 -0.0014
-24 2 5 5.6050 -0.1098
-24 2 6 3.0812 -0.1184
-24 2 7 1.6742 -0.1702
-24 2 8 1.4274 0.0628
-24 4 1 0.4338 -0.0354
-24 4 2 2.6245 -0.0127
-24 4 3 -1.7866 -0.0787
-24 4 4 -0.5485 0.0381
-24 4 5 -0.1602 0.1225
-24 4 6 -0.7880 -0.0253
-24 4 7 -1.9738 0.1841
-24 6 1 -0.0100 0.1293
-24 6 2 0.2237 0.1156
-24 6 3 1.0566 0.0852
-24 6 4 -1.1283 -0.0882
-24 6 5 -0.7907 -0.0390
-24 6 6 0.5187 -0.0744
-24 6 7 -1.9779 -0.0053
-24 8 1 4.2679 -0.0651
-24 8 2 2.2548 -0.0788
-24 8 3 1.2939 -0.0283
-24 8 4 0.3247 0.0083
-24 8 5 1.9442 0.0383
-24 8 6 -2.8182 0.0641
-24 10 1 -2.2323 0.0704
-24 10 2 1.8531 -0.0145
-24 10 3 -3.5891 -0.0632
-24 10 4 2.4496 0.0905
-24 10 5 -0.6235 -0.0860
-24 10 6 2.0293 0.0880
-24 12 1 -0.1066 -0.0203
-24 12 2 -3.1668 -0.0063
-24 12 3 0.1606 0.0378
-24 12 4 0.7867 -0.0066
-24 14 1 1.5746 -0.0104
-24 14 2 0.8748 -0.0463
-24 14 3 -0.3719 -0.0264
-24 14 4 -3.0016 -0.0465
-24 14 5 1.3280 0.0907
-24 14 6 -3.8380 0.0397
-24 16 2 -3.1528 0.0442
-24 16 3 3.7953 0.0626
-24 16 4 -0.7084 0.0376
-24 16 5 -0.0879 -0.0664
-24 18 4 -0.1987 0.0642
-23 1 1 1.0421 -0.0038
-23 1 2 -1.1779 0.0822
-23 1 3 1.1101 0.1300
-23 1 4 1.0504 -0.0408
-23 1 5 -1.1634 0.3126
-23 1 6 -0.7885 0.0416
-23 1 7 -2.8866 -0.1390
-23 1 8 -0.4757 0.0690
-23 1 9 -1.2257 -0.3002
-23 3 1 0.8344 0.1532
-23 3 2 4.2143 -0.1135
-23 3 3 -0.4058 -0.1136
-23 3 4 -2.1059 0.0936
-23 3 5 3.1353 -0.0874
-23 3 6 -0.7965 0.0447
-23 3 7 -0.5582 0.0617
-23 3 8 0.6466 -0.0724
-23 3 9 0.7529 0.0094
-23 5 1 0.0236 -0.1343
-23 5 2 -1.1169 -0.0647
-23 5 3 3.2766 0.0665
-23 5 4 1.9155 -0.0260
-23 5 5 -2.2335 -0.1058
-23 5 6 0.6525 -0.0970
-23 5 7 -0.0851 0.0307
-23 5 8 1.7946 -0.0224
-23 7 1 1.8282 -0.0451
-23 7 2 0.0270 0.0792
-23 7 3 -0.9258 -0.0193
-23 7 4 -0.3403 0.0416
-23 7 5 -0.5376 0.0891
-23 7 6 1.1380 -0.0261
-23 7 7 2.5537 0.0419
-23 7 8 -1.9914 -0.0855
-23 9 1 1.5807 0.0871
-23 9 2 0.5494 -0.0000
-23 9 3 -2.2074 -0.0045
-23 9 4 -1.4109 -0.1118
-23 9 5 -2.1529 -0.0222
-23 9 6 4.3739 0.0165
-23 9 7 -0.4753 0.0184
-23 9 8 0.0362 0.1460
-23 11 1 0.1372 -0.0531
-23 11 2 0.6389 -0.0509
-23 11 3 -0.1562 0.0476
-23 11 4 -1.5554 0.0949
-23 11 5 2.1237 0.0070
-23 11 6 -2.1274 0.0337
-23 11 7 -1.6366 -0.1859
-23 11 8 1.4497 -0.0431
-23 13 1 -2.4375 0.0706
-23 13 2 -0.2586 0.0453
-23 13 3 1.9039 -0.0617
-23 13 4 -0.9884 0.0362
-23 13 5 1.6491 -0.0337
-23 15 1 1.1725 -0.0054
-23 15 2 -0.1892 -0.0177
-23 15 3 -2.0164 0.0634
-23 15 4 1.0726 -0.0158
-23 15 5 -2.5706 0.0405
-23 15 6 -2.4695 -0.1884
-23 17 1 1.0120 -0.0049
-23 17 2 -1.3457 -0.0121
-23 17 3 -2.0773 -0.0097
-23 17 4 -0.3924 -0.0340
-23 17 5 1.4357 0.0403
-23 19 1 -3.7397 0.0790
-23 19 2 -2.3025 0.0558
-23 19 3 2.0817 -0.0321
-23 19 4 1.1226 -0.0174
-22 0 2 -1.3760 -0.1263
-22 0 4 1.5595 0.1858
-22 0 6 -0.5574 -0.1338
-22 0 8 -3.1300 -0.0412
-22 2 1 3.6855 0.0531
-22 2 2 -1.5450 0.0190
-22 2 3 4.5149 -0.0656
-22 2 4 2.0979 -0.1277
-22 2 5 0.2207 -0.0653
-22 2 6 1.1669 0.0283
-22 2 7 0.2411 0.2367
-22 2 8 1.7657 0.1336
-22 2 9 0.9001 -0.0787
-22 4 1 -0.2354 -0.0040
-22 4 2 0.5001 0.1034
-22 4 3 -0.3734 0.2008
-22 4 4 1.7089 -0.0826
-22 4 5 -1.6783 0.0560
-22 4 6 -0.7011 0.0052
-22 4 7 -1.7827 -0.1969
-22 4 8 1.3316 -0.0811
-22 4 9 -4.2856 0.0217
-22 6 1 0.3893 -0.0064
-22 6 2 3.6820 -0.1160
-22 6 3 1.2685 -0.1549
-22 6 4 -4.3809 0.1287
-22 6 5 2.4784 -0.0080
-22 6 6 -0.7291 0.1065
-22 6 7 -1.0789 0.0073
-22 6 8 -0.1874 -0.0265
-22 6 9 -0.3896 0.1064
-22 8 1 0.5678 -0.0066
-22 8 2 -1.4983 0.0060
-22 8 3 0.8620 0.0854
-22 8 4 1.3124 0.0041
-22 8 5 -0.5251 -0.1011
-22 8 6 0.0958 -0.0836
-22 8 7 2.8076 -0.0107
-22 8 8 -0.9672 -0.0393
-22 8 9 5.9522 0.1249
-22 10 1 -1.3397 -0.0587
-22 10 2 -2.1661 0.0647
-22 10 3 0.8234 -0.0339
-22 10 4 -0.7138 -0.0395
-22 10 5 -1.9887 0.1162
-22 10 6 2.8891 -0.0883
-22 10 7 0.4470 -0.0284
-22 10 8 -0.3593 -0.0854
-22 12 1 -1.9643 0.0523
-22 12 2 1.8113 -0.0645
-22 12 3 -3.6797 -0.0101
-22 12 4 -1.3096 -0.0777
-22 12 5 -2.1046 -0.0034
-22 12 6 1.4326 0.1035
-22 12 7 -1.9727 -0.0224
-22 12 8 2.8721 0.2411
-22 14 1 1.2457 -0.0243
-22 14 2 2.2144 0.0081
-22 14 3 -3.3269 0.0570
-22 14 4 0.0483 0.1105
-22 14 5 3.6574 0.0040
-22 14 6 -2.1310 -0.0422
-22 14 7 1.3724 -0.0827
-22 16 1 0.1912 0.0351
-22 16 2 -2.5913 0.0221
-22 16 3 2.9947 -0.0542
-22 16 4 -2.6440 0.0399
-22 16 5 -2.2510 -0.0366
-22 16 6 0.7375 0.0014
-22 16 7 1.4930 0.0771
-22 18 1 1.2719 0.0176
-22 18 2 -2.8163 0.0319
-22 18 3 2.4181 0.0938
-22 18 4 0.4095 -0.0571
-22 18 5 -0.4917 0.0586
-22 18 7 0.7320 0.0756
-22 20 1 -1.1094 -0.0212
-22 20 2 1.4732 0.0285
-22 20 3 -0.4742 -0.0840
-22 20 4 2.5417 -0.0333
-22 20 5 -1.8549 0.0226
-22 22 1 -0.4680 0.0718
-21 1 1 -1.7349 0.0537
-21 1 2 1.1635 0.0279
-21 1 3 5.4352 0.0972
-21 1 4 0.8307 0.0151
-21 1 5 3.1282 -0.4029
-21 1 6 -0.9928 -0.0038
-21 1 7 0.6747 -0.1468
-21 1 8 2.3221 -0.0730
-21 1 9 -5.0842 0.2448
-21 1 10 -3.3982 0.1633
-21 3 1 -1.4529 -0.2634
-21 3 2 -0.0582 0.0621
-21 3 3 -1.3736 -0.0314
-21 3 4 0.7401 0.0009
-21 3 5 2.4209 0.1222
-21 3 6 -1.8668 -0.1555
-21 3 7 1.1785 0.0159
-21 3 8 -1.0953 -0.0318
-21 3 9 0.6072 -0.0958
-21 3 10 5.0557 0.2634
-21 5 1 1.7370 0.1226
-21 5 2 -2.2205 0.0189
-21 5 3 -0.8955 -0.0547
-21 5 4 2.1636 -0.0529
-21 5 5 -4.1280 0.0946
-21 5 6 2.0561 0.1006
-21 5 7 -1.1235 0.1246
-21 5 8 -1.0050 0.1050
-21 5 9 1.9734 -0.0503
-21 5 10 -2.2147 -0.0128
-21 7 1 1.4704 0.0244
-21 7 2 -1.9262 -0.0306
-21 7 3 0.9239 0.1208
-21 7 4 -0.8192 -0.0755
-21 7 5 0.6478 -0.0451
-21 7 6 2.3675 -0.0289
-21 7 7 2.6352 -0.1314
-21 7 8 0.9665 -0.0205
-21 7 9 -3.7399 0.0549
-21 9 1 -1.6552 -0.0731
-21 9 2 -0.1161 -0.0305
-21 9 3 0.4092 -0.0823
-21 9 4 -1.1257 0.1519
-21 9 5 0.5636 0.0236
-21 9 6 1.8829 0.1532
-21 9 7 -0.9906 0.0088
-21 9 8 0.3637 -0.1054
-21 9 9 0.7691 0.1639
-21 11 1 -1.1067 0.0957
-21 11 2 1.6932 0.0710
-21 11 3 -2.1637 0.0071
-21 11 4 0.8268 -0.0434
-21 11 5 0.1975 -0.0629
-21 11 6 -0.1679 -0.1333
-21 11 7 -1.2787 -0.0238
-21 11 8 -2.6799 0.0473
-21 13 1 -0.1683 -0.0905
-21 13 2 -1.5562 -0.0235
-21 13 3 -0.0641 0.0125
-21 13 4 -2.9756 -0.0466
-21 13 5 1.1643 0.1142
-21 13 6 0.6594 -0.1187
-21 13 7 0.5638 -0.0513
-21 13 8 2.6069 0.0244
-21 15 1 -0.9126 0.0752
-21 15 2 -0.3008 -0.0131
-21 15 3 -0.2732 0.0008
-21 15 4 -0.0127 -0.0105
-21 15 5 -1.9206 -0.0190
-21 15 6 -2.4965 0.1018
-21 15 7 -0.8602 0.0311
-21 15 8 2.1819 0.1394
-21 17 1 0.9549 -0.0256
-21 17 2 0.2407 0.0273
-21 17 3 1.1796 0.0210
-21 17 4 -1.5420 0.0748
-21 17 5 0.7740 -0.0289
-21 17 6 -1.5941 -0.0374
-21 17 7 2.8214 -0.0706
-21 17 8 -0.3933 -0.0171
-21 19 1 -2.4435 -0.0081
-21 19 2 -1.1318 -0.0181
-21 19 3 -2.9336 -0.0650
-21 19 4 2.9747 0.0358
-21 19 5 -2.3013 -0.0232
-21 19 6 -0.0242 0.1165
-21 21 1 3.2472 -0.0080
-21 21 2 -0.3286 0.0791
-21 21 3 4.6449 0.0588
-21 21 4 1.5783 -0.0937
-21 21 5 -0.8980 0.1866
-20 0 2 -5.2308 0.2417
-20 0 4 5.8176 -0.3026
-20 0 6 -2.2119 -0.0465
-20 0 8 -1.0789 0.2106
-20 0 10 3.4044 0.0417
-20 2 1 5.0204 0.0895
-20 2 2 0.6801 -0.0670
-20 2 3 -0.0193 0.0567
-20 2 4 2.6960 0.2094
-20 2 5 -1.1576 0.2132
-20 2 6 -1.4670 0.1375
-20 2 7 -2.1059 -0.1038
-20 2 8 -1.0337 -0.2131
-20 2 9 1.9969 -0.1429
-20 2 10 -2.3294 -0.1484
-20 4 1 -0.6028 0.0598
-20 4 2 -0.2270 -0.1320
-20 4 3 2.2839 -0.2293
-20 4 4 1.6212 0.0396
-20 4 5 -2.5918 -0.2172
-20 4 6 1.3537 -0.0310
-20 4 7 -0.1814 0.1458
-20 4 8 2.8115 -0.0347
-20 4 9 -3.6114 0.1679
-20 4 10 -2.4572 0.0381
-20 6 1 -2.1622 -0.1382
-20 6 2 0.5506 0.0559
-20 6 3 2.5406 0.1090
-20 6 4 -1.4591 -0.0399
-20 6 5 -0.6117 0.0283
-20 6 6 0.2905 -0.1505
-20 6 7 0.1288 -0.0813
-20 6 8 1.2311 -0.0298
-20 6 9 -0.4801 -0.0353
-20 6 10 0.0620 0.1475
-20 8 1 0.7116 0.0591
-20 8 2 -1.6045 0.0544
-20 8 3 -2.1080 -0.0357
-20 8 4 -1.0527 -0.0383
-20 8 5 -1.0133 0.1058
-20 8 6 -0.6311 0.1019
-20 8 7 2.8313 0.0007
-20 8 8 -1.9858 0.0729
-20 8 9 1.8916 0.0409
-20 10 1 0.4999 0.0231
-20 10 2 -4.5854 -0.0668
-20 10 3 1.1964 0.0859
-20 10 4 -3.5301 -0.0357
-20 10 5 1.0684 -0.0814
-20 10 6 4.5075 -0.0043
-20 10 7 1.5438 -0.0663
-20 10 8 0.9791 0.1441
-20 10 9 -2.7162 0.0888
-20 12 1 -5.5963 -0.0973
-20 12 2 1.1017 0.0492
-20 12 3 -2.9177 -0.0366
-20 12 4 -1.4142 0.1323
-20 12 5 1.2513 0.0150
-20 12 6 1.6725 0.0332
-20 12 7 -2.8919 0.0275
-20 12 8 1.2429 -0.1658
-20 12 9 -2.9091 -0.0956
-20 14 1 0.4526 0.0689
-20 14 2 3.9076 0.0337
-20 14 3 -1.1895 -0.0227
-20 14 4 2.7228 -0.0872
-20 14 5 0.2911 -0.0059
-20 14 6 -1.0504 -0.0627
-20 14 7 1.8604 0.0761
-20 14 8 -0.8271 0.0835
-20 16 1 1.1361 -0.0372
-20 16 2 -1.9067 -0.0468
-20 16 3 -2.0083 0.0600
-20 16 4 -2.3380 0.0094
-20 16 5 -1.4805 0.0862
-20 16 6 -2.6308 -0.0502
-20 16 7 1.2822 -0.0104
-20 16 8 -1.4885 -0.1576
-20 18 1 2.1000 0.0716
-20 18 2 -1.6041 0.0147
-20 18 3 1.3747 -0.0265
-20 18 4 -1.1545 0.0003
-20 18 5 2.2500 -0.0133
-20 18 6 1.8939 0.0536
-20 18 7 1.4087 -0.0470
-20 18 8 2.5567 0.0491
-20 20 1 -0.9075 -0.0697
-20 20 2 0.4648 0.0581
-20 20 3 5.1902 -0.0247
-20 20 4 0.7339 0.0336
-20 20 5 -2.8527 -0.0988
-20 20 6 -0.3744 0.0821
-20 22 1 -1.4426 -0.0274
-20 22 2 0.3035 0.0142
-20 22 3 -1.9251 -0.0155
-20 22 4 3.4234 0.0129
-20 22 5 1.5292 0.0664
-20 22 6 -2.4264 -0.0314
-20 24 3 -2.6394 0.1079
-19 1 1 2.5962 -0.0871
-19 1 2 -1.6121 -0.1123
-19 1 3 4.0269 -0.3280
-19 1 4 2.4918 0.0035
-19 1 5 4.2257 0.1870
-19 1 6 -1.0882 -0.0275
-19 1 7 1.7574 0.4189
-19 1 8 -0.6886 0.0457
-19 1 9 -3.8293 -0.1404
-19 1 10 -3.3401 0.0864
-19 3 1 -1.0175 0.1529
-19 3 2 1.4228 0.1057
-19 3 3 0.4024 0.1633
-19 3 4 2.6126 -0.2444
-19 3 5 -2.0971 -0.0889
-19 3 6 -0.4318 0.1156
-19 3 7 0.6698 -0.0764
-19 3 8 2.1328 0.1238
-19 3 9 -0.5048 0.0980
-19 3 10 1.9688 -0.1283
-19 5 1 -1.9773 -0.0523
-19 5 2 -1.4235 0.0010
-19 5 3 -0.2528 0.0181
-19 5 4 -1.4442 0.1323
-19 5 5 -2.3415 -0.0058
-19 5 6 0.7284 0.0164
-19 5 7 -2.0543 -0.1830
-19 5 8 -0.2381 -0.1571
-19 5 9 -1.6141 0.0374
-19 5 10 -2.4061 -0.0616
-19 7 1 0.5111 0.0171
-19 7 2 -6.7859 -0.0774
-19 7 3 -1.4411 -0.1225
-19 7 4 1.6757 0.0799
-19 7 5 3.6037 -0.0107
-19 7 6 2.7921 0.0813
-19 7 7 2.2118 0.1258
-19 7 8 -0.7451 0.0984
-19 7 9 -0.2805 0.0159
-19 7 10 0.7682 -0.1214
-19 9 1 -1.4493 -0.0167
-19 9 2 -1.4197 0.0834
-19 9 3 1.7840 0.1318
-19 9 4 -0.6876 -0.0449
-19 9 5 0.3432 0.0148
-19 9 6 1.4678 -0.2310
-19 9 7 -1.7099 -0.0458
-19 9 8 0.4100 -0.0477
-19 9 9 -0.6585 -0.0693
-19 9 10 -1.1437 0.1706
-19 11 1 -1.9469 -0.0397
-19 11 2 5.6987 -0.0368
-19 11 3 -3.0644 -0.0663
-19 11 4 -1.0825 -0.0853
-19 11 5 -1.8834 0.0873
-19 11 6 -1.8874 0.0645
-19 11 7 0.9477 0.0330
-19 11 8 0.1751 0.0106
-19 11 9 -3.0615 -0.0669
-19 13 1 -1.1296 0.0469
-19 13 2 -2.9794 0.0067
-19 13 3 -0.3279 0.0428
-19 13 4 -1.0344 0.0219
-19 13 5 1.3413 -0.0863
-19 13 6 -0.5402 0.0652
-19 13 7 1.9766 -0.0009
-19 13 8 -0.4155 0.0395
-19 13 9 -0.8387 0.1093
-19 15 1 -2.0733 -0.0957
-19 15 2 0.9483 0.0433
-19 15 3 -1.4138 -0.0547
-19 15 4 -1.2700 0.0738
-19 15 5 1.4786 -0.0025
-19 15 6 0.4402 0.0154
-19 15 7 -0.3508 0.0084
-19 15 8 1.5805 -0.0987
-19 15 9 1.3276 0.0608
-19 17 1 4.2092 0.0711
-19 17 2 0.0868 0.0009
-19 17 3 3.0121 0.0075
-19 17 4 -1.1288 -0.0326
-19 17 5 -1.6596 0.0140
-19 17 6 0.2720 -0.0069
-19 17 7 1.4237 0.0610
-19 17 8 1.5397 -0.0358
-19 17 9 1.7005 0.0912
-19 19 1 -0.5448 -0.0525
-19 19 2 -3.2717 0.0057
-19 19 3 -3.8579 0.0610
-19 19 4 4.9339 0.0078
-19 19 5 -1.7129 0.0795
-19 19 6 -2.4617 -0.0365
-19 19 7 2.6979 -0.1026
-19 21 1 0.6400 0.0457
-19 21 2 1.9405 0.0135
-19 21 3 3.7912 -0.0729
-19 21 4 -0.5199 0.0223
-19 21 5 -0.2553 0.0166
-19 21 6 4.1922 0.0576
-19 21 7 0.7216 -0.2073
-19 23 1 0.5043 -0.0235
-19 23 2 1.7042 0.0126
-19 23 3 1.0261 0.0303
-19 23 4 -3.2679 0.0374
-19 23 5 -0.3952 -0.1493
-19 23 6 -0.3022 0.0134
-19 25 2 -3.5839 0.0074
-19 25 3 1.3557 0.0670
-18 0 2 1.1656 -0.2794
-18 0 4 1.5925 0.1723
-18 0 6 -1.3044 0.3311
-18 0 8 1.5491 -0.1730
-18 0 10 -0.5299 -0.2899
-18 2 1 -2.2324 -0.1857
-18 2 2 -3.3466 0.2004
-18 2 3 3.6039 0.0247
-18 2 4 3.3114 -0.0887
-18 2 5 -1.3082 -0.2646
-18 2 6 -2.6920 -0.3195
-18 2 7 0.5642 -0.0947
-18 2 8 -1.8691 0.0263
-18 2 9 1.2304 0.2472
-18 2 10 -1.1514 0.2161
-18 4 1 1.0215 -0.1436
-18 4 2 -2.9276 0.0736
-18 4 3 -0.6540 -0.0125
-18 4 4 3.5819 0.0094
-18 4 5 0.3955 0.3356
-18 4 6 0.4005 0.0016
-18 4 7 -0.8682 0.0039
-18 4 8 -0.5058 0.0790
-18 4 9 -0.7285 -0.2246
-18 4 10 0.8142 -0.0862
-18 6 1 -0.2599 0.2384
-18 6 2 4.8085 -0.0625
-18 6 3 -2.4680 0.0256
-18 6 4 -0.6697 -0.1336
-18 6 5 -2.7538 -0.0717
-18 6 6 3.8946 0.0783
-18 6 7 -1.3809 0.0103
-18 6 8 1.8676 0.1555
-18 6 9 -0.4621 0.0565
-18 6 10 -1.5153 -0.0911
-18 8 1 -3.7174 -0.0954
-18 8 2 -4.8871 -0.0173
-18 8 3 1.4099 0.0092
-18 8 4 -3.5537 0.1352
-18 8 5 -0.4886 -0.0098
-18 8 6 -1.5341 0.0043
-18 8 7 2.8789 -0.0462
-18 8 8 2.4385 -0.1009
-18 8 9 -1.4026 -0.0357
-18 8 10 -3.4258 -0.0293
-18 10 1 0.6042 0.0278
-18 10 2 -5.1464 0.0404
-18 10 3 0.6657 -0.0835
-18 10 4 0.7216 0.0765
-18 10 5 1.4004 -0.0338
-18 10 6 1.2224 0.0688
-18 10 7 3.4760 0.1476
-18 10 8 -1.6929 -0.0742
-18 10 9 -1.1881 -0.0150
-18 10 10 3.0538 -0.0844
-18 12 1 -0.5982 0.0115
-18 12 2 0.6798 0.0546
-18 12 3 -3.1135 0.0789
-18 12 4 0.2193 -0.1287
-18 12 5 3.5325 0.0169
-18 12 6 2.3341 -0.2030
-18 12 7 -2.9069 -0.0267
-18 12 8 0.4100 0.0089
-18 12 9 -3.1225 -0.0366
-18 12 10 1.1787 0.4299
-18 14 1 -1.3119 -0.0736
-18 14 2 2.7453 -0.0768
-18 14 3 -2.3083 -0.0150
-18 14 4 0.3799 0.0143
-18 14 5 -1.2584 0.0175
-18 14 6 0.5073 0.0952
-18 14 7 0.7647 0.0083
-18 14 8 0.1366 0.0146
-18 14 9 0.5579 -0.0106
-18 16 1 -1.6766 0.0553
-18 16 2 -0.8897 0.0507
-18 16 3 1.0029 0.0050
-18 16 4 -2.1387 -0.0189
-18 16 5 -2.3703 -0.0631
-18 16 6 -3.5788 0.0374
-18 16 7 1.3309 -0.0320
-18 16 8 -3.6880 0.0145
-18 16 9 0.1140 0.1963
-18 18 1 3.0480 -0.0948
-18 18 2 1.6901 -0.0236
-18 18 3 1.6089 -0.0485
-18 18 4 -0.8089 0.1177
-18 18 5 3.2237 0.0149
-18 18 6 3.7744 0.0431
-18 18 7 2.3200 -0.0061
-18 18 8 3.3645 -0.1027
-18 20 1 0.6232 0.0533
-18 20 2 -2.5290 0.0176
-18 20 3 3.4740 0.0198
-18 20 4 1.3606 -0.0605
-18 20 5 0.2097 0.0199
-18 20 6 -0.5953 0.0141
-18 20 7 -3.0932 0.0838
-18 22 1 -0.4336 -0.0330
-18 22 2 0.1284 0.0354
-18 22 3 -2.6534 0.0570
-18 22 4 3.0225 -0.0401
-18 22 5 0.9642 0.0638
-18 22 6 -4.4005 -0.0346
-18 24 1 -2.4065 0.0323
-18 24 2 -0.5157 0.0239
-18 24 3 -0.1769 0.0040
-18 24 4 -0.0380 0.0841
-18 24 5 -5.3598 -0.1025
-18 26 1 -2.5001 0.0388
-18 26 2 3.5061 0.0015
-18 26 3 1.9720 -0.0664
-17 1 1 -1.7255 -0.0187
-17 1 2 -2.6917 0.1111
-17 1 3 -0.8307 0.4155
-17 1 4 3.1145 -0.0653
-17 1 5 3.3307 0.2634
-17 1 6 -1.4165 0.0608
-17 1 7 -2.3557 -0.4395
-17 1 8 -3.2998 -0.0297
-17 1 9 1.4055 -0.1016
-17 1 10 -0.6916 -0.0938
-17 3 1 -1.9682 0.0887
-17 3 2 2.4096 -0.2097
-17 3 3 1.0727 -0.2588
-17 3 4 1.3377 0.4194
-17 3 5 -1.6099 -0.0111
-17 3 6 -0.5943 0.1336
-17 3 7 -0.9532 0.1486
-17 3 8 0.3842 -0.2340
-17 3 9 -0.7891 0.0263
-17 3 10 -2.1368 -0.1514
-17 5 1 -1.1451 -0.0590
-17 5 2 -4.8730 0.0249
-17 5 3 2.2330 -0.0482
-17 5 4 1.8976 -0.1889
-17 5 5 -3.7502 -0.1429
-17 5 6 2.1276 -0.2116
-17 5 7 -0.5069 0.1258
-17 5 8 3.8997 0.1432
-17 5 9 -1.2346 -0.0013
-17 5 10 -0.6713 0.1779
-17 5 11 4.2693 -0.1520
-17 7 1 -1.2905 -0.0607
-17 7 2 -6.4582 0.1455
-17 7 3 -1.9778 0.0942
-17 7 4 1.8104 -0.0188
-17 7 5 2.8568 0.1273
-17 7 6 -0.2985 -0.0592
-17 7 7 1.3382 -0.0845
-17 7 8 -1.3577 -0.0418
-17 7 9 0.0881 -0.1287
-17 7 10 0.9818 0.0285
-17 7 11 2.2602 0.0065
-17 9 1 -1.9675 0.1438
-17 9 2 2.9899 -0.1018
-17 9 3 0.5225 -0.0323
-17 9 4 -2.6483 -0.0788
-17 9 5 1.6046 -0.0353
-17 9 6 2.0138 0.1582
-17 9 7 -2.2648 0.0493
-17 9 8 -0.2345 0.1716
-17 9 9 -1.2710 0.0795
-17 9 10 0.1760 -0.0647
-17 9 11 1.5437 0.2429
-17 11 1 -0.9598 -0.1074
-17 11 2 -0.3392 0.0316
-17 11 3 -2.5234 0.0576
-17 11 4 -1.9928 0.1466
-17 11 5 -0.0820 -0.0628
-17 11 6 -1.1394 -0.0407
-17 11 7 2.4830 -0.0006
-17 11 8 2.6986 -0.1452
-17 11 9 -1.2873 0.0517
-17 11 10 -1.4885 0.0354
-17 13 1 -1.0090 -0.0148
-17 13 2 -0.0836 0.0609
-17 13 3 1.6213 -0.0801
-17 13 4 1.4491 0.0235
-17 13 5 -0.9384 0.0109
-17 13 6 -0.2564 0.0391
-17 13 7 3.0387 0.0973
-17 13 8 -1.7094 -0.1447
-17 13 9 -4.1996 -0.0251
-17 13 10 6.4319 0.0304
-17 15 1 -1.9678 0.0362
-17 15 2 2.8527 -0.0038
-17 15 3 -2.0497 0.0518
-17 15 4 -1.0074 -0.1452
-17 15 5 3.1009 0.0223
-17 15 6 -1.1130 -0.0808
-17 15 7 -0.5818 -0.0490
-17 15 8 1.1764 0.0778
-17 15 9 2.7759 0.1343
-17 15 10 1.8898 0.2777
-17 17 1 3.2496 0.0052
-17 17 2 -1.1417 -0.0363
-17 17 3 -1.8568 -0.0196
-17 17 4 1.7079 0.0597
-17 17 5 0.7032 0.0154
-17 17 6 0.8638 0.0580
-17 17 7 0.5871 -0.0462
-17 17 8 -0.5841 -0.0130
-17 17 9 1.7087 -0.0801
-17 19 1 1.9304 0.0241
-17 19 2 -2.7450 0.0418
-17 19 3 0.2169 -0.0380
-17 19 4 0.8172 -0.0107
-17 19 5 -1.8058 -0.0473
-17 19 6 -0.7043 0.0732
-17 19 7 0.6322 -0.0580
-17 19 8 -5.0269 0.1620
-17 21 1 1.2331 -0.0951
-17 21 2 2.1708 -0.0136
-17 21 3 3.9729 -0.0216
-17 21 4 0.3634 0.0703
-17 21 5 -2.2045 -0.0381
-17 21 6 3.1284 -0.0415
-17 21 7 2.2920 0.0772
-17 23 1 -1.2829 0.0278
-17 23 2 -2.4645 0.0080
-17 23 3 1.9467 0.0619
-17 23 4 0.9924 -0.0814
-17 23 5 2.3063 0.0567
-17 23 6 -0.7342 0.0136
-17 23 7 -0.2495 0.3222
-17 25 1 -1.5088 0.0721
-17 25 2 1.1574 -0.0297
-17 25 3 -1.5765 0.0227
-17 25 4 0.0184 0.0579
-17 27 1 -0.1239 0.0570
-17 27 2 3.0797 0.0149
-16 0 2 -1.3254 0.0997
-16 0 4 1.2011 0.2611
-16 0 6 -3.0161 -0.3986
-16 0 8 -2.7540 -0.1822
-16 0 10 -0.7662 0.3463
-16 2 1 3.0950 0.1188
-16 2 2 -3.2472 -0.2373
-16 2 3 -1.3664 -0.1420
-16 2 4 2.9923 -0.2613
-16 2 5 1.6931 0.1686
-16 2 6 -0.8450 0.2902
-16 2 7 1.8953 0.2584
-16 2 8 0.2965 0.3107
-16 2 9 0.3291 -0.1301
-16 2 10 -0.0347 -0.2400
-16 2 11 -0.1454 -0.1588
-16 4 1 -2.8033 0.1280
-16 4 2 -1.0713 0.0716
-16 4 3 2.1217 0.2623
-16 4 4 3.1292 -0.0272
-16 4 5 0.8704 -0.2673
-16 4 6 0.5760 -0.0111
-16 4 7 -1.4583 -0.2303
-16 4 8 -1.8140 -0.0492
-16 4 9 0.9319 0.2095
-16 4 10 1.3721 -0.0399
-16 4 11 1.4505 0.1437
-16 6 1 -4.1096 -0.1754
-16 6 2 -0.4007 0.0267
-16 6 3 1.4920 -0.1497
-16 6 4 -1.0148 0.2348
-16 6 5 -1.7516 0.0770
-16 6 6 3.0825 0.0511
-16 6 7 -2.8109 0.0582
-16 6 8 -1.7261 -0.1804
-16 6 9 0.3038 -0.0627
-16 6 10 -0.2738 -0.0560
-16 6 11 -3.4612 -0.0295
-16 8 1 -4.5052 0.1111
-16 8 2 -4.9326 0.0320
-16 8 3 -1.2991 0.0168
-16 8 4 2.1252 -0.1005
-16 8 5 0.0384 -0.0127
-16 8 6 -1.8806 -0.0859
-16 8 7 1.1353 0.0915
-16 8 8 5.7810 0.0875
-16 8 9 0.3475 -0.0014
-16 8 10 -2.7465 0.0912
-16 8 11 1.0231 -0.0267
-16 10 1 3.2580 -0.0845
-16 10 2 -0.2923 0.0138
-16 10 3 -1.3695 0.0507
-16 10 4 0.3097 -0.0527
-16 10 5 -0.2211 0.0766
-16 10 6 -3.5120 -0.1113
-16 10 7 2.3189 -0.0581
-16 10 8 -0.4106 -0.0878
-16 10 9 -2.8653 -0.0827
-16 10 10 2.0231 0.1314
-16 10 11 1.5339 0.2152
-16 12 1 0.8540 0.0792
-16 12 2 3.7803 -0.0636
-16 12 3 1.8288 -0.0546
-16 12 4 -0.8625 -0.0015
-16 12 5 1.4582 -0.0538
-16 12 6 2.4026 0.2050
-16 12 7 1.6146 0.0287
-16 12 8 0.1512 0.1038
-16 12 9 -0.5492 0.0894
-16 12 10 1.1909 -0.0588
-16 14 1 -3.4506 -0.0713
-16 14 2 -2.7767 0.0781
-16 14 3 -3.2535 0.0170
-16 14 4 0.1273 0.0853
-16 14 5 0.3200 -0.0689
-16 14 6 1.3013 -0.0406
-16 14 7 0.3778 -0.0181
-16 14 8 -1.9217 -0.0354
-16 14 9 0.5174 0.0773
-16 14 10 0.8051 -0.0236
-16 16 1 1.0459 -0.0199
-16 16 2 1.0855 -0.0216
-16 16 3 -0.1108 -0.0568
-16 16 4 -0.7045 -0.0181
-16 16 5 -1.0728 0.0003
-16 16 6 -0.3214 -0.0205
-16 16 7 -0.2338 0.0289
-16 16 8 -0.0194 -0.0062
-16 16 9 -0.7002 0.0393
-16 16 10 1.4036 -0.1667
-16 18 1 4.8216 0.0531
-16 18 2 0.4169 0.0125
-16 18 3 1.5539 0.0660
-16 18 4 0.2167 -0.0391
-16 18 5 1.2754 0.0387
-16 18 6 1.2559 -0.0353
-16 18 7 1.4597 0.0525
-16 18 8 0.9643 0.0428
-16 18 9 -0.5951 -0.0699
-16 20 1 -1.8466 0.0074
-16 20 2 -2.7910 -0.0292
-16 20 3 3.5395 -0.0128
-16 20 4 2.9093 0.0150
-16 20 5 1.3374 0.0312
-16 20 6 -0.4579 0.0368
-16 20 7 -1.3020 -0.0945
-16 20 8 -2.6608 -0.0575
-16 22 1 -0.6129 0.0137
-16 22 2 1.2362 0.0377
-16 22 3 -1.8157 -0.0404
-16 22 4 -2.6715 0.0258
-16 22 5 1.5934 -0.0763
-16 22 6 -1.7390 0.0978
-16 22 7 1.3431 0.0383
-16 22 8 -2.1008 0.0602
-16 24 1 -1.2075 -0.0571
-16 24 2 2.2076 -0.0087
-16 24 3 -0.5757 0.0426
-16 24 4 0.8682 -0.0153
-16 24 5 -3.3994 -0.0315
-16 24 6 1.3738 0.0338
-16 26 1 -0.3193 0.0725
-16 26 2 -0.7751 -0.0000
-16 26 3 3.9310 -0.0120
-16 28 1 4.3609 0.0679
-16 28 2 1.3495 -0.1801
-15 1 1 -9.2794 0.1638
-15 1 2 -5.4405 -0.0267
-15 1 3 3.2341 -0.2461
-15 1 4 1.4225 0.0520
-15 1 5 -0.4521 -0.5619
-15 1 6 -0.9569 -0.0330
-15 1 7 -2.4047 0.1890
-15 1 8 -3.8344 -0.0346
-15 1 9 4.9017 0.4372
-15 1 10 -0.3517 0.0195
-15 1 11 2.0863 -0.0522
-15 3 1 -4.0366 -0.3161
-15 3 2 1.1110 0.2874
-15 3 3 2.7749 0.1906
-15 3 4 2.9181 -0.2129
-15 3 5 -0.2115 0.1380
-15 3 6 -4.0499 -0.3821
-15 3 7 0.0055 -0.1475
-15 3 8 -2.8077 0.1209
-15 3 9 0.3315 -0.1625
-15 3 10 0.2967 0.3266
-15 3 11 -2.5557 0.1255
-15 5 1 1.5516 0.0925
-15 5 2 -1.1658 -0.0773
-15 5 3 -2.2550 0.0554
-15 5 4 5.7016 0.0073
-15 5 5 -2.0637 0.2135
-15 5 6 4.1589 0.2880
-15 5 7 -1.4395 0.0317
-15 5 8 4.8277 0.0322
-15 5 9 0.8951 -0.1297
-15 5 10 0.8205 -0.1784
-15 5 11 0.3603 -0.0004
-15 7 1 -3.9383 0.1380
-15 7 2 -5.8784 -0.0548
-15 7 3 0.8156 -0.0248
-15 7 4 -0.6340 -0.0312
-15 7 5 1.6959 -0.1997
-15 7 6 -0.9585 -0.0197
-15 7 7 -1.1239 0.0115
-15 7 8 1.0570 0.0073
-15 7 9 0.5592 0.1453
-15 7 10 -0.6123 0.1059
-15 7 11 0.8823 0.0068
-15 9 1 -4.0950 -0.2032
-15 9 2 -0.0935 0.0633
-15 9 3 4.2954 -0.1092
-15 9 4 -1.4682 0.1653
-15 9 5 0.2578 0.0366
-15 9 6 2.2156 0.0683
-15 9 7 1.5423 0.0641
-15 9 8 -2.0851 -0.1931
-15 9 9 -0.6832 -0.0385
-15 9 10 0.5107 -0.0831
-15 9 11 3.9347 -0.0501
-15 11 1 0.4876 0.1795
-15 11 2 1.0305 0.0554
-15 11 3 -0.1476 -0.0205
-15 11 4 1.6933 -0.1017
-15 11 5 -1.4998 0.0084
-15 11 6 -4.7620 -0.0400
-15 11 7 1.6652 0.0507
-15 11 8 3.3016 0.0700
-15 11 9 0.4264 0.0868
-15 11 10 -0.1323 0.0285
-15 11 11 -0.3949 0.0546
-15 13 1 2.3703 -0.0613
-15 13 2 2.3807 -0.0662
-15 13 3 -1.2445 0.0829
-15 13 4 0.7909 -0.0360
-15 13 5 1.4733 0.0484
-15 13 6 1.5636 -0.0802
-15 13 7 0.2862 -0.1280
-15 13 8 1.4928 0.0450
-15 13 9 -4.8042 -0.0491
-15 13 10 1.4939 0.0710
-15 13 11 -1.2282 0.0656
-15 15 1 -1.3423 0.0472
-15 15 2 2.1693 -0.0349
-15 15 3 -1.6665 -0.0478
-15 15 4 -3.5217 0.0501
-15 15 5 1.3706 -0.0586
-15 15 6 -1.9368 0.0824
-15 15 7 -0.4276 0.0134
-15 15 8 -2.3368 0.0576
-15 15 9 0.5903 0.0647
-15 15 10 4.3581 -0.0566
-15 15 11 0.6659 -0.0548
-15 17 1 0.2986 -0.0644
-15 17 2 -0.7380 0.0633
-15 17 3 -0.7897 0.0090
-15 17 4 2.5969 0.0150
-15 17 5 0.0955 -0.0453
-15 17 6 0.4530 -0.0266
-15 17 7 2.8503 -0.0396
-15 17 8 -1.7997 0.0025
-15 17 9 1.6776 0.0175
-15 17 10 0.8107 -0.2506
-15 19 1 3.4315 -0.0133
-15 19 2 -1.7518 -0.0440
-15 19 3 1.4406 -0.0617
-15 19 4 1.7289 0.0155
-15 19 5 0.5322 0.0394
-15 19 6 1.7297 0.0438
-15 19 7 -1.4235 0.1406
-15 19 8 -0.5188 -0.0286
-15 19 9 0.6139 -0.0674
-15 21 1 4.9234 0.0476
-15 21 2 -0.6763 0.0038
-15 21 3 -0.6641 0.0543
-15 21 4 -0.2229 -0.1064
-15 21 5 -0.4695 0.0216
-15 21 6 -0.9575 0.0045
-15 21 7 1.5226 0.0532
-15 21 8 -1.4194 0.0006
-15 23 1 -1.5736 -0.0120
-15 23 2 -2.7974 -0.0075
-15 23 3 4.4308 -0.0062
-15 23 4 3.0698 0.0562
-15 23 5 -0.8604 0.0056
-15 23 6 0.0186 0.0755
-15 23 7 1.3718 -0.0630
-15 23 8 -0.6178 0.0247
-15 25 1 -3.4609 0.0030
-15 25 2 1.9543 0.0122
-15 25 3 -0.1275 -0.0280
-15 25 4 -2.5863 0.1263
-15 25 5 -0.4913 -0.0516
-15 25 6 2.1584 0.0106
-15 27 1 -0.6846 -0.0111
-15 27 2 3.9881 0.0024
-15 27 3 0.5609 0.0063
-15 29 1 2.4218 0.1216
-15 29 2 -3.1604 -0.0488
-14 0 2 4.4156 0.2182
-14 0 4 0.3541 -0.7305
-14 0 6 -1.4583 0.0559
-14 0 8 -3.3157 0.5384
-14 0 10 3.3516 -0.0132
-14 2 1 -2.1730 0.0758
-14 2 2 -1.3556 -0.0392
-14 2 3 -2.5624 0.1888
-14 2 4 1.7121 0.5964
-14 2 5 3.1652 0.0854
-14 2 6 -1.3941 0.0903
-14 2 7 -0.5306 -0.2537
-14 2 8 -2.1458 -0.4859
-14 2 9 -0.0372 -0.0681
-14 2 10 -0.1536 -0.0709
-14 2 11 0.5599 0.2533
-14 4 1 2.5082 -0.0309
-14 4 2 -7.6749 -0.1973
-14 4 3 2.8846 -0.3952
-14 4 4 10.1600 0.0706
-14 4 5 0.6234 -0.0120
-14 4 6 -0.3244 0.0167
-14 4 7 -1.1824 0.4091
-14 4 8 -0.5200 -0.0030
-14 4 9 3.4323 -0.0278
-14 4 10 0.3105 0.0907
-14 4 11 -1.7861 -0.3417
-14 6 1 -3.0550 -0.0511
-14 6 2 -8.3568 0.1462
-14 6 3 7.5457 0.1852
-14 6 4 -1.5147 -0.2301
-14 6 5 -2.7399 -0.0146
-14 6 6 1.1943 -0.2162
-14 6 7 -3.0082 -0.0908
-14 6 8 -2.3417 0.0647
-14 6 9 0.9546 0.0016
-14 6 10 -0.0034 0.2062
-14 6 11 -0.3637 0.0571
-14 8 1 -8.9494 0.0119
-14 8 2 9.2091 -0.0446
-14 8 3 -2.4104 -0.0189
-14 8 4 0.9298 -0.0135
-14 8 5 -2.7187 0.0289
-14 8 6 -4.2835 0.1341
-14 8 7 0.8575 -0.0688
-14 8 8 5.2136 -0.0431
-14 8 9 0.5201 0.0360
-14 8 10 -0.1628 -0.1130
-14 8 11 -0.0018 0.1119
-14 10 1 2.7244 0.0775
-14 10 2 -5.2313 -0.0349
-14 10 3 -0.4241 0.0058
-14 10 4 0.6880 0.0117
-14 10 5 1.1462 -0.0846
-14 10 6 -3.2981 0.1002
-14 10 7 -0.2157 0.0125
-14 10 8 2.6546 0.1626
-14 10 9 -0.5312 0.1864
-14 10 10 1.6153 -0.0357
-14 10 11 0.5783 0.1030
-14 12 1 2.7222 -0.1398
-14 12 2 2.1523 0.0919
-14 12 3 4.4545 -0.0194
-14 12 4 -0.9043 0.1911
-14 12 5 0.2287 0.0162
-14 12 6 3.0339 -0.0627
-14 12 7 5.0704 0.0245
-14 12 8 -0.9345 -0.1707
-14 12 9 0.7352 -0.0760
-14 12 10 1.5723 -0.0649
-14 12 11 0.9424 0.0449
-14 14 1 -2.5420 0.1204
-14 14 2 1.7555 -0.0331
-14 14 3 -0.5531 -0.0321
-14 14 4 -0.7167 -0.1418
-14 14 5 -1.4029 0.0546
-14 14 6 -0.3483 -0.0080
-14 14 7 1.5866 0.0478
-14 14 8 0.0338 0.0878
-14 14 9 -2.1456 -0.0716
-14 14 10 -0.5623 -0.0117
-14 14 11 1.5166 -0.1757
-14 16 1 0.7714 -0.0064
-14 16 2 0.6532 -0.0344
-14 16 3 -3.0735 0.0501
-14 16 4 2.5597 -0.0023
-14 16 5 1.5418 -0.0224
-14 16 6 0.2426 -0.0628
-14 16 7 -0.6080 -0.0976
-14 16 8 0.1979 -0.0023
-14 16 9 0.1001 -0.0484
-14 16 10 -1.3301 0.0163
-14 18 1 4.0067 0.0462
-14 18 2 -2.8424 -0.0014
-14 18 3 -1.2447 -0.0600
-14 18 4 0.0900 0.0110
-14 18 5 0.5084 -0.0317
-14 18 6 0.0585 0.0911
-14 18 7 -1.2663 -0.0077
-14 18 8 -2.7812 0.0428
-14 18 9 -1.6181 -0.0116
-14 18 10 0.7199 -0.1248
-14 20 1 0.6885 -0.0622
-14 20 2 -0.8710 0.0280
-14 20 3 5.4274 -0.0045
-14 20 4 -0.0844 0.0196
-14 20 5 -1.3401 -0.0397
-14 20 6 0.7994 0.0054
-14 20 7 -0.0164 0.0357
-14 20 8 -1.5321 0.0365
-14 20 9 -1.6711 0.1577
-14 22 1 -0.1103 -0.0275
-14 22 2 0.5977 0.0067
-14 22 3 1.6541 0.0090
-14 22 4 -1.3308 -0.0345
-14 22 5 2.1042 0.0216
-14 22 6 0.7005 -0.0475
-14 22 7 1.7956 0.1115
-14 22 8 0.3623 -0.1129
-14 24 1 -1.9296 0.0233
-14 24 2 1.6913 -0.0432
-14 24 3 -2.0780 0.0409
-14 24 4 0.4022 -0.0350
-14 24 5 0.7819 0.0547
-14 24 6 -1.8053 0.0993
-14 24 7 1.5164 0.0014
-14 24 8 -2.1256 0.1766
-14 26 1 1.2397 0.0438
-14 26 2 0.2243 -0.0293
-14 26 3 2.6285 -0.0587
-14 26 4 2.8242 0.1580
-14 26 5 -0.7626 -0.0600
-14 28 1 0.9989 0.0320
-14 28 2 -0.7498 -0.0232
-14 28 3 -3.2309 0.0126
-14 30 1 -1.5117 0.0564
-14 30 2 -2.0411 0.1123
-13 1 1 -5.8376 -0.2399
-13 1 2 -10.4148 -0.1338
-13 1 3 3.9978 -0.1802
-13 1 4 3.9909 -0.0647
-13 1 5 4.0210 0.5678
-13 1 6 -4.0890 -0.0039
-13 1 7 -2.6056 0.2838
-13 1 8 -3.4158 0.1121
-13 1 9 3.9358 -0.4819
-13 1 10 -0.9827 0.0501
-13 1 11 -0.0592 -0.0467
-13 3 1 0.7214 0.4100
-13 3 2 8.7497 -0.2931
-13 3 3 -2.4184 0.0902
-13 3 4 2.0938 -0.2719
-13 3 5 0.1252 -0.2510
-13 3 6 -1.2250 0.4000
-13 3 7 0.0302 0.0276
-13 3 8 -1.8102 0.2181
-13 3 9 2.5190 0.2302
-13 3 10 2.2534 -0.3115
-13 3 11 -0.3344 -0.0042
-13 5 1 -1.0340 -0.0991
-13 5 2 -3.0985 0.1998
-13 5 3 5.6433 0.0270
-13 5 4 3.3215 0.2592
-13 5 5 -1.6646 -0.1863
-13 5 6 4.5548 -0.1575
-13 5 7 0.1092 -0.1282
-13 5 8 -0.3701 -0.2984
-13 5 9 0.6161 0.1758
-13 5 10 2.3228 0.1234
-13 5 11 -0.6236 0.0303
-13 7 1 -7.0062 -0.0726
-13 7 2 -5.4614 -0.0092
-13 7 3 3.2329 -0.1254
-13 7 4 4.7336 0.0389
-13 7 5 1.2670 0.1540
-13 7 6 -3.0797 0.1047
-13 7 7 -3.3171 0.1035
-13 7 8 3.7916 -0.0379
-13 7 9 2.2159 -0.0979
-13 7 10 -0.7834 -0.0600
-13 7 11 -0.4128 -0.0679
-13 9 1 -0.6343 0.0653
-13 9 2 -7.2296 0.0391
-13 9 3 1.2838 0.0888
-13 9 4 2.3883 -0.1884
-13 9 5 -0.8162 -0.0126
-13 9 6 -1.1908 -0.1972
-13 9 7 0.1219 -0.0727
-13 9 8 -0.4542 0.0694
-13 9 9 0.5496 0.0065
-13 9 10 -0.5112 0.1534
-13 9 11 3.3726 0.1148
-13 11 1 -0.7198 -0.0479
-13 11 2 10.6951 -0.1395
-13 11 3 3.9417 -0.0672
-13 11 4 -2.0870 0.0232
-13 11 5 -6.0283 0.0193
-13 11 6 -7.8166 0.1473
-13 11 7 3.1035 -0.0410
-13 11 8 2.3872 0.0673
-13 11 9 -0.8983 -0.0306
-13 11 10 -0.1549 -0.0623
-13 11 11 -0.2381 0.2243
-13 13 1 0.2679 0.0604
-13 13 2 -0.4632 0.0244
-13 13 3 2.1674 -0.0105
-13 13 4 1.0562 0.0351
-13 13 5 1.8124 -0.0536
-13 13 6 2.3233 0.0994
-13 13 7 1.8847 0.0547
-13 13 8 2.3823 0.1210
-13 13 9 -1.8329 0.0828
-13 13 10 -0.5334 -0.1192
-13 13 11 -1.2330 -0.0944
-13 15 1 0.6060 -0.0936
-13 15 2 -0.1082 0.0097
-13 15 3 -0.8299 -0.0264
-13 15 4 -1.5985 0.0832
-13 15 5 -0.1467 0.0169
-13 15 6 -1.1835 -0.0908
-13 15 7 -0.5915 -0.0141
-13 15 8 -3.0045 -0.1067
-13 15 9 -2.4670 -0.0888
-13 15 10 5.8475 0.0165
-13 15 11 2.3823 -0.1726
-13 17 1 2.8627 0.0554
-13 17 2 0.9990 -0.0312
-13 17 3 -2.5380 0.0435
-13 17 4 -0.9160 -0.0511
-13 17 5 -1.2736 0.0683
-13 17 6 2.6494 -0.0061
-13 17 7 2.4570 0.0230
-13 17 8 0.3195 0.0203
-13 17 9 2.0604 -0.0118
-13 17 10 0.4145 -0.0623
-13 19 1 1.8264 0.0137
-13 19 2 -0.8405 0.0262
-13 19 3 1.8511 0.0274
-13 19 4 2.3126 -0.0003
-13 19 5 0.9385 0.0316
-13 19 6 1.6341 -0.0664
-13 19 7 0.6611 -0.0556
-13 19 8 -1.1284 -0.0347
-13 19 9 -0.0483 -0.0656
-13 19 10 -5.4913 -0.0982
-13 21 1 3.2021 0.0217
-13 21 2 -1.9016 -0.0109
-13 21 3 -0.0673 -0.0457
-13 21 4 -1.5941 0.0139
-13 21 5 1.1680 -0.0489
-13 21 6 -1.0398 0.1014
-13 21 7 0.4144 -0.1102
-13 21 8 -2.5665 0.0321
-13 21 9 -1.2156 0.0374
-13 23 1 0.3142 -0.0387
-13 23 2 -1.7729 0.0519
-13 23 3 2.1252 0.0010
-13 23 4 1.0365 0.0230
-13 23 5 -0.9819 -0.0340
-13 23 6 -0.8460 -0.0170
-13 23 7 -0.7580 0.0866
-13 23 8 -0.7342 0.0046
-13 25 1 -2.4874 -0.0400
-13 25 2 1.8153 -0.0476
-13 25 3 2.2420 0.0001
-13 25 4 -1.5341 -0.0639
-13 25 5 -1.2269 -0.0007
-13 25 6 1.8925 -0.0286
-13 25 7 1.6400 0.0500
-13 25 8 1.9901 0.2079
-13 27 1 -1.8543 0.0419
-13 27 2 2.4481 0.0368
-13 27 3 -0.0520 0.0457
-13 27 4 1.8994 0.1260
-13 27 5 -0.8122 -0.0085
-13 29 1 0.2663 0.0227
-13 29 2 -3.1959 -0.0299
-13 29 3 -0.7461 0.0130
-13 31 1 -2.1928 0.0798
-13 31 2 -0.4587 -0.0667
-12 0 2 -2.9565 -0.4849
-12 0 4 1.0628 0.6826
-12 0 6 -0.5776 0.5650
-12 0 8 -1.3915 -0.4556
-12 0 10 2.6421 -0.4971
-12 2 1 0.0784 -0.0881
-12 2 2 4.5998 0.4352
-12 2 3 -1.7443 -0.1152
-12 2 4 3.1409 -0.4784
-12 2 5 -1.8415 -0.3334
-12 2 6 -3.6878 -0.5294
-12 2 7 1.2598 0.0960
-12 2 8 -5.6838 0.3087
-12 2 9 -0.3596 0.2533
-12 2 10 0.8495 0.4657
-12 2 11 0.5841 -0.0473
-12 4 1 7.0220 -0.1645
-12 4 2 0.0367 0.1284
-12 4 3 3.3951 0.3088
-12 4 4 12.2352 -0.0836
-12 4 5 0.4981 0.3640
-12 4 6 -2.4935 0.0481
-12 4 7 -1.8276 -0.3133
-12 4 8 2.4926 0.0161
-12 4 9 4.9471 -0.2423
-12 4 10 -0.0102 -0.0316
-12 4 11 -1.0943 0.2606
-12 6 1 -1.1653 0.3297
-12 6 2 -16.1798 -0.2860
-12 6 3 5.1416 -0.0946
-12 6 4 0.0294 0.0949
-12 6 5 -3.7739 -0.0756
-12 6 6 -0.5564 0.2927
-12 6 7 -4.3703 0.1208
-12 6 8 0.3002 0.0706
-12 6 9 1.5916 0.1480
-12 6 10 -1.8626 -0.1829
-12 6 11 -1.1423 -0.0368
-12 8 1 -5.2724 -0.2105
-12 8 2 4.6737 0.0349
-12 8 3 -0.1692 -0.0665
-12 8 4 -1.8769 0.0884
-12 8 5 -3.1739 -0.0918
-12 8 6 -3.0230 -0.1371
-12 8 7 3.6075 0.0233
-12 8 8 1.5920 -0.0736
-12 8 9 -0.0838 -0.0100
-12 8 10 2.7089 0.0734
-12 8 11 2.9255 0.0810
-12 10 1 -3.3141 0.0088
-12 10 2 -3.3787 0.0397
-12 10 3 6.0099 -0.0584
-12 10 4 2.8161 0.0501
-12 10 5 -1.0611 0.0573
-12 10 6 -1.5957 0.0281
-12 10 7 2.2045 0.0622
-12 10 8 3.4277 -0.0247
-12 10 9 0.4951 -0.0919
-12 10 10 1.3478 -0.0715
-12 10 11 -0.6236 -0.0987
-12 12 1 -0.3574 0.1328
-12 12 2 0.1932 -0.0145
-12 12 3 6.4229 0.0916
-12 12 4 1.2381 -0.1760
-12 12 5 -0.7898 0.0302
-12 12 6 -0.5722 -0.1295
-12 12 7 0.9048 -0.0757
-12 12 8 0.8336 0.1463
-12 12 9 0.7040 -0.0130
-12 12 10 -0.0250 0.0914
-12 12 11 1.7969 0.1167
-12 14 1 1.8045 -0.0366
-12 14 2 4.2957 -0.1016
-12 14 3 -0.7072 -0.0116
-12 14 4 -2.1533 0.0860
-12 14 5 -0.6253 -0.0361
-12 14 6 -0.1519 0.0463
-12 14 7 2.4145 -0.0544
-12 14 8 1.1137 -0.0413
-12 14 9 -3.6959 -0.0539
-12 14 10 -1.3955 -0.0723
-12 14 11 -0.1567 -0.1114
-12 16 1 -1.8025 0.0012
-12 16 2 0.1204 0.0657
-12 16 3 -1.6926 -0.0372
-12 16 4 -1.6613 0.0129
-12 16 5 -0.3958 -0.0395
-12 16 6 -0.5247 0.0609
-12 16 7 1.7491 0.0577
-12 16 8 -3.9475 0.0125
-12 16 9 -0.8966 0.0243
-12 16 10 -0.1345 0.0497
-12 16 11 -1.9296 0.0702
-12 18 1 1.2376 -0.1079
-12 18 2 -0.6096 -0.0170
-12 18 3 0.8067 -0.0196
-12 18 4 1.9724 0.0017
-12 18 5 -1.8490 0.0064
-12 18 6 0.6611 -0.0068
-12 18 7 -0.6923 0.0056
-12 18 8 -1.2500 -0.0841
-12 18 9 -1.0168 0.0287
-12 18 10 0.0700 -0.1310
-12 20 1 3.0892 0.0061
-12 20 2 -1.5756 -0.0081
-12 20 3 1.7506 -0.0070
-12 20 4 -1.0344 -0.0590
-12 20 5 0.3894 0.0662
-12 20 6 1.5699 0.0240
-12 20 7 -2.1398 0.1055
-12 20 8 0.1513 0.0792
-12 20 9 -1.2455 0.0198
-12 20 10 -0.7314 0.1097
-12 22 1 3.2853 0.0413
-12 22 2 1.7072 0.0007
-12 22 3 0.9319 0.0662
-12 22 4 -1.5855 -0.0003
-12 22 5 1.5559 0.0061
-12 22 6 1.1636 0.0143
-12 22 7 3.0204 -0.1133
-12 22 8 0.9101 0.0090
-12 22 9 -0.4806 0.0858
-12 24 1 -3.5760 -0.0184
-12 24 2 -0.1425 0.0298
-12 24 3 1.3367 -0.0275
-12 24 4 -1.2045 0.1127
-12 24 5 -0.1340 -0.0325
-12 24 6 -0.0835 -0.0030
-12 24 7 1.3985 -0.1496
-12 24 8 -4.8574 -0.0298
-12 26 1 -1.4969 -0.0134
-12 26 2 1.0131 0.0161
-12 26 3 0.3760 0.0119
-12 26 4 0.0907 0.0142
-12 26 5 -0.1077 0.0259
-12 26 6 -2.3247 -0.0380
-12 26 7 -2.5064 -0.0973
-12 28 1 -0.1820 0.0106
-12 28 2 -1.0143 0.0488
-12 28 3 -1.0782 0.0352
-12 28 4 -0.4547 -0.0282
-12 28 5 -5.1621 0.0318
-12 30 1 -0.3025 0.1089
-12 30 2 0.5816 0.0951
-12 30 3 0.4465 -0.1273
-12 32 1 -1.6571 0.0257
-11 1 1 -12.6178 0.2276
-11 1 2 -1.5423 0.2093
-11 1 3 21.2789 0.6079
-11 1 4 1.9488 -0.0133
-11 1 5 5.1435 -0.2402
-11 1 6 -3.7146 0.0432
-11 1 7 -3.9529 -0.5864
-11 1 8 -2.1023 -0.0520
-11 1 9 0.5407 0.1543
-11 1 10 -0.8240 -0.1077
-11 1 11 0.5329 0.4501
-11 3 1 7.7651 -0.1921
-11 3 2 5.0961 -0.0362
-11 3 3 -6.5496 -0.3378
-11 3 4 8.8782 0.6875
-11 3 5 -0.8209 0.2011
-11 3 6 -3.2814 -0.0602
-11 3 7 0.1667 0.2087
-11 3 8 -0.9888 -0.5098
-11 3 9 3.0502 -0.1030
-11 3 10 0.8599 0.0183
-11 3 11 0.7843 -0.1198
-11 5 1 9.4936 0.0982
-11 5 2 -8.5880 -0.1466
-11 5 3 1.8666 -0.1566
-11 5 4 6.0863 -0.3785
-11 5 5 0.4438 0.0474
-11 5 6 3.3408 -0.0627
-11 5 7 0.0382 0.1699
-11 5 8 -1.7648 0.3603
-11 5 9 0.6969 -0.0192
-11 5 10 2.0501 0.0904
-11 5 11 -0.9453 -0.1354
-11 7 1 -10.1543 -0.0540
-11 7 2 5.0203 0.0498
-11 7 3 8.2973 0.1576
-11 7 4 -1.9182 -0.0409
-11 7 5 -3.5391 -0.0640
-11 7 6 -2.8757 -0.1098
-11 7 7 -2.1883 -0.2138
-11 7 8 2.8389 -0.0821
-11 7 9 1.2540 0.0358
-11 7 10 -1.6483 0.0427
-11 7 11 1.9660 0.2649
-11 7 12 5.2494 -0.1055
-11 9 1 -0.2202 0.1191
-11 9 2 -14.3753 -0.1139
-11 9 3 1.5081 -0.0588
-11 9 4 3.9243 0.0148
-11 9 5 -6.0487 -0.0613
-11 9 6 -7.2006 0.2425
-11 9 7 -1.0726 0.0414
-11 9 8 2.6604 0.1042
-11 9 9 1.2529 0.0519
-11 9 10 1.2409 -0.1280
-11 9 11 2.5480 0.0597
-11 9 12 1.7829 -0.0147
-11 11 1 -0.3471 -0.1355
-11 11 2 2.5849 0.1111
-11 11 3 2.1863 0.0659
-11 11 4 -0.2868 0.0815
-11 11 5 -2.5379 -0.0595
-11 11 6 -5.2902 -0.0729
-11 11 7 4.1671 0.0291
-11 11 8 1.7146 -0.0055
-11 11 9 -0.9617 0.0164
-11 11 10 0.0992 0.1084
-11 11 11 -0.1278 -0.0436
-11 11 12 -6.6113 0.1114
-11 13 1 -3.4838 -0.0359
-11 13 2 2.5750 -0.0255
-11 13 3 6.9746 -0.0452
-11 13 4 -0.2626 0.0239
-11 13 5 2.6475 0.1051
-11 13 6 2.2996 0.0000
-11 13 7 4.0354 0.0889
-11 13 8 1.7557 -0.0668
-11 13 9 -2.3005 -0.1131
-11 13 10 0.5109 -0.0599
-11 13 11 -1.3305 -0.1285
-11 15 1 -2.6215 0.0953
-11 15 2 1.6463 -0.0427
-11 15 3 6.7829 0.0435
-11 15 4 0.4038 -0.1144
-11 15 5 -6.2454 0.0395
-11 15 6 -0.8133 0.0030
-11 15 7 2.4645 -0.0623
-11 15 8 -0.8478 0.0957
-11 15 9 -2.4184 -0.0359
-11 15 10 2.3289 0.0127
-11 15 11 3.4056 -0.1642
-11 17 1 2.5005 0.0102
-11 17 2 -0.0675 -0.0114
-11 17 3 -6.3275 -0.0418
-11 17 4 -1.9207 0.0797
-11 17 5 -1.6820 0.0078
-11 17 6 3.0279 -0.0068
-11 17 7 0.8804 -0.1180
-11 17 8 -1.3925 -0.0992
-11 17 9 0.7658 -0.0305
-11 17 10 -0.1208 -0.0855
-11 17 11 -0.7455 0.0274
-11 19 1 1.9409 0.0255
-11 19 2 1.2285 0.0383
-11 19 3 -0.2244 -0.0366
-11 19 4 -3.3289 0.0201
-11 19 5 1.6309 -0.0227
-11 19 6 1.4854 0.0270
-11 19 7 0.6023 -0.0684
-11 19 8 -3.2000 0.0506
-11 19 9 -0.5672 0.1014
-11 19 10 -2.7487 -0.1460
-11 21 1 4.2242 -0.0596
-11 21 2 0.9700 0.0361
-11 21 3 3.1322 0.0170
-11 21 4 -2.6573 0.0100
-11 21 5 -0.5578 -0.0086
-11 21 6 1.9546 -0.1008
-11 21 7 0.9580 0.0222
-11 21 8 -1.5692 0.0415
-11 21 9 -0.7598 0.1181
-11 23 1 -0.7789 0.0124
-11 23 2 -3.1016 -0.0029
-11 23 3 1.4404 0.0234
-11 23 4 1.4815 -0.0861
-11 23 5 2.1067 0.0029
-11 23 6 0.2450 -0.0312
-11 23 7 -3.0251 0.0275
-11 23 8 -0.2644 0.0723
-11 23 9 -1.5866 0.0399
-11 25 1 -2.7194 -0.0083
-11 25 2 3.2581 -0.0679
-11 25 3 -0.4365 -0.0037
-11 25 4 -3.1606 0.0350
-11 25 5 -1.3612 -0.0178
-11 25 6 -1.4762 0.0513
-11 25 7 -0.1526 0.0696
-11 25 8 1.8380 0.1821
-11 27 1 -0.6185 0.0009
-11 27 2 1.8483 0.0257
-11 27 3 -1.2244 -0.0193
-11 27 4 1.6688 0.0739
-11 27 5 -0.9590 -0.0275
-11 27 6 1.8986 -0.0636
-11 29 1 -1.0255 0.0066
-11 29 2 -3.4639 0.0542
-11 29 3 0.6708 0.0427
-11 29 4 -2.6854 0.0360
-11 29 5 -0.9095 -0.0040
-11 31 1 -0.5725 -0.1125
-11 31 2 0.9375 0.0031
-11 31 3 2.3083 -0.0041
-11 33 1 -2.2493 0.1096
-10 0 2 -15.2038 0.5906
-10 0 4 7.3204 0.0897
-10 0 6 -10.6267 -0.8426
-10 0 8 0.3114 -0.1358
-10 0 10 -1.3909 0.7058
-10 2 1 8.0901 0.0548
-10 2 2 18.5041 -0.6118
-10 2 3 -11.5928 -0.0474
-10 2 4 4.5758 -0.1905
-10 2 5 0.6134 0.3370
-10 2 6 -4.1100 0.7210
-10 2 7 1.6364 0.1091
-10 2 8 -3.0493 0.2679
-10 2 9 0.0818 -0.1530
-10 2 10 0.6341 -0.6129
-10 2 11 0.2250 -0.0944
-10 2 12 1.4238 -0.1548
-10 4 1 10.5417 0.3616
-10 4 2 3.1488 0.0370
-10 4 3 10.4664 -0.0147
-10 4 4 4.8815 0.0630
-10 4 5 -6.2683 -0.5153
-10 4 6 0.9334 0.0006
-10 4 7 0.8922 -0.0243
-10 4 8 0.7329 -0.0079
-10 4 9 4.5010 0.4911
-10 4 10 1.0157 -0.0565
-10 4 11 0.7781 0.0890
-10 4 12 2.0914 0.0865
-10 6 1 5.7670 -0.3290
-10 6 2 -18.4592 0.1956
-10 6 3 2.4725 -0.0617
-10 6 4 4.9017 0.2128
-10 6 5 -6.3259 0.1007
-10 6 6 -3.8086 -0.1354
-10 6 7 -0.0399 -0.0106
-10 6 8 1.9119 -0.1739
-10 6 9 -0.7157 -0.1595
-10 6 10 -0.7249 0.0669
-10 6 11 -0.9065 -0.0195
-10 6 12 3.2474 -0.0431
-10 8 1 -5.1256 0.1855
-10 8 2 -4.5813 -0.0483
-10 8 3 -3.2397 0.0898
-10 8 4 4.0648 -0.1254
-10 8 5 0.0721 0.1335
-10 8 6 -1.7219 0.0159
-10 8 7 0.6666 0.0247
-10 8 8 1.9567 0.1657
-10 8 9 1.0531 -0.1486
-10 8 10 1.2956 -0.0210
-10 8 11 4.0345 0.0441
-10 8 12 -3.0775 -0.1881
-10 10 1 -8.1771 -0.0583
-10 10 2 -1.3828 -0.1178
-10 10 3 11.3495 0.0339
-10 10 4 -3.1022 -0.0586
-10 10 5 -3.5904 -0.0727
-10 10 6 -0.6286 -0.2000
-10 10 7 2.0499 -0.1172
-10 10 8 0.4254 -0.0114
-10 10 9 -0.3627 -0.1002
-10 10 10 -0.0009 0.1409
-10 10 11 -1.4296 0.0886
-10 12 1 -2.4207 -0.0049
-10 12 2 -2.3329 -0.1088
-10 12 3 10.3295 -0.0684
-10 12 4 -0.9299 0.0531
-10 12 5 -5.3363 -0.0225
-10 12 6 -1.9850 0.2078
-10 12 7 2.4111 0.0273
-10 12 8 1.4977 0.0615
-10 12 9 -0.8125 0.0401
-10 12 10 -1.2210 -0.1201
-10 12 11 1.2841 0.0412
-10 12 12 1.4178 0.1317
-10 14 1 2.0268 -0.0521
-10 14 2 1.5847 0.1111
-10 14 3 1.0634 0.0011
-10 14 4 1.1427 0.0234
-10 14 5 0.8901 -0.0556
-10 14 6 -1.7708 -0.0682
-10 14 7 3.2931 0.0372
-10 14 8 0.9228 -0.0207
-10 14 9 -2.9561 0.0747
-10 14 10 0.9989 0.0595
-10 14 11 0.8748 -0.1228
-10 14 12 -1.9838 -0.3440
-10 16 1 -4.5929 -0.0317
-10 16 2 3.3351 -0.0301
-10 16 3 -0.2736 -0.0022
-10 16 4 -6.0211 -0.0078
-10 16 5 -0.3643 0.0818
-10 16 6 1.3215 0.0319
-10 16 7 -0.3088 0.0360
-10 16 8 -3.0337 -0.0221
-10 16 9 -1.5741 -0.0537
-10 16 10 1.3216 0.0231
-10 16 11 -1.0726 0.0452
-10 18 1 -0.4005 0.0220
-10 18 2 1.6175 0.0151
-10 18 3 1.0599 0.0569
-10 18 4 -0.3446 -0.0341
-10 18 5 -4.4332 0.0254
-10 18 6 2.4781 -0.0276
-10 18 7 2.9513 0.0664
-10 18 8 -0.2202 0.0575
-10 18 9 -0.1655 -0.0120
-10 18 10 -2.7993 -0.0670
-10 18 11 2.5134 -0.2577
-10 20 1 1.8106 -0.0385
-10 20 2 -0.8633 0.0148
-10 20 3 0.3059 -0.0242
-10 20 4 0.2807 0.0070
-10 20 5 1.7081 -0.0281
-10 20 6 1.0869 -0.0002
-10 20 7 -1.3740 -0.0812
-10 20 8 -1.0337 -0.0157
-10 20 9 -1.8385 -0.0644
-10 20 10 -1.1510 0.1212
-10 22 1 3.1778 0.0036
-10 22 2 3.0647 0.0237
-10 22 3 -0.7016 0.0113
-10 22 4 -3.5521 0.0729
-10 22 5 1.9979 -0.0454
-10 22 6 0.1910 0.0696
-10 22 7 0.9180 -0.0358
-10 22 8 -0.1665 -0.0216
-10 22 9 0.6133 0.1269
-10 24 1 -0.5320 -0.0484
-10 24 2 0.6166 0.0423
-10 24 3 1.2604 0.0466
-10 24 4 -3.3089 -0.0306
-10 24 5 -0.1562 0.0377
-10 24 6 0.6004 -0.0228
-10 24 7 -0.9955 -0.0694
-10 24 8 -3.2998 -0.1804
-10 24 9 0.3379 -0.1163
-10 26 1 -0.6030 0.0515
-10 26 2 -0.0631 -0.0024
-10 26 3 -0.4031 -0.0298
-10 26 4 0.6427 -0.0576
-10 26 5 -0.0858 0.0074
-10 26 6 0.3173 0.0199
-10 26 7 -2.1978 -0.1104
-10 26 8 2.7690 -0.0527
-10 28 1 -1.4590 0.0315
-10 28 2 -0.9987 0.0932
-10 28 3 -0.0439 -0.0059
-10 28 4 -1.4125 0.0639
-10 28 5 -4.3360 0.0256
-10 28 6 -2.7533 0.0299
-10 30 1 -1.9669 0.0360
-10 30 2 1.7796 0.0036
-10 30 3 -0.9532 -0.1505
-10 30 4 0.0256 -0.2015
-10 30 5 -0.3815 0.0474
-10 32 1 1.5791 0.0887
-10 32 2 3.0641 -0.1427
-10 32 3 1.2020 0.1016
-9 1 1 -13.8931 -0.0502
-9 1 2 -6.5268 -0.0450
-9 1 3 28.7027 -0.6253
-9 1 4 5.6696 0.1233
-9 1 5 -0.9335 -0.3451
-9 1 6 -4.9786 -0.0606
-9 1 7 -1.9930 0.5444
-9 1 8 -1.1878 -0.0490
-9 1 9 -3.1459 0.2345
-9 1 10 -1.2618 -0.0267
-9 1 11 -0.9408 -0.3843
-9 1 12 1.1503 0.1020
-9 3 1 16.9692 -0.2793
-9 3 2 20.9003 0.4748
-9 3 3 -10.7218 0.3699
-9 3 4 9.3911 -0.6772
-9 3 5 -3.4101 0.0283
-9 3 6 -7.7760 -0.5233
-9 3 7 2.8071 -0.3571
-9 3 8 0.7242 0.4593
-9 3 9 1.1903 -0.0576
-9 3 10 0.6025 0.4435
-9 3 11 3.4559 0.3325
-9 3 12 1.1768 -0.4795
-9 5 1 8.4675 0.0670
-9 5 2 -1.5302 -0.2409
-9 5 3 -2.4445 0.1491
-9 5 4 5.8894 0.2693
-9 5 5 -1.7972 0.1560
-9 5 6 1.9809 0.3842
-9 5 7 -1.7405 -0.1888
-9 5 8 1.2108 -0.1737
-9 5 9 1.2818 -0.0613
-9 5 10 -0.9217 -0.2792
-9 5 11 -0.7693 0.2228
-9 5 12 2.9899 0.1232
-9 7 1 -7.4129 0.0839
-9 7 2 -15.3336 -0.0906
-9 7 3 10.8809 -0.1929
-9 7 4 -5.3854 0.0259
-9 7 5 -8.9074 -0.1211
-9 7 6 -1.2602 0.0356
-9 7 7 0.6457 0.2192
-9 7 8 -1.0509 0.0975
-9 7 9 0.7301 0.1053
-9 7 10 -0.7139 0.0963
-9 7 11 2.3454 -0.0958
-9 7 12 2.2246 -0.1973
-9 9 1 6.2165 -0.2340
-9 9 2 -13.6209 0.1126
-9 9 3 0.5637 0.0109
-9 9 4 1.5947 0.1314
-9 9 5 -7.4541 0.0507
-9 9 6 -5.0810 -0.0335
-9 9 7 4.0713 0.0320
-9 9 8 2.3547 -0.1709
-9 9 9 -0.3386 -0.1249
-9 9 10 3.1921 0.0299
-9 9 11 1.8884 -0.0814
-9 9 12 -0.4569 0.1706
-9 11 1 -10.2732 0.2011
-9 11 2 5.1519 0.0400
-9 11 3 4.7533 0.0629
-9 11 4 2.6845 -0.1513
-9 11 5 -0.3231 0.0581
-9 11 6 -1.6161 -0.0566
-9 11 7 2.2349 0.0057
-9 11 8 3.4151 0.0659
-9 11 9 -0.3716 -0.0531
-9 11 10 -0.7907 0.0221
-9 11 11 1.4645 -0.1995
-9 11 12 -2.7517 -0.1829
-9 13 1 -7.9291 -0.0029
-9 13 2 0.7962 -0.0432
-9 13 3 11.9611 0.0555
-9 13 4 -0.4144 -0.0492
-9 13 5 5.4396 -0.0673
-9 13 6 0.6354 -0.0629
-9 13 7 0.2721 -0.1461
-9 13 8 0.3895 0.0084
-9 13 9 -3.0630 0.0806
-9 13 10 1.3562 0.0305
-9 13 11 0.2007 0.0494
-9 13 12 -1.7024 -0.1524
-9 15 1 -1.5449 -0.0060
-9 15 2 -0.3933 0.0370
-9 15 3 6.8318 -0.0461
-9 15 4 -2.5656 0.1010
-9 15 5 -8.0004 -0.0180
-9 15 6 -0.9787 0.0524
-9 15 7 5.5062 0.0145
-9 15 8 -0.5487 0.0126
-9 15 9 -1.5176 0.0708
-9 15 10 -1.0069 -0.0621
-9 15 11 -2.1572 -0.1145
-9 17 1 3.1394 -0.0185
-9 17 2 1.6971 0.0321
-9 17 3 -5.9983 -0.0537
-9 17 4 -4.9296 -0.0188
-9 17 5 -4.1634 -0.0230
-9 17 6 0.3622 -0.0125
-9 17 7 2.1219 -0.0015
-9 17 8 -1.7846 0.0101
-9 17 9 -1.3357 -0.0163
-9 17 10 0.5326 -0.0716
-9 17 11 1.0879 0.2075
-9 19 1 -0.4179 -0.0285
-9 19 2 5.8228 -0.0443
-9 19 3 0.1421 -0.0290
-9 19 4 -2.5006 -0.0139
-9 19 5 1.7715 0.0436
-9 19 6 2.6732 0.0074
-9 19 7 -0.3836 -0.0095
-9 19 8 -3.9707 0.0145
-9 19 9 -0.2197 -0.0539
-9 19 10 -0.5649 -0.0425
-9 19 11 -0.2395 0.2403
-9 21 1 4.6328 0.0735
-9 21 2 0.4989 -0.0061
-9 21 3 0.3621 0.0029
-9 21 4 -3.2695 -0.0477
-9 21 5 -1.0069 0.0370
-9 21 6 2.2281 0.0094
-9 21 7 1.1121 0.0287
-9 21 8 0.5016 0.1097
-9 21 9 0.1101 -0.0522
-9 23 1 0.2712 0.0130
-9 23 2 -3.5876 -0.0234
-9 23 3 1.3025 -0.0119
-9 23 4 1.1134 0.0721
-9 23 5 2.2843 -0.0486
-9 23 6 3.6160 0.0185
-9 23 7 -1.5591 -0.0743
-9 23 8 0.5034 -0.0116
-9 23 9 0.3345 0.1329
-9 25 1 -4.8745 -0.0361
-9 25 2 2.6588 0.0419
-9 25 3 -1.6915 -0.0032
-9 25 4 -4.7308 0.0051
-9 25 5 -0.5317 -0.0072
-9 25 6 -3.5032 -0.1321
-9 25 7 -1.7075 0.1203
-9 25 8 -2.0101 0.0123
-9 25 9 0.6168 -0.0255
-9 27 1 -0.8158 -0.0385
-9 27 2 2.6833 -0.0416
-9 27 3 0.2937 0.0644
-9 27 4 -0.1643 -0.0642
-9 27 5 1.3508 0.0169
-9 27 6 1.4700 0.1198
-9 27 7 -4.0734 0.0306
-9 29 1 1.7402 -0.0399
-9 29 2 -1.2740 0.0233
-9 29 3 -0.1216 -0.0154
-9 29 4 -2.4763 0.1028
-9 29 5 -0.3061 0.1255
-9 29 6 -1.8679 0.1722
-9 31 1 3.5283 -0.0814
-9 31 2 2.3949 -0.0757
-9 31 3 0.7377 0.0457
-9 31 4 0.6545 0.1133
-9 31 5 -1.7711 -0.1689
-9 33 1 -3.8879 0.2081
-9 33 2 0.2387 -0.0122
-9 33 3 -2.8620 -0.0721
-8 0 2 -7.9467 -0.2401
-8 0 4 3.7998 -0.9752
-8 0 6 -13.7619 0.4169
-8 0 8 0.9795 0.8138
-8 0 10 -2.3797 -0.2783
-8 0 12 0.7210 -0.5739
-8 2 1 14.2721 -0.1467
-8 2 2 16.8494 0.3746
-8 2 3 9.1481 0.1592
-8 2 4 7.3897 0.8728
-8 2 5 -0.3807 -0.1134
-8 2 6 -7.5016 -0.2970
-8 2 7 3.2952 -0.2738
-8 2 8 1.1109 -0.7516
-8 2 9 1.0441 0.0754
-8 2 10 0.4900 0.0863
-8 2 11 1.3435 0.1552
-8 2 12 2.0811 0.4570
-8 4 1 12.5124 -0.2296
-8 4 2 -4.2125 -0.1935
-8 4 3 3.2513 -0.3369
-8 4 4 13.7321 0.0614
-8 4 5 -13.1815 0.4114
-8 4 6 -2.3832 0.0261
-8 4 7 5.9440 0.3514
-8 4 8 -0.0950 0.0711
-8 4 9 2.6897 -0.2780
-8 4 10 1.3003 0.0440
-8 4 11 -0.4881 -0.2294
-8 4 12 0.8628 -0.0373
-8 6 1 5.8624 0.0874
-8 6 2 -5.3063 -0.0629
-8 6 3 -6.8921 0.1255
-8 6 4 -1.3575 -0.4010
-8 6 5 -6.3921 -0.1406
-8 6 6 -0.0436 -0.0931
-8 6 7 3.0081 -0.1098
-8 6 8 1.9769 0.2297
-8 6 9 -2.4764 0.0574
-8 6 10 -0.6592 0.0959
-8 6 11 0.5057 0.0116
-8 6 12 0.5105 -0.2071
-8 8 1 -10.1828 0.0444
-8 8 2 -1.1455 -0.0229
-8 8 3 3.2160 0.0157
-8 8 4 -0.1640 0.1656
-8 8 5 -6.7319 -0.1044
-8 8 6 -0.0765 0.0591
-8 8 7 0.0299 -0.0640
-8 8 8 -0.6120 -0.1071
-8 8 9 0.7675 0.0630
-8 8 10 -0.5833 -0.0676
-8 8 11 2.6586 0.0986
-8 8 12 1.2341 -0.0007
-8 10 1 -6.6838 0.0057
-8 10 2 -17.6235 0.0418
-8 10 3 13.4413 0.0124
-8 10 4 -3.7049 -0.0225
-8 10 5 -6.1643 -0.0387
-8 10 6 -0.8012 0.0799
-8 10 7 -0.6697 0.0707
-8 10 8 0.1509 0.0740
-8 10 9 -0.0992 0.0246
-8 10 10 0.6134 -0.0664
-8 10 11 -0.2169 -0.0623
-8 10 12 -0.3419 0.2126
-8 12 1 1.5356 -0.1741
-8 12 2 -4.8121 0.0591
-8 12 3 4.6724 0.0181
-8 12 4 -2.4278 0.1231
-8 12 5 2.6311 0.0346
-8 12 6 1.6214 -0.1477
-8 12 7 5.0597 -0.0488
-8 12 8 1.5123 -0.1419
-8 12 9 -2.7675 -0.0724
-8 12 10 -1.8310 0.0493
-8 12 11 -2.0035 -0.0024
-8 12 12 0.5903 0.1250
-8 14 1 -4.3464 0.0582
-8 14 2 7.2709 -0.0843
-8 14 3 7.1279 0.0156
-8 14 4 -0.6584 -0.0612
-8 14 5 0.3333 0.1134
-8 14 6 -1.2433 0.0867
-8 14 7 3.3334 0.0367
-8 14 8 0.9144 0.1056
-8 14 9 -0.1766 -0.0342
-8 14 10 2.0513 0.0164
-8 14 11 3.0577 0.0891
-8 14 12 0.4829 -0.0449
-8 16 1 -9.7744 0.0302
-8 16 2 5.0940 0.0030
-8 16 3 3.6688 0.0240
-8 16 4 -3.1509 -0.0033
-8 16 5 -4.0175 -0.0504
-8 16 6 1.0016 -0.0155
-8 16 7 -0.1070 -0.0744
-8 16 8 -1.5554 0.0239
-8 16 9 -2.0380 0.0145
-8 16 10 1.2159 0.0475
-8 16 11 1.2643 0.0844
-8 18 1 -3.3675 0.0211
-8 18 2 -1.1457 0.0448
-8 18 3 -2.9269 -0.0498
-8 18 4 -3.9223 0.0400
-8 18 5 -1.8871 -0.0540
-8 18 6 0.2920 0.0193
-8 18 7 2.6993 0.0313
-8 18 8 -0.5503 -0.0141
-8 18 9 -1.3267 -0.0525
-8 18 10 -3.6416 -0.0279
-8 20 1 5.8003 -0.0068
-8 20 2 2.5043 0.0670
-8 20 3 -0.6840 0.0586
-8 20 4 -1.2384 -0.0192
-8 20 5 2.4874 -0.0677
-8 20 6 0.5465 -0.0462
-8 20 7 -0.7012 0.0388
-8 20 8 -0.6702 -0.0125
-8 20 9 0.0877 0.1035
-8 20 10 -1.8308 0.0812
-8 22 1 1.6527 -0.0484
-8 22 2 4.0376 0.0208
-8 22 3 0.3790 0.0301
-8 22 4 -2.7729 -0.0638
-8 22 5 0.5291 0.0098
-8 22 6 1.9612 -0.0652
-8 22 7 -0.1613 -0.0204
-8 22 8 -2.5876 0.0177
-8 22 9 0.3935 -0.1272
-8 24 1 1.2309 0.0000
-8 24 2 1.0986 -0.0506
-8 24 3 -0.3508 0.0141
-8 24 4 -3.0119 0.0020
-8 24 5 0.5009 -0.0090
-8 24 6 -0.1935 0.1096
-8 24 7 -2.6382 -0.0527
-8 24 8 0.9286 -0.0879
-8 24 9 -1.0091 -0.2707
-8 26 1 1.2275 0.0033
-8 26 2 -0.7513 -0.0118
-8 26 3 -2.4855 -0.0578
-8 26 4 1.4566 0.0211
-8 26 5 -1.9446 0.0381
-8 26 6 1.4572 0.0554
-8 26 7 0.1664 -0.0199
-8 26 8 4.2478 -0.2557
-8 28 1 0.5141 0.0513
-8 28 2 -1.1920 0.0427
-8 28 3 -0.3558 -0.0910
-8 28 4 -2.9598 -0.0541
-8 28 5 -0.6672 0.0246
-8 28 6 -3.4450 0.0258
-8 30 1 -4.0688 0.0067
-8 30 2 1.0900 0.0699
-8 30 3 1.2165 -0.0211
-8 30 4 -1.0542 -0.0557
-8 30 5 2.0032 0.0713
-8 30 6 1.2277 -0.2384
-8 32 1 4.3685 -0.0143
-8 32 2 3.8789 -0.0164
-8 32 3 1.3972 0.1151
-8 32 4 -1.0421 -0.1068
-8 32 5 0.7462 0.0246
-8 34 1 -2.5520 -0.1503
-7 1 1 -38.2559 -0.5079
-7 1 2 -8.4465 -0.2316
-7 1 3 10.0441 0.2464
-7 1 4 12.4985 -0.0964
-7 1 5 1.9480 0.6863
-7 1 6 -12.9721 0.0115
-7 1 7 0.3069 -0.1809
-7 1 8 1.5192 0.0639
-7 1 9 -5.1461 -0.5838
-7 1 10 -2.4446 0.0170
-7 1 11 0.0932 0.1209
-7 1 12 0.4769 -0.0804
-7 3 1 0.7965 0.4961
-7 3 2 25.5378 -0.6468
-7 3 3 -14.4775 -0.1251
-7 3 4 4.6887 0.0941
-7 3 5 -8.6911 -0.3041
-7 3 6 -7.7325 0.7540
-7 3 7 5.1169 0.2145
-7 3 8 1.6718 0.0662
-7 3 9 1.0875 0.2801
-7 3 10 1.5353 -0.5795
-7 3 11 3.9896 -0.1381
-7 3 12 1.3918 -0.1075
-7 5 1 22.0361 -0.3089
-7 5 2 -16.0352 0.4475
-7 5 3 7.2578 -0.0934
-7 5 4 2.7492 0.0557
-7 5 5 -10.7476 -0.2916
-7 5 6 3.1839 -0.4604
-7 5 7 3.7275 0.0332
-7 5 8 -0.1822 -0.1873
-7 5 9 0.1883 0.1857
-7 5 10 0.2437 0.4146
-7 5 11 -0.9821 0.0420
-7 5 12 3.8432 0.1623
-7 7 1 -9.9083 -0.0554
-7 7 2 -14.3782 0.1260
-7 7 3 10.8148 0.1590
-7 7 4 5.0657 -0.0078
-7 7 5 -12.4479 0.2837
-7 7 6 -1.0361 0.1558
-7 7 7 3.3358 -0.0847
-7 7 8 0.3912 -0.0041
-7 7 9 0.3939 -0.2795
-7 7 10 0.6119 -0.0429
-7 7 11 1.9380 -0.0314
-7 7 12 -0.3544 -0.1127
-7 9 1 -8.4036 0.1476
-7 9 2 -6.0193 -0.0462
-7 9 3 -0.1418 0.0729
-7 9 4 -4.4897 -0.1577
-7 9 5 -3.7120 0.0182
-7 9 6 2.6272 -0.1074
-7 9 7 2.9995 -0.0460
-7 9 8 -0.1863 0.0719
-7 9 9 -0.6859 0.0510
-7 9 10 -0.6479 0.0865
-7 9 11 -0.8237 -0.0262
-7 9 12 -0.6044 0.0786
-7 11 1 -12.2739 -0.0908
-7 11 2 11.0205 -0.1269
-7 11 3 10.6372 -0.0832
-7 11 4 -3.0499 0.0843
-7 11 5 -1.2842 -0.0370
-7 11 6 1.2013 0.0506
-7 11 7 1.8376 -0.0588
-7 11 8 1.0517 -0.0673
-7 11 9 -0.4628 -0.0244
-7 11 10 0.1080 -0.0998
-7 11 11 0.4744 -0.0245
-7 11 12 -0.2464 0.0232
-7 13 1 -2.1217 0.0206
-7 13 2 -5.2947 0.0869
-7 13 3 12.8840 -0.0508
-7 13 4 -2.5588 0.0138
-7 13 5 2.7153 -0.0647
-7 13 6 -0.9880 0.0640
-7 13 7 -0.2077 0.0450
-7 13 8 0.1006 0.0137
-7 13 9 -2.5330 0.1151
-7 13 10 1.4382 -0.0174
-7 13 11 2.4138 -0.0935
-7 13 12 -2.3386 -0.1772
-7 15 1 -0.2530 -0.0183
-7 15 2 0.5663 0.0730
-7 15 3 -0.0067 0.0068
-7 15 4 -4.2981 -0.0181
-7 15 5 -0.9793 0.0118
-7 15 6 -2.8627 -0.1256
-7 15 7 1.1411 -0.0008
-7 15 8 1.3143 -0.0214
-7 15 9 -0.8317 0.0413
-7 15 10 -1.4922 0.1195
-7 15 11 -3.8495 0.1792
-7 17 1 5.5018 0.0388
-7 17 2 2.9740 -0.0393
-7 17 3 -3.7978 0.0447
-7 17 4 -6.1603 -0.0167
-7 17 5 -4.5830 0.0229
-7 17 6 0.8414 0.0564
-7 17 7 3.0940 0.0172
-7 17 8 0.6020 0.0618
-7 17 9 0.0730 -0.0787
-7 17 10 -1.5310 -0.0463
-7 19 1 -2.4514 -0.0019
-7 19 2 5.5120 0.0020
-7 19 3 -2.7407 -0.0122
-7 19 4 1.8125 -0.0096
-7 19 5 -0.0748 -0.0031
-7 19 6 2.6886 -0.0318
-7 19 7 3.3826 -0.0137
-7 19 8 -5.0038 0.0536
-7 19 9 -2.2938 -0.0309
-7 19 10 -0.1825 0.0977
-7 21 1 2.7020 0.0032
-7 21 2 -2.5719 -0.0247
-7 21 3 1.3130 -0.0773
-7 21 4 -2.5463 0.0514
-7 21 5 0.1444 -0.0258
-7 21 6 -0.3106 0.0817
-7 21 7 0.7266 -0.0463
-7 21 8 1.5082 -0.0554
-7 21 9 -0.5027 -0.0627
-7 21 10 3.5741 -0.1672
-7 23 1 -2.2042 0.0049
-7 23 2 -2.1890 0.0171
-7 23 3 0.5092 -0.0032
-7 23 4 -1.2132 0.0271
-7 23 5 0.6994 0.0291
-7 23 6 2.8212 0.0130
-7 23 7 -1.2123 0.0279
-7 23 8 1.5906 -0.0220
-7 23 9 3.0944 0.0255
-7 25 1 -2.8599 0.0102
-7 25 2 0.8414 -0.0240
-7 25 3 -0.9528 0.0068
-7 25 4 -2.7814 -0.0664
-7 25 5 0.7883 0.0446
-7 25 6 -0.6616 -0.0233
-7 25 7 -2.8772 0.0126
-7 25 8 -2.8497 -0.1465
-7 27 1 1.2488 0.0278
-7 27 2 2.5084 -0.0210
-7 27 3 2.1483 0.0448
-7 27 4 -0.9106 0.0240
-7 27 5 1.4030 -0.0857
-7 27 6 1.4566 -0.0214
-7 27 7 -4.5597 -0.1264
-7 29 1 -0.1189 -0.1181
-7 29 2 1.7442 -0.0242
-7 29 3 0.1226 -0.0031
-7 29 4 -1.2984 0.0227
-7 29 5 -1.3935 0.0892
-7 29 6 -0.8157 -0.2087
-7 31 1 5.7615 -0.0331
-7 31 2 2.2970 -0.1335
-7 31 3 -2.0497 0.1553
-7 31 4 -0.5427 0.2246
-7 31 5 1.1098 -0.0035
-7 31 6 -3.4422 -0.0899
-7 33 1 -2.4010 0.0663
-7 33 2 -0.1355 0.0598
-7 33 3 -2.0010 -0.1492
-7 33 4 -1.3253 -0.2121
-6 0 2 -22.2731 -0.4707
-6 0 4 8.5206 1.2049
-6 0 6 -18.0312 0.5014
-6 0 8 -0.4703 -0.8653
-6 0 10 -1.1266 -0.5050
-6 0 12 1.4073 0.6377
-6 2 1 27.8931 -0.0541
-6 2 2 -5.8871 0.2961
-6 2 3 24.1991 -0.2390
-6 2 4 14.3171 -0.9152
-6 2 5 -5.8444 -0.1244
-6 2 6 -11.4085 -0.5189
-6 2 7 6.0026 0.1940
-6 2 8 3.6331 0.7097
-6 2 9 0.9702 0.0211
-6 2 10 2.5379 0.4764
-6 2 11 -0.2457 -0.1918
-6 2 12 0.3450 -0.4578
-6 4 1 7.4525 -0.2051
-6 4 2 29.6325 0.1453
-6 4 3 1.8304 0.5468
-6 4 4 15.6443 -0.1359
-6 4 5 -19.3293 0.0070
-6 4 6 -5.8865 -0.0142
-6 4 7 9.7844 -0.5505
-6 4 8 1.7156 -0.0180
-6 4 9 2.3903 -0.0374
-6 4 10 0.5937 -0.0063
-6 4 11 0.5672 0.3402
-6 4 12 0.5252 -0.0410
-6 6 1 -31.4565 0.1683
-6 6 2 -10.2148 -0.2024
-6 6 3 -8.9661 -0.1713
-6 6 4 -9.8853 0.2957
-6 6 5 -12.2097 0.0421
-6 6 6 3.8651 0.2945
-6 6 7 4.2372 0.1647
-6 6 8 0.7485 -0.1847
-6 6 9 -2.4791 0.0555
-6 6 10 -3.1088 -0.1169
-6 6 11 -1.1424 -0.1533
-6 6 12 0.7724 0.2327
-6 8 1 0.5023 -0.2236
-6 8 2 -17.8077 0.0978
-6 8 3 6.0254 -0.1083
-6 8 4 -5.1893 -0.0492
-6 8 5 -9.3585 -0.0283
-6 8 6 0.3727 -0.0996
-6 8 7 3.1387 0.1543
-6 8 8 -4.6917 0.0247
-6 8 9 -0.1716 0.0343
-6 8 10 0.7729 0.0975
-6 8 11 -0.4720 -0.1191
-6 8 12 -0.8543 0.0412
-6 10 1 1.2493 0.0661
-6 10 2 -11.8623 0.0693
-6 10 3 9.7104 0.0601
-6 10 4 -1.8845 0.0924
-6 10 5 -6.9337 0.1143
-6 10 6 6.8991 0.0061
-6 10 7 -0.4135 0.0272
-6 10 8 2.6728 -0.0911
-6 10 9 0.1908 -0.0756
-6 10 10 0.3878 -0.1128
-6 10 11 1.4869 -0.0392
-6 10 12 1.3156 0.1114
-6 12 1 -7.0131 0.1464
-6 12 2 1.7357 -0.0218
-6 12 3 7.8216 0.0368
-6 12 4 -0.4343 -0.1604
-6 12 5 8.8442 -0.0475
-6 12 6 4.8549 -0.0833
-6 12 7 2.4773 -0.1171
-6 12 8 0.2881 0.1348
-6 12 9 -2.4555 -0.0359
-6 12 10 -1.0494 0.0001
-6 12 11 -0.6173 0.0460
-6 12 12 0.9893 -0.1170
-6 14 1 -10.4257 -0.0482
-6 14 2 9.0806 0.0121
-6 14 3 9.5310 -0.0023
-6 14 4 -3.9593 0.1288
-6 14 5 2.6095 -0.0491
-6 14 6 -1.1199 0.0330
-6 14 7 1.6284 -0.0788
-6 14 8 0.1067 -0.0851
-6 14 9 1.6279 0.0548
-6 14 10 0.3172 0.0323
-6 14 11 0.4270 0.1493
-6 14 12 -1.2815 0.5135
-6 16 1 -4.0772 -0.0098
-6 16 2 -0.2877 0.0300
-6 16 3 0.3498 -0.0311
-6 16 4 -4.5103 0.0301
-6 16 5 -5.2002 -0.0066
-6 16 6 -3.9488 0.0349
-6 16 7 0.9433 0.0535
-6 16 8 0.6981 0.0063
-6 16 9 -2.7156 0.0086
-6 16 10 0.4709 0.0800
-6 16 11 -1.6075 0.0499
-6 18 1 -4.0246 -0.0292
-6 18 2 -0.2671 -0.0125
-6 18 3 -2.6426 0.0060
-6 18 4 -5.9410 -0.0391
-6 18 5 -1.4477 -0.0335
-6 18 6 -0.2178 0.0052
-6 18 7 1.1133 -0.0072
-6 18 8 -0.8178 -0.0507
-6 18 9 -1.4265 -0.0319
-6 18 10 -2.2720 0.0908
-6 20 1 3.9111 0.0477
-6 20 2 4.2780 -0.0123
-6 20 3 2.0597 0.0592
-6 20 4 1.8673 -0.0618
-6 20 5 1.2762 0.0076
-6 20 6 -0.1991 -0.0053
-6 20 7 0.0757 0.0242
-6 20 8 -1.0953 0.0113
-6 20 9 1.5085 0.0012
-6 20 10 -2.7896 -0.0173
-6 22 1 0.4584 0.0465
-6 22 2 2.9453 -0.0153
-6 22 3 -2.8053 0.0058
-6 22 4 -1.1063 -0.0153
-6 22 5 -0.3917 -0.0440
-6 22 6 2.0260 -0.0175
-6 22 7 0.8453 -0.0809
-6 22 8 -0.2307 0.0581
-6 22 9 0.4869 -0.0497
-6 24 1 5.8856 -0.0516
-6 24 2 -0.9009 0.0121
-6 24 3 -2.0114 -0.0502
-6 24 4 -2.2290 0.0861
-6 24 5 2.1275 -0.0484
-6 24 6 1.9962 -0.0621
-6 24 7 -1.6182 0.0551
-6 24 8 2.0356 -0.0166
-6 24 9 -2.4630 0.0594
-6 26 1 -3.3757 -0.0313
-6 26 2 0.2507 0.0211
-6 26 3 0.1163 0.0194
-6 26 4 -1.1961 -0.1101
-6 26 5 -3.2722 0.0295
-6 26 6 -0.7254 -0.0258
-6 26 7 0.5694 0.0127
-6 26 8 2.1673 0.1083
-6 26 9 1.1420 0.0231
-6 28 1 1.3205 -0.0174
-6 28 2 -0.6123 -0.0484
-6 28 3 0.2502 -0.0672
-6 28 4 -1.8956 -0.0044
-6 28 5 2.1280 0.0759
-6 28 6 -1.7077 0.2127
-6 28 7 -0.0231 -0.0095
-6 30 1 0.3323 -0.0094
-6 30 2 1.3840 -0.0186
-6 30 3 0.5684 0.0567
-6 30 4 -0.5110 0.0067
-6 30 5 2.6362 0.0195
-6 30 6 1.1471 0.1632
-6 32 1 3.5716 0.1178
-6 32 2 2.4902 0.1000
-6 32 3 2.4909 -0.1093
-6 32 4 0.9948 -0.2064
-6 32 5 -1.3795 0.1123
-6 34 1 -3.0514 -0.1216
-6 34 2 -2.9838 -0.1143
-5 1 1 -46.6950 0.6248
-5 1 2 -21.0399 0.2767
-5 1 3 8.0910 0.2861
-5 1 4 15.4338 0.0012
-5 1 5 7.7827 -0.7060
-5 1 6 -14.1992 -0.0002
-5 1 7 1.9997 -0.3061
-5 1 8 0.9694 -0.0325
-5 1 9 -0.8242 0.5275
-5 1 10 -0.9352 -0.0515
-5 1 11 3.9699 0.1202
-5 1 12 -0.0619 0.0002
-5 3 1 -31.2071 -0.3828
-5 3 2 15.2639 0.3778
-5 3 3 -0.6314 -0.1466
-5 3 4 8.3364 0.7505
-5 3 5 -16.5046 0.4178
-5 3 6 -14.4675 -0.4116
-5 3 7 7.8828 0.1025
-5 3 8 2.1605 -0.6740
-5 3 9 1.8575 -0.3536
-5 3 10 3.0651 0.2813
-5 3 11 1.3652 -0.1693
-5 3 12 0.4148 0.4414
-5 5 1 3.0395 0.1278
-5 5 2 -40.1237 -0.3507
-5 5 3 8.2187 -0.0396
-5 5 4 2.9092 -0.5033
-5 5 5 -14.4874 0.2381
-5 5 6 3.7044 0.2060
-5 5 7 7.7728 0.1115
-5 5 8 2.2829 0.4099
-5 5 9 0.4260 -0.1912
-5 5 10 0.2010 -0.0973
-5 5 11 -1.8647 -0.1938
-5 5 12 1.9421 -0.1926
-5 7 1 -5.1892 0.0987
-5 7 2 18.7553 0.0011
-5 7 3 14.9547 0.0206
-5 7 4 10.5625 0.0026
-5 7 5 -13.9468 -0.2973
-5 7 6 4.6849 -0.1314
-5 7 7 4.9297 -0.1435
-5 7 8 -1.5820 -0.0852
-5 7 9 0.1266 0.1798
-5 7 10 -0.0756 0.0724
-5 7 11 0.3737 0.1384
-5 7 12 -1.8952 0.2108
-5 9 1 -26.1210 -0.0145
-5 9 2 4.6552 0.0348
-5 9 3 5.2839 -0.0655
-5 9 4 -9.8250 0.0258
-5 9 5 -10.9864 -0.0333
-5 9 6 5.8017 0.1395
-5 9 7 0.3239 0.0624
-5 9 8 -2.7931 0.0581
-5 9 9 -1.8940 0.0801
-5 9 10 -2.3264 -0.1388
-5 9 11 -1.4901 0.0227
-5 9 12 1.4036 0.0346
-5 11 1 -12.3101 -0.1253
-5 11 2 4.2706 0.1217
-5 11 3 10.2893 0.0196
-5 11 4 -10.7772 0.0121
-5 11 5 3.8577 -0.0099
-5 11 6 0.6620 -0.0198
-5 11 7 1.6517 0.0222
-5 11 8 1.7829 -0.0090
-5 11 9 -1.2059 0.0281
-5 11 10 0.9162 0.0151
-5 11 11 -1.4737 -0.0056
-5 11 12 -1.0818 0.0873
-5 13 1 12.1939 -0.0354
-5 13 2 -8.0613 -0.0342
-5 13 3 6.9062 0.0281
-5 13 4 -8.2083 0.0503
-5 13 5 3.7035 0.1261
-5 13 6 2.2275 -0.0092
-5 13 7 0.4512 0.0001
-5 13 8 1.0973 -0.0791
-5 13 9 0.6009 -0.1227
-5 13 10 -0.0231 -0.0026
-5 13 11 0.1409 -0.0902
-5 13 12 0.8624 -0.3396
-5 15 1 -1.2821 0.0816
-5 15 2 5.3328 -0.1027
-5 15 3 -3.7649 0.0310
-5 15 4 -0.5848 -0.0631
-5 15 5 0.0618 0.0127
-5 15 6 -1.2600 0.0909
-5 15 7 -1.0604 0.0088
-5 15 8 -0.5564 0.0365
-5 15 9 0.3509 -0.0133
-5 15 10 0.3647 0.0689
-5 15 11 1.3497 0.2169
-5 17 1 0.9010 -0.0144
-5 17 2 5.2811 0.0337
-5 17 3 1.0146 -0.0334
-5 17 4 -1.7735 0.0399
-5 17 5 -4.6155 -0.0557
-5 17 6 -1.4366 -0.0367
-5 17 7 3.5988 -0.0758
-5 17 8 1.0195 -0.0617
-5 17 9 0.0217 -0.0622
-5 17 10 -2.9093 0.1057
-5 19 1 -2.3623 0.0271
-5 19 2 -1.4188 0.0604
-5 19 3 -7.5872 -0.0395
-5 19 4 0.2607 0.0115
-5 19 5 3.3618 -0.0221
-5 19 6 -0.0751 0.0088
-5 19 7 2.3512 0.0394
-5 19 8 0.1326 -0.0156
-5 19 9 -2.9060 0.0630
-5 19 10 -2.3759 0.0027
-5 21 1 6.5609 -0.0313
-5 21 2 -4.6771 0.0346
-5 21 3 3.8674 0.0510
-5 21 4 -1.8724 -0.0134
-5 21 5 0.6785 0.0363
-5 21 6 0.8146 -0.0626
-5 21 7 0.6126 -0.0401
-5 21 8 -0.1360 -0.0218
-5 21 9 0.3990 0.0589
-5 21 10 5.4239 -0.0208
-5 23 1 -7.3277 -0.0056
-5 23 2 -1.0504 -0.0305
-5 23 3 1.8275 -0.0082
-5 23 4 -3.2669 -0.0218
-5 23 5 -3.4232 0.0268
-5 23 6 1.5757 0.0223
-5 23 7 -0.1070 -0.0473
-5 23 8 -0.6766 0.0518
-5 23 9 1.5737 -0.1883
-5 23 10 -3.6527 -0.0363
-5 25 1 -2.7850 0.0207
-5 25 2 1.2529 -0.0860
-5 25 3 0.7169 -0.0068
-5 25 4 2.4993 0.0764
-5 25 5 0.5350 -0.0270
-5 25 6 -0.2012 0.0926
-5 25 7 -2.1293 -0.0132
-5 25 8 2.0517 -0.1387
-5 25 9 -0.6920 0.1581
-5 27 1 4.2370 -0.0058
-5 27 2 1.2723 0.0095
-5 27 3 -0.3118 -0.0148
-5 27 4 -0.9975 0.0056
-5 27 5 2.4608 -0.0141
-5 27 6 1.0922 -0.1249
-5 27 7 -2.0348 -0.0810
-5 27 8 0.4934 0.0276
-5 29 1 -1.4357 0.0216
-5 29 2 3.0732 -0.0033
-5 29 3 1.7897 -0.0443
-5 29 4 -2.5479 -0.0397
-5 29 5 -0.2525 -0.1642
-5 29 6 -0.2593 -0.3382
-5 29 7 0.7140 0.0561
-5 31 1 3.0404 -0.0027
-5 31 2 -0.3704 0.0162
-5 31 3 -1.6973 0.1911
-5 31 4 -0.7468 0.0625
-5 31 5 1.5181 0.2428
-5 31 6 -3.6081 0.0253
-5 33 1 1.0105 -0.1806
-5 33 2 1.1394 -0.1755
-5 33 3 -0.2024 0.0515
-4 0 2 12.8794 0.8770
-4 0 4 -1.6080 -0.4309
-4 0 6 -22.3656 -1.1544
-4 0 8 -0.3131 0.1439
-4 0 10 0.2387 0.9445
-4 0 12 -0.5087 -0.1473
-4 2 1 -40.1463 0.2681
-4 2 2 -45.2427 -0.8959
-4 2 3 9.6469 0.1545
-4 2 4 22.3699 0.2837
-4 2 5 -11.0520 0.2479
-4 2 6 -11.8225 0.9977
-4 2 7 8.0017 -0.0807
-4 2 8 3.9346 -0.0380
-4 2 9 -1.6392 -0.1360
-4 2 10 2.8444 -0.7389
-4 2 11 0.6331 -0.0601
-4 2 12 0.4794 0.0224
-4 4 1 31.4664 0.1979
-4 4 2 15.9914 0.0545
-4 4 3 11.7678 -0.4795
-4 4 4 21.8015 0.0610
-4 4 5 -20.4340 -0.4348
-4 4 6 -6.1697 -0.0612
-4 4 7 9.2249 0.3694
-4 4 8 -1.2654 -0.0715
-4 4 9 5.5179 0.3634
-4 4 10 2.6302 0.0048
-4 4 11 -0.2284 -0.3216
-4 4 12 -0.8043 0.1859
-4 6 1 -49.4125 -0.2701
-4 6 2 -3.7141 0.4754
-4 6 3 -4.0773 0.2004
-4 6 4 -13.9073 -0.0536
-4 6 5 -14.5620 0.1027
-4 6 6 4.6211 -0.2929
-4 6 7 5.8274 -0.1521
-4 6 8 0.6801 -0.0444
-4 6 9 -2.3514 -0.1310
-4 6 10 -2.4445 0.2447
-4 6 11 -2.5561 0.0677
-4 6 12 -0.5321 0.0519
-4 8 1 -30.2403 0.2113
-4 8 2 -11.9532 -0.0492
-4 8 3 15.4036 0.1859
-4 8 4 -11.0861 -0.0953
-4 8 5 -10.1203 0.1397
-4 8 6 0.5378 0.1291
-4 8 7 2.3869 -0.1008
-4 8 8 -1.0467 0.0223
-4 8 9 0.9345 -0.0976
-4 8 10 -0.8518 -0.1331
-4 8 11 -1.7061 0.0732
-4 8 12 -0.7871 0.0456
-4 10 1 9.9429 -0.0052
-4 10 2 -9.2841 -0.1287
-4 10 3 3.9952 -0.0569
-4 10 4 5.5185 0.0121
-4 10 5 -4.8710 -0.0806
-4 10 6 13.1774 -0.1177
-4 10 7 3.0966 -0.0138
-4 10 8 1.0768 0.0192
-4 10 9 0.5012 0.0752
-4 10 10 -1.3040 0.1170
-4 10 11 -1.8850 0.0285
-4 10 12 2.7128 -0.0728
-4 12 1 -1.9692 -0.0580
-4 12 2 8.8908 -0.0395
-4 12 3 11.3900 -0.1189
-4 12 4 3.9185 0.1004
-4 12 5 5.6430 -0.0355
-4 12 6 5.1588 0.1776
-4 12 7 0.8166 0.0753
-4 12 8 -2.4269 0.0021
-4 12 9 -1.8898 -0.0011
-4 12 10 1.4919 -0.1107
-4 12 11 3.1361 -0.1348
-4 12 12 0.1324 -0.0172
-4 14 1 -19.2589 0.0375
-4 14 2 14.2917 0.1150
-4 14 3 7.0704 -0.0682
-4 14 4 -14.4954 -0.0734
-4 14 5 3.7083 -0.0452
-4 14 6 -2.2286 -0.1116
-4 14 7 -0.6143 0.0368
-4 14 8 1.3470 -0.0139
-4 14 9 -0.4491 0.0527
-4 14 10 -1.9853 0.1019
-4 14 11 0.4842 -0.0127
-4 14 12 -2.8077 0.0706
-4 16 1 4.8165 -0.0008
-4 16 2 -6.8463 0.0042
-4 16 3 1.7196 0.0538
-4 16 4 -7.2895 -0.0506
-4 16 5 -2.0291 0.0546
-4 16 6 -5.3837 0.0315
-4 16 7 -2.5883 -0.0323
-4 16 8 3.2434 -0.0370
-4 16 9 -0.3249 -0.0406
-4 16 10 -0.7535 -0.0163
-4 16 11 -6.9928 -0.0026
-4 18 1 -0.0854 0.0145
-4 18 2 -2.9971 -0.0389
-4 18 3 -5.5252 0.0710
-4 18 4 -0.9631 0.0067
-4 18 5 -4.0392 0.0100
-4 18 6 2.6866 0.0603
-4 18 7 3.5800 -0.0067
-4 18 8 -2.2705 0.0332
-4 18 9 0.2802 0.0502
-4 18 10 -1.9312 0.0391
-4 20 1 -2.3304 -0.0296
-4 20 2 3.8049 -0.0672
-4 20 3 3.6909 -0.0180
-4 20 4 2.7195 0.0413
-4 20 5 1.6805 -0.0062
-4 20 6 -1.7083 0.0082
-4 20 7 1.7721 -0.0722
-4 20 8 -3.3250 -0.0458
-4 20 9 -1.1837 -0.0763
-4 20 10 1.6348 -0.1034
-4 22 1 -2.4824 -0.0053
-4 22 2 4.5910 0.0007
-4 22 3 -0.5961 -0.0314
-4 22 4 -1.1201 0.0686
-4 22 5 -0.2339 -0.0664
-4 22 6 -0.2060 -0.0151
-4 22 7 -0.0354 0.0373
-4 22 8 4.2487 -0.0374
-4 22 9 1.2918 -0.0257
-4 22 10 -2.0977 -0.0936
-4 24 1 5.5691 -0.0051
-4 24 2 -3.0701 0.0299
-4 24 3 -2.7240 -0.0095
-4 24 4 -0.6888 -0.0643
-4 24 5 3.0776 0.0518
-4 24 6 3.2600 -0.0796
-4 24 7 -1.5726 0.0268
-4 24 8 2.5575 0.0086
-4 24 9 -0.5644 0.1025
-4 24 10 2.7952 0.1003
-4 26 1 -1.9109 0.0178
-4 26 2 0.3643 0.0129
-4 26 3 1.5662 0.0152
-4 26 4 -4.0329 -0.0244
-4 26 5 -2.4112 -0.0246
-4 26 6 -0.0497 -0.0067
-4 26 7 -0.1616 0.0182
-4 26 8 -1.8391 0.3343
-4 26 9 0.0167 -0.1824
-4 28 1 -0.2830 -0.0218
-4 28 2 1.1769 0.0001
-4 28 3 0.3565 0.0190
-4 28 4 0.6593 -0.0266
-4 28 5 0.7839 -0.0159
-4 28 6 -0.9495 -0.0161
-4 28 7 0.0528 -0.0693
-4 28 8 -0.2121 -0.0414
-4 30 1 2.1500 -0.0326
-4 30 2 2.0761 -0.0793
-4 30 3 1.0660 0.0880
-4 30 4 0.6309 -0.0108
-4 30 5 1.4554 0.0502
-4 30 6 -1.3025 0.3093
-4 30 7 -2.6505 -0.0020
-4 32 1 2.1548 0.0704
-4 32 2 0.8491 0.0050
-4 32 3 1.3885 -0.2639
-4 32 4 -0.0002 0.1166
-3 1 1 -21.4057 0.1673
-3 1 2 -72.6478 0.0309
-3 1 3 6.5209 -0.6364
-3 1 4 32.2381 0.0631
-3 1 5 11.1797 0.2516
-3 1 6 -14.2701 -0.0233
-3 1 7 0.0017 0.6067
-3 1 8 -3.2855 0.0229
-3 1 9 5.9037 -0.1366
-3 1 10 2.3250 -0.0031
-3 1 11 1.3680 -0.5202
-3 1 12 -0.6320 0.0274
-3 3 1 -33.2268 -0.0085
-3 3 2 31.4567 0.2345
-3 3 3 22.6569 0.3488
-3 3 4 -1.0770 -1.0347
-3 3 5 -15.6748 -0.2178
-3 3 6 -12.2823 -0.3505
-3 3 7 5.1145 -0.4008
-3 3 8 2.7140 0.7080
-3 3 9 4.6482 0.1454
-3 3 10 5.1720 0.2844
-3 3 11 -1.1356 0.1588
-3 3 12 -2.1562 -0.4138
-3 3 13 3.3458 -0.0117
-3 5 1 -68.8678 0.2670
-3 5 2 -24.3922 -0.0227
-3 5 3 14.7917 0.1824
-3 5 4 -8.1908 0.5315
-3 5 5 -23.9317 -0.0272
-3 5 6 3.7648 0.2128
-3 5 7 10.3372 -0.2294
-3 5 8 5.0758 -0.4264
-3 5 9 2.7798 -0.0118
-3 5 10 -3.3642 -0.2845
-3 5 11 -0.9649 0.0023
-3 5 12 2.6375 0.2587
-3 5 13 -2.0404 0.1657
-3 7 1 -6.7477 -0.1404
-3 7 2 2.3813 -0.1171
-3 7 3 13.3262 -0.2997
-3 7 4 23.4595 -0.0256
-3 7 5 -8.1554 0.1051
-3 7 6 1.5349 0.0103
-3 7 7 5.7907 0.3040
-3 7 8 -4.0402 0.0859
-3 7 9 -3.1824 -0.0546
-3 7 10 -2.1144 0.0841
-3 7 11 -2.8742 -0.1151
-3 7 12 -1.3930 0.1342
-3 9 1 -10.6303 -0.1049
-3 9 2 19.2459 0.0928
-3 9 3 3.4523 0.0158
-3 9 4 -8.6002 0.0494
-3 9 5 -10.6455 0.0029
-3 9 6 6.4540 -0.0360
-3 9 7 -3.8737 0.0195
-3 9 8 -2.1707 -0.0478
-3 9 9 -1.5255 -0.0550
-3 9 10 -0.6621 -0.0525
-3 9 11 0.2637 0.0252
-3 9 12 0.1819 0.0269
-3 11 1 -25.3979 0.1586
-3 11 2 9.5871 -0.0145
-3 11 3 13.3279 0.0483
-3 11 4 -22.3647 -0.0700
-3 11 5 0.1576 0.0478
-3 11 6 6.8281 -0.0026
-3 11 7 2.0182 0.0056
-3 11 8 3.4742 0.1299
-3 11 9 -0.6988 0.0072
-3 11 10 0.8514 0.0308
-3 11 11 0.0203 0.0204
-3 11 12 -0.0380 -0.1594
-3 13 1 16.5248 0.0238
-3 13 2 -7.1709 0.0115
-3 13 3 7.4265 0.0650
-3 13 4 -5.5634 -0.0658
-3 13 5 3.6324 -0.0970
-3 13 6 2.0144 -0.0006
-3 13 7 2.5936 -0.1129
-3 13 8 1.4297 0.0142
-3 13 9 2.9100 0.0708
-3 13 10 -0.1833 -0.0463
-3 13 11 -2.2039 0.0341
-3 13 12 2.1378 0.0816
-3 15 1 0.9264 -0.0475
-3 15 2 1.4696 0.0146
-3 15 3 -10.4330 -0.0305
-3 15 4 5.8602 0.1148
-3 15 5 2.5520 0.0002
-3 15 6 -2.1769 0.0342
-3 15 7 -0.6351 0.0077
-3 15 8 -2.8806 -0.1516
-3 15 9 -0.8906 -0.0486
-3 15 10 0.6085 0.0042
-3 15 11 1.6610 -0.1753
-3 17 1 -2.8925 -0.0428
-3 17 2 8.3701 -0.0291
-3 17 3 2.6040 -0.0462
-3 17 4 -6.3933 -0.0236
-3 17 5 -2.8859 0.0339
-3 17 6 -2.1766 0.0136
-3 17 7 0.5129 0.0531
-3 17 8 0.2054 -0.0028
-3 17 9 -0.0420 -0.0101
-3 17 10 -0.9129 0.1381
-3 17 11 -1.5403 0.2204
-3 19 1 -2.2620 -0.0149
-3 19 2 -3.8228 0.0053
-3 19 3 -0.0348 -0.0027
-3 19 4 -2.8724 -0.0205
-3 19 5 1.5952 0.0154
-3 19 6 2.0053 -0.0301
-3 19 7 -0.0279 0.0076
-3 19 8 2.6869 -0.0364
-3 19 9 -0.7375 -0.0893
-3 19 10 -3.2454 -0.0542
-3 21 1 4.5799 0.0648
-3 21 2 -4.7499 -0.0215
-3 21 3 2.0319 0.0472
-3 21 4 4.1057 -0.0540
-3 21 5 0.2411 0.0101
-3 21 6 -0.9869 0.0052
-3 21 7 2.2827 -0.0210
-3 21 8 0.1539 0.0889
-3 21 9 1.5288 0.0035
-3 21 10 1.9338 0.0576
-3 23 1 -4.1483 -0.0077
-3 23 2 -2.1528 0.0166
-3 23 3 -1.6951 0.0074
-3 23 4 -6.0220 0.0831
-3 23 5 -1.3184 -0.0270
-3 23 6 1.8672 -0.0101
-3 23 7 -0.0672 -0.0543
-3 23 8 -1.4675 -0.0594
-3 23 9 -0.5790 0.1321
-3 23 10 0.2721 -0.1788
-3 25 1 -3.5700 -0.0280
-3 25 2 3.2151 0.0148
-3 25 3 2.4999 -0.0150
-3 25 4 2.3090 0.0078
-3 25 5 -0.5029 -0.0573
-3 25 6 0.3212 -0.0479
-3 25 7 -0.7589 0.0088
-3 25 8 3.2803 0.1297
-3 25 9 -1.6277 -0.0092
-3 27 1 -0.5017 -0.0277
-3 27 2 0.8986 -0.0048
-3 27 3 0.7804 -0.0455
-3 27 4 -0.0458 -0.0033
-3 27 5 1.1730 0.0225
-3 27 6 -0.3423 -0.0535
-3 27 7 -0.5591 -0.0060
-3 27 8 -0.7091 -0.2953
-3 29 1 3.1899 0.0406
-3 29 2 1.5556 -0.0435
-3 29 3 0.8404 0.0622
-3 29 4 -1.0944 0.0405
-3 29 5 3.4818 -0.1097
-3 29 6 1.0184 -0.0061
-3 29 7 -3.2934 0.0080
-3 31 1 0.1158 0.0939
-3 31 2 -1.1945 0.0103
-3 31 3 -2.0856 -0.0457
-3 31 4 -0.3587 -0.2224
-3 31 5 0.4962 0.0934
-3 33 1 2.9995 0.0022
-3 33 2 0.2532 -0.0334
-2 0 2 29.8261 -0.7516
-2 0 4 -17.8484 -0.8315
-2 0 6 -6.5914 0.8410
-2 0 8 -0.8176 0.7616
-2 0 10 0.9802 -0.5842
-2 0 12 -2.0792 -0.4734
-2 2 1 -82.2614 0.1363
-2 2 2 -71.0320 1.0398
-2 2 3 -12.4979 0.0146
-2 2 4 19.1955 0.7511
-2 2 5 -9.8968 -0.2342
-2 2 6 -10.0746 -0.7116
-2 2 7 7.5107 -0.0361
-2 2 8 -1.6975 -0.6726
-2 2 9 -1.5299 0.1897
-2 2 10 3.4530 0.4665
-2 2 11 4.8180 0.0154
-2 2 12 -0.1114 0.4264
-2 2 13 -0.2262 -0.1307
-2 4 1 -8.3175 -0.0825
-2 4 2 -15.5688 -0.1480
-2 4 3 23.4689 0.0163
-2 4 4 34.8357 -0.0004
-2 4 5 -12.6735 0.6852
-2 4 6 -11.8141 0.0165
-2 4 7 4.9396 0.0057
-2 4 8 -0.8863 0.0386
-2 4 9 4.9976 -0.5536
-2 4 10 4.5545 0.0273
-2 4 11 -2.8457 -0.1132
-2 4 12 -0.0661 -0.0687
-2 4 13 -1.1440 -0.1222
-2 6 1 -40.7768 0.3357
-2 6 2 -3.8057 -0.2797
-2 6 3 9.3877 0.0128
-2 6 4 -10.9730 -0.2401
-2 6 5 -5.7335 -0.1927
-2 6 6 8.0469 0.1179
-2 6 7 1.4128 -0.0086
-2 6 8 1.7078 0.2002
-2 6 9 3.4146 0.1585
-2 6 10 -2.9141 -0.1386
-2 6 11 -3.9942 -0.0346
-2 6 12 -3.1792 -0.2381
-2 6 13 3.1249 -0.1601
-2 8 1 -40.8126 -0.0027
-2 8 2 21.2029 0.0378
-2 8 3 22.2328 -0.1024
-2 8 4 -13.3638 0.1243
-2 8 5 -17.4927 -0.2048
-2 8 6 2.7248 -0.1448
-2 8 7 1.0776 -0.0407
-2 8 8 -0.7558 -0.1148
-2 8 9 2.5143 0.0954
-2 8 10 -1.0756 0.0916
-2 8 11 -1.8911 0.1567
-2 8 12 0.9461 0.1115
-2 10 1 1.5902 -0.1216
-2 10 2 -4.7834 0.0463
-2 10 3 -3.3774 0.0202
-2 10 4 10.9502 -0.0849
-2 10 5 -4.3632 -0.0514
-2 10 6 4.4444 0.1232
-2 10 7 6.3316 0.0327
-2 10 8 3.2257 0.0905
-2 10 9 -2.0479 0.0384
-2 10 10 -2.4945 0.0327
-2 10 11 -3.0239 -0.1216
-2 10 12 2.1396 -0.0565
-2 12 1 3.3334 -0.0789
-2 12 2 1.2362 0.0974
-2 12 3 13.3640 0.0088
-2 12 4 2.3903 0.0679
-2 12 5 7.4387 0.0792
-2 12 6 4.5048 -0.0952
-2 12 7 -1.2083 0.0273
-2 12 8 0.2821 -0.0708
-2 12 9 -1.4273 0.0365
-2 12 10 -0.2908 0.1071
-2 12 11 2.9161 -0.1175
-2 12 12 0.6019 -0.0081
-2 14 1 -18.8962 0.0266
-2 14 2 11.5846 -0.1482
-2 14 3 2.1166 0.0259
-2 14 4 -20.4117 -0.0439
-2 14 5 -0.7986 0.0832
-2 14 6 3.1879 0.0801
-2 14 7 -0.3010 0.0301
-2 14 8 -0.4204 0.0425
-2 14 9 -2.8928 -0.0742
-2 14 10 -1.8505 -0.0933
-2 14 11 3.1477 -0.1760
-2 14 12 -2.1437 -0.5621
-2 16 1 6.5690 0.0425
-2 16 2 -0.3540 -0.0052
-2 16 3 7.8216 -0.0082
-2 16 4 -3.8998 -0.0256
-2 16 5 -4.6243 -0.0372
-2 16 6 -3.0027 -0.0154
-2 16 7 -1.2928 -0.0408
-2 16 8 -0.4848 0.0222
-2 16 9 2.2947 0.0214
-2 16 10 0.7854 -0.0616
-2 16 11 -6.9180 -0.0360
-2 18 1 -3.0251 0.0062
-2 18 2 -3.6240 0.0342
-2 18 3 -7.2252 -0.0458
-2 18 4 3.1665 0.0167
-2 18 5 -0.9511 -0.0358
-2 18 6 0.1726 0.0003
-2 18 7 2.3260 0.0165
-2 18 8 -0.6176 0.0211
-2 18 9 -0.7328 0.0132
-2 18 10 -1.9387 -0.0937
-2 20 1 -3.1765 -0.0256
-2 20 2 -1.1001 0.0233
-2 20 3 1.1659 0.0108
-2 20 4 -3.1863 0.0172
-2 20 5 6.4106 -0.0082
-2 20 6 -0.9421 0.0014
-2 20 7 -0.4454 0.0146
-2 20 8 -2.3233 -0.0408
-2 20 9 0.0594 0.0204
-2 20 10 6.0183 -0.0271
-2 22 1 0.6016 -0.0609
-2 22 2 5.7357 -0.0130
-2 22 3 4.5962 0.0390
-2 22 4 -2.1717 0.0096
-2 22 5 -2.5955 0.0229
-2 22 6 2.7434 -0.0256
-2 22 7 -0.1222 0.0462
-2 22 8 2.1425 -0.0639
-2 22 9 1.4968 -0.0562
-2 22 10 -1.9616 -0.0885
-2 24 1 -1.2591 -0.0047
-2 24 2 -1.2747 -0.0620
-2 24 3 -1.1266 -0.0111
-2 24 4 2.4580 -0.0198
-2 24 5 0.6638 0.0223
-2 24 6 -0.4085 0.0593
-2 24 7 -1.0409 -0.0287
-2 24 8 3.0934 0.0383
-2 24 9 0.2196 -0.1640
-2 26 1 2.4524 0.0118
-2 26 2 1.2473 0.0233
-2 26 3 -0.6431 0.0056
-2 26 4 -2.1709 0.0775
-2 26 5 0.5702 0.0240
-2 26 6 -0.4469 -0.0262
-2 26 7 -0.8780 0.0559
-2 26 8 -0.7906 0.0651
-2 26 9 1.6691 0.1502
-2 28 1 -1.1622 0.0334
-2 28 2 1.1360 0.0014
-2 28 3 -2.4947 0.0275
-2 28 4 -1.9108 -0.0909
-2 28 5 0.6971 -0.0753
-2 28 6 0.6953 -0.0687
-2 28 7 0.5631 -0.2005
-2 30 1 1.4365 0.1203
-2 30 2 0.6282 0.1257
-2 30 3 3.9150 -0.0584
-2 30 4 0.5234 0.0464
-2 30 5 -0.9787 -0.0602
-2 30 6 -2.7163 -0.1722
-2 32 1 1.0288 -0.1733
-2 32 2 -1.4258 -0.1497
-2 32 3 0.2728 0.0646
-1 1 1 -86.8613 -0.1611
-1 1 2 -51.3298 -0.3207
-1 1 3 11.2684 0.7445
-1 1 4 24.8584 -0.0228
-1 1 5 2.1420 0.3650
-1 1 6 -9.9371 0.0399
-1 1 7 3.0830 -0.5884
-1 1 8 -6.0596 0.0137
-1 1 9 3.5274 -0.2741
-1 1 10 4.0772 0.0030
-1 1 11 -1.7516 0.4420
-1 1 12 -1.6857 -0.1249
-1 3 1 -26.6218 0.2107
-1 3 2 -37.3832 -0.6885
-1 3 3 35.0195 -0.4246
-1 3 4 4.0363 0.5318
-1 3 5 -11.6405 -0.1630
-1 3 6 -2.6017 0.7964
-1 3 7 0.4263 0.4042
-1 3 8 1.3173 -0.2483
-1 3 9 7.0606 0.2306
-1 3 10 4.5643 -0.6104
-1 3 11 -2.5828 -0.3292
-1 3 12 -1.5700 0.2070
-1 3 13 5.5850 -0.3094
-1 5 1 -38.2624 -0.2380
-1 5 2 -3.9343 0.5031
-1 5 3 -1.6981 -0.2221
-1 5 4 -8.8885 -0.2130
-1 5 5 -14.9980 -0.1341
-1 5 6 2.5674 -0.4887
-1 5 7 5.9448 0.1787
-1 5 8 0.8933 0.1040
-1 5 9 6.9657 0.0429
-1 5 10 -2.5851 0.3786
-1 5 11 -1.2192 -0.2174
-1 5 12 -0.0230 -0.1229
-1 5 13 -1.1663 -0.1417
-1 7 1 -70.7789 0.0144
-1 7 2 16.1250 0.1825
-1 7 3 16.1572 0.4306
-1 7 4 17.0010 -0.0255
-1 7 5 1.1988 0.1545
-1 7 6 -4.6998 0.1036
-1 7 7 2.4852 -0.2466
-1 7 8 0.2117 -0.0065
-1 7 9 -6.7966 -0.1907
-1 7 10 -3.1210 -0.1191
-1 7 11 -1.0984 0.1261
-1 7 12 1.9878 -0.2077
-1 9 1 -12.9006 0.2044
-1 9 2 10.3022 -0.0907
-1 9 3 22.3514 0.0350
-1 9 4 0.4886 -0.0367
-1 9 5 -9.6703 0.0102
-1 9 6 5.3575 -0.0566
-1 9 7 -5.7223 -0.0627
-1 9 8 -0.5198 -0.0006
-1 9 9 1.9081 -0.0593
-1 9 10 -1.4886 0.0362
-1 9 11 -0.1809 0.0701
-1 9 12 -0.1441 0.1613
-1 11 1 -3.8631 -0.0510
-1 11 2 0.5470 -0.0838
-1 11 3 3.4381 -0.0556
-1 11 4 -12.9455 0.0899
-1 11 5 -7.8796 -0.0302
-1 11 6 10.1236 0.0327
-1 11 7 3.6256 -0.0050
-1 11 8 2.5107 0.0059
-1 11 9 0.7366 0.0411
-1 11 10 0.8864 0.0145
-1 11 11 -0.8091 -0.0450
-1 11 12 -0.4802 -0.0868
-1 13 1 7.5303 0.0142
-1 13 2 16.4949 0.0170
-1 13 3 2.9294 -0.1204
-1 13 4 -7.1962 0.0023
-1 13 5 2.7207 -0.0271
-1 13 6 -1.7944 0.0179
-1 13 7 3.2739 0.0702
-1 13 8 2.9677 0.0359
-1 13 9 1.7028 0.1464
-1 13 10 -0.0447 0.0226
-1 13 11 0.9341 0.0550
-1 13 12 0.2990 0.4121
-1 15 1 -4.1069 -0.0009
-1 15 2 -1.4276 0.0869
-1 15 3 -4.2691 -0.0202
-1 15 4 -2.1896 -0.1121
-1 15 5 5.0212 -0.0209
-1 15 6 -2.8057 -0.1680
-1 15 7 -1.8631 -0.0657
-1 15 8 -2.4160 -0.0163
-1 15 9 -3.8005 -0.0506
-1 15 10 0.1887 0.0124
-1 15 11 0.2678 -0.1969
-1 15 12 -3.4686 -0.2762
-1 17 1 1.6277 -0.0101
-1 17 2 -0.4677 0.0070
-1 17 3 2.7036 0.0722
-1 17 4 -5.0042 -0.0011
-1 17 5 -2.3243 0.0281
-1 17 6 2.3764 0.0777
-1 17 7 -1.3916 0.0690
-1 17 8 -0.2855 -0.0100
-1 17 9 0.8828 0.0720
-1 17 10 0.0365 -0.0641
-1 17 11 -1.4752 0.0742
-1 19 1 -0.8280 -0.0165
-1 19 2 -3.4462 -0.0696
-1 19 3 0.5509 0.0285
-1 19 4 -3.6472 0.0219
-1 19 5 -0.1510 0.0220
-1 19 6 3.8857 -0.0141
-1 19 7 1.2671 0.0079
-1 19 8 -0.9802 0.0826
-1 19 9 1.2187 -0.1033
-1 19 10 0.7656 0.0578
-1 21 1 -3.5206 -0.0115
-1 21 2 1.3033 -0.0422
-1 21 3 0.5939 -0.0487
-1 21 4 5.9596 0.0474
-1 21 5 2.3401 -0.0659
-1 21 6 -2.7968 0.0464
-1 21 7 1.1278 0.0581
-1 21 8 0.4367 -0.0138
-1 21 9 1.0758 -0.1216
-1 21 10 -0.0994 -0.1180
-1 23 1 -0.4925 0.0267
-1 23 2 -1.6012 0.0346
-1 23 3 -0.7338 -0.0161
-1 23 4 -5.0124 -0.0242
-1 23 5 1.2317 -0.0166
-1 23 6 -0.0426 -0.0400
-1 23 7 -1.2683 0.0450
-1 23 8 1.7777 -0.0123
-1 23 9 0.3711 0.2090
-1 25 1 -3.0016 0.0241
-1 25 2 1.0499 0.0569
-1 25 3 0.6963 -0.0320
-1 25 4 -0.9974 -0.0478
-1 25 5 -0.8714 0.0210
-1 25 6 1.7872 0.0097
-1 25 7 -1.0535 -0.0093
-1 25 8 1.5577 0.0156
-1 25 9 -0.9216 -0.0651
-1 27 1 -1.1731 -0.0177
-1 27 2 0.5973 -0.0185
-1 27 3 0.9125 -0.0144
-1 27 4 0.3703 0.0403
-1 27 5 -0.5793 -0.0172
-1 27 6 -0.6697 -0.0453
-1 27 7 0.5636 0.0439
-1 27 8 -2.4662 -0.0859
-1 29 1 4.1802 0.0223
-1 29 2 0.5667 -0.0464
-1 29 3 0.9366 0.1417
-1 29 4 2.9120 -0.0555
-1 29 5 4.2709 0.0763
-1 29 6 1.6197 0.1713
-1 31 1 -2.8729 -0.0218
-1 31 2 1.6174 -0.0748
-1 31 3 -1.8368 -0.1275
-1 31 4 -1.8200 0.0543
-1 33 1 5.8214 0.2582
-1 33 2 -1.7380 0.0844
0 0 2 -62.1335 0.0204
0 0 4 2.3087 1.4256
0 0 6 6.9874 0.1889
0 0 8 -2.6823 -1.0320
0 0 10 0.5887 -0.2375
0 0 12 -2.7139 0.6903
0 2 1 -22.2286 0.0558
0 2 2 -61.1176 -0.0684
0 2 3 -39.9451 -0.1235
0 2 4 8.0420 -1.1723
0 2 5 9.8426 0.1461
0 2 6 -2.9933 -0.1363
0 2 7 -4.3717 0.1503
0 2 8 -7.1235 0.9083
0 2 9 4.7400 -0.1260
0 2 10 5.7213 0.1888
0 2 11 2.8221 -0.0289
0 2 12 -2.1906 -0.5542
0 2 13 4.3551 -0.2644
0 4 0 -140.6553 -0.5799
0 4 1 -112.3330 0.3394
0 4 2 34.8018 0.1348
0 4 3 45.3576 0.4719
0 4 4 10.1338 -0.0468
0 4 5 -8.8539 -0.4182
0 4 6 -7.2977 -0.0262
0 4 7 2.3473 -0.4431
0 4 8 -0.8709 -0.0068
0 4 9 3.5045 0.2786
0 4 10 5.2426 -0.0121
0 4 11 -2.5650 0.2722
0 4 12 0.5960 -0.1201
0 4 13 -2.5685 -0.1697
0 6 0 147.0610 0.1121
0 6 1 -36.7822 -0.0203
0 6 2 -47.0149 -0.0747
0 6 3 26.7759 -0.2216
0 6 4 0.2704 0.3766
0 6 5 -4.7656 0.1861
0 6 6 4.7588 0.0770
0 6 7 1.9024 0.1577
0 6 8 1.5586 -0.2635
0 6 9 6.0116 -0.1032
0 6 10 -5.6273 -0.0152
0 6 11 -5.0587 -0.0949
0 6 12 -1.5850 -0.0397
0 8 0 2.3807 0.0362
0 8 1 5.8891 -0.2284
0 8 2 21.2379 -0.0937
0 8 3 -1.5114 -0.1160
0 8 4 11.3514 -0.1177
0 8 5 -4.4140 0.1026
0 8 6 -0.8113 0.0189
0 8 7 -4.8438 0.1070
0 8 8 0.3525 0.1189
0 8 9 2.5233 -0.0807
0 8 10 -1.6576 0.0807
0 8 11 -2.8813 -0.0555
0 8 12 1.2142 -0.0425
0 10 0 -99.9437 -0.0267
0 10 1 -23.8354 0.0234
0 10 2 30.6158 0.0520
0 10 3 -4.7888 -0.0110
0 10 4 -1.1002 0.1053
0 10 5 -4.1781 0.0410
0 10 6 -0.4060 -0.0194
0 10 7 -0.1164 -0.0178
0 10 8 4.8201 -0.1094
0 10 9 -0.5822 -0.0647
0 10 10 -2.2224 -0.0520
0 10 11 0.8129 -0.1743
0 10 12 -0.1802 0.0394
0 12 0 -0.9767 0.0407
0 12 1 -5.8368 0.0887
0 12 2 -11.9655 -0.0396
0 12 3 25.6824 0.0934
0 12 4 -6.9874 -0.1401
0 12 5 -0.2972 -0.0156
0 12 6 5.0255 -0.0433
0 12 7 3.1896 -0.0466
0 12 8 4.2226 0.1693
0 12 9 -1.4112 0.0846
0 12 10 -1.1704 0.0578
0 12 11 3.0139 0.1400
0 12 12 2.8772 -0.1791
0 14 0 16.8970 -0.1016
0 14 1 -5.1565 -0.0235
0 14 2 -2.3475 0.0515
0 14 3 -2.8616 0.0726
0 14 4 -5.4983 0.0842
0 14 5 -1.6815 -0.0757
0 14 6 2.5772 -0.0114
0 14 7 2.2343 -0.0606
0 14 8 -0.9268 -0.1187
0 14 9 -7.2044 0.0063
0 14 10 -1.6455 -0.0681
0 14 11 1.7773 -0.1886
0 16 0 -14.7088 0.0650
0 16 1 -0.9269 0.0027
0 16 2 10.0307 -0.0231
0 16 3 0.4855 -0.0329
0 16 4 -4.7239 0.0739
0 16 5 -1.8407 0.0291
0 16 6 -1.4858 -0.0208
0 16 7 -1.3141 0.0398
0 16 8 -4.0031 0.0158
0 16 9 4.3191 0.0002
0 16 10 1.6290 0.0053
0 16 11 -5.2598 0.0176
0 18 0 -2.1846 -0.0432
0 18 1 -6.1605 -0.0178
0 18 2 1.4516 -0.0101
0 18 3 0.4834 -0.0272
0 18 4 -3.8643 -0.0246
0 18 5 1.5542 -0.0042
0 18 6 1.7149 -0.0293
0 18 7 -2.2458 0.0394
0 18 8 -1.4767 -0.0093
0 18 9 -1.4039 -0.0027
0 18 10 1.6744 0.0337
0 20 0 -0.4485 0.0135
0 20 1 0.0287 -0.0084
0 20 2 -4.2620 0.0232
0 20 3 1.2603 -0.0220
0 20 4 -0.7948 -0.0705
0 20 5 2.9947 -0.0310
0 20 6 -1.3493 -0.0246
0 20 7 1.0306 0.0103
0 20 8 0.0725 0.0744
0 20 9 2.0705 -0.0006
0 20 10 4.8930 0.0196
0 22 0 4.0892 0.0317
0 22 1 3.7490 0.0292
0 22 2 3.6277 -0.0181
0 22 3 0.8345 0.0428
0 22 4 -1.9143 -0.0321
0 22 5 1.1839 0.0067
0 22 6 3.3530 0.0459
0 22 7 -0.4420 0.0141
0 22 8 1.4830 -0.0480
0 22 9 1.7045 0.1108
0 22 10 -0.5844 -0.1014
0 24 0 -4.5366 -0.0029
0 24 1 -2.0572 -0.0507
0 24 2 1.0089 0.0078
0 24 3 -1.7124 0.0360
0 24 4 1.3744 0.0492
0 24 5 1.1549 0.0087
0 24 6 -0.0997 0.0216
0 24 7 -1.7037 0.0164
0 24 8 -0.7028 0.0625
0 24 9 -0.8513 -0.0026
0 26 0 -4.0620 0.0322
0 26 1 1.3453 0.0266
0 26 2 1.6222 -0.0296
0 26 3 -0.0104 -0.0662
0 26 4 0.6372 -0.0049
0 26 5 -1.5771 -0.0243
0 26 6 -1.4882 -0.0387
0 26 7 -1.2346 0.0351
0 26 8 2.0796 0.0326
0 26 9 3.3089 -0.1157
0 28 0 -3.0492 -0.1428
0 28 1 -1.2279 -0.0062
0 28 2 -0.8438 -0.0109
0 28 3 -2.8382 0.0550
0 28 4 -3.4734 0.0369
0 28 5 1.1603 0.0279
0 28 6 0.7419 0.0041
0 28 7 0.1717 -0.0047
0 28 8 -0.3261 -0.1015
0 30 0 4.7047 0.0090
0 30 1 1.6111 0.0457
0 30 2 -1.0012 0.0723
0 30 3 3.2667 -0.0666
0 30 4 0.1874 -0.0206
0 30 5 1.2408 -0.1161
0 30 6 -2.4695 -0.2313
0 32 0 -3.6322 0.0146
0 32 1 -0.7910 -0.0343
0 32 2 -2.9950 0.0397
0 32 3 0.3882 0.1180
0 32 4 1.2321 -0.2018
0 32 5 0.4402 -0.0638
0 34 3 2.5874 -0.0391
0 34 4 -0.3561 0.1488
1 1 1 -109.4141 0.1112
1 1 2 2.9261 0.0887
1 1 3 9.4848 -0.3209
1 1 4 -3.7984 0.0564
1 1 5 -3.7276 -0.7064
1 1 6 4.7586 -0.0018
1 1 7 7.8600 0.2544
1 1 8 -7.2119 -0.0313
1 1 9 -1.3932 0.5506
1 1 10 3.3873 -0.0308
1 1 11 -0.1824 -0.0257
1 1 12 -2.9217 0.1090
1 3 1 -26.9186 -0.3086
1 3 2 -109.5918 0.7425
1 3 3 15.7123 0.1615
1 3 4 6.4251 0.4459
1 3 5 -4.6469 0.4660
1 3 6 -0.2898 -0.6576
1 3 7 -0.5324 -0.0997
1 3 8 -2.1766 -0.4219
1 3 9 3.3039 -0.3889
1 3 10 4.4530 0.5369
1 3 11 -0.6491 0.1086
1 3 12 -0.2038 0.2854
1 3 13 2.3406 -0.3907
1 5 0 7.3829 -0.1138
1 5 1 -3.5349 -0.0474
1 5 2 -3.6294 -0.5878
1 5 3 -13.6722 0.1663
1 5 4 13.5807 -0.1983
1 5 5 11.8544 0.2772
1 5 6 2.6021 0.4631
1 5 7 -5.4887 -0.0463
1 5 8 0.2973 0.2350
1 5 9 9.5017 -0.1806
1 5 10 -2.0463 -0.2670
1 5 11 -3.5692 -0.0483
1 5 12 -0.6555 -0.3339
1 7 0 -130.1453 -0.2019
1 7 1 -107.5003 0.1936
1 7 2 39.7365 0.0810
1 7 3 22.4553 -0.1415
1 7 4 2.2523 0.0925
1 7 5 5.8725 -0.3087
1 7 6 -3.1109 -0.1345
1 7 7 -3.3449 0.0741
1 7 8 -1.0332 -0.0964
1 7 9 -0.6275 0.2068
1 7 10 -0.9508 0.0099
1 7 11 0.7439 -0.0644
1 7 12 1.0469 -0.2610
1 9 0 16.6714 0.0052
1 9 1 -9.9873 -0.0755
1 9 2 3.4585 0.0094
1 9 3 33.8123 0.0519
1 9 4 7.0090 -0.0451
1 9 5 -15.0922 -0.0517
1 9 6 -1.5343 0.0440
1 9 7 -2.1870 -0.0343
1 9 8 0.6127 0.0851
1 9 9 1.2268 -0.0493
1 9 10 -0.3765 -0.0026
1 9 11 -0.5907 0.0149
1 9 12 -0.1494 0.1560
1 11 0 -4.4674 -0.0010
1 11 1 11.1848 0.0201
1 11 2 -11.9976 0.1408
1 11 3 -6.7261 0.0395
1 11 4 1.2063 -0.0114
1 11 5 -4.5995 -0.0274
1 11 6 3.4232 -0.0405
1 11 7 0.9445 -0.0080
1 11 8 6.9851 -0.0403
1 11 9 0.0386 0.0078
1 11 10 -3.2886 -0.0186
1 11 11 -3.7313 0.0056
1 11 12 -0.3542 0.1996
1 13 0 -31.7828 0.0732
1 13 1 -8.0180 -0.0303
1 13 2 24.8380 -0.0628
1 13 3 -0.6200 -0.0089
1 13 4 -10.0854 0.0257
1 13 5 2.3912 0.1315
1 13 6 1.0099 -0.0554
1 13 7 0.2816 -0.0095
1 13 8 2.6214 -0.0216
1 13 9 0.8738 -0.0258
1 13 10 -1.9039 0.0975
1 13 11 3.0241 0.1473
1 13 12 0.1486 0.3351
1 15 0 -9.2983 -0.0711
1 15 1 -0.9279 -0.0159
1 15 2 0.9240 -0.1066
1 15 3 3.4639 0.0018
1 15 4 -8.8597 -0.0261
1 15 5 -0.2472 0.0013
1 15 6 -0.7861 0.0645
1 15 7 1.3126 -0.0023
1 15 8 -3.2938 0.0444
1 15 9 -3.3787 0.0021
1 15 10 2.0518 -0.0228
1 15 11 2.9209 -0.0179
1 17 0 12.5755 -0.0237
1 17 1 4.7193 0.0190
1 17 2 -0.2586 0.0653
1 17 3 3.1092 -0.0231
1 17 4 1.1150 -0.0248
1 17 5 -1.4055 -0.0261
1 17 6 2.1302 -0.0714
1 17 7 -0.9183 -0.0170
1 17 8 0.6104 -0.0241
1 17 9 -2.0381 0.0201
1 17 10 0.5059 -0.0942
1 19 0 1.2758 0.0179
1 19 1 -4.5238 0.0011
1 19 2 -4.9803 0.0250
1 19 3 -6.0538 -0.0051
1 19 4 -8.0344 -0.0134
1 19 5 5.7419 -0.0297
1 19 6 2.5202 0.0405
1 19 7 -0.4539 0.0670
1 19 8 -2.1782 0.0631
1 19 9 1.9627 0.0357
1 19 10 4.0308 0.1142
1 21 0 -1.8058 0.0195
1 21 1 -4.4706 -0.0035
1 21 2 2.8606 0.0495
1 21 3 1.0503 0.0214
1 21 4 3.7094 0.0229
1 21 5 2.6587 -0.0149
1 21 6 1.9420 -0.0270
1 21 7 -1.4709 0.0299
1 21 8 -2.9016 -0.0598
1 21 9 2.3392 0.0681
1 21 10 1.2225 0.0032
1 23 0 1.9701 -0.0383
1 23 1 3.6669 0.0081
1 23 2 -0.5353 -0.0706
1 23 3 1.6288 -0.0371
1 23 4 -0.1855 -0.0200
1 23 5 -1.2197 0.0107
1 23 6 -2.7890 0.0020
1 23 7 0.9133 0.0342
1 23 8 4.6644 0.0826
1 23 9 0.4875 -0.1443
1 23 10 -1.4333 -0.0069
1 25 0 -4.7614 -0.0347
1 25 1 -3.0816 0.0214
1 25 2 0.4045 0.0005
1 25 3 -1.2063 -0.0365
1 25 4 -0.6390 0.0263
1 25 5 0.5595 0.0248
1 25 6 -1.2079 0.0026
1 25 7 -3.5831 0.0477
1 25 8 0.4052 -0.1461
1 25 9 0.5477 0.0681
1 27 0 -3.4864 -0.0635
1 27 1 -0.1529 0.0048
1 27 2 0.4515 -0.0201
1 27 3 -1.2506 0.0726
1 27 4 -0.6302 -0.0678
1 27 5 1.0041 0.0402
1 27 6 0.7081 0.0353
1 27 7 1.3922 -0.0565
1 27 8 -1.9619 0.0997
1 29 0 0.8596 0.0279
1 29 1 0.1915 0.0427
1 29 2 -1.7922 -0.0097
1 29 3 0.8563 -0.0815
1 29 4 2.5818 -0.0327
1 29 5 1.3057 0.0379
1 29 6 3.2720 0.1469
1 29 7 -3.7855 -0.0919
1 31 0 0.1618 0.0695
1 31 1 -0.2071 -0.0485
1 31 2 3.4147 0.0545
1 31 3 0.2438 0.0333
1 31 4 -2.1924 0.2130
1 31 5 -0.3510 -0.1160
1 33 1 5.7102 0.0732
1 33 2 -1.3465 -0.1353
1 33 3 3.2511 0.0229
1 33 4 0.6756 -0.1115
2 0 0 379.1687 2.6880
2 0 2 -60.4672 0.7595
2 0 4 -12.2315 -0.7977
2 0 6 14.9726 -1.0113
2 0 8 -5.8076 0.4812
2 0 10 2.7741 0.8334
2 0 12 -7.2409 -0.3368
2 2 1 -47.1708 -0.1158
2 2 2 -46.4676 -1.0488
2 2 3 -21.9040 0.2280
2 2 4 8.5820 0.6617
2 2 5 13.0291 -0.0208
2 2 6 6.1169 0.8450
2 2 7 -6.3282 -0.1452
2 2 8 -5.8425 -0.4106
2 2 9 5.6430 0.0203
2 2 10 5.2112 -0.6982
2 2 11 -2.6704 0.1372
2 2 12 0.3695 0.2264
2 4 0 -47.8934 -0.1637
2 4 1 -79.6665 -0.2073
2 4 2 24.4618 0.0994
2 4 3 28.2335 -0.6043
2 4 4 -4.9303 0.0725
2 4 5 -1.0250 -0.0716
2 4 6 -2.3650 -0.0048
2 4 7 -1.4476 0.5860
2 4 8 -4.1709 -0.0113
2 4 9 6.0657 0.1223
2 4 10 3.5245 0.0581
2 4 11 -3.2381 -0.3388
2 4 12 -2.4665 0.1514
2 4 13 0.3764 -0.1050
2 6 0 60.9502 0.1823
2 6 1 -17.4518 -0.1878
2 6 2 -39.0122 0.2528
2 6 3 7.9562 0.1947
2 6 4 -5.5032 -0.3086
2 6 5 7.1852 -0.0055
2 6 6 0.1320 -0.1513
2 6 7 0.6945 -0.1691
2 6 8 0.7601 0.2183
2 6 9 3.0409 -0.0381
2 6 10 -3.5879 0.1589
2 6 11 -1.7380 0.1120
2 6 12 0.3839 -0.3217
2 8 0 3.1008 -0.1357
2 8 1 -18.8926 0.1658
2 8 2 13.7257 0.0278
2 8 3 4.3830 0.2329
2 8 4 28.1665 0.0866
2 8 5 6.5268 0.0855
2 8 6 0.1680 0.1201
2 8 7 -9.7555 -0.1240
2 8 8 2.5922 -0.0842
2 8 9 1.1733 -0.0620
2 8 10 -3.8463 -0.1245
2 8 11 -1.9306 0.0778
2 8 12 4.3387 0.0886
2 10 0 -49.1773 0.0261
2 10 1 -20.1969 0.0300
2 10 2 21.8565 -0.0780
2 10 3 5.1534 -0.0814
2 10 4 4.4926 -0.0033
2 10 5 -6.9676 0.0645
2 10 6 -1.4540 -0.0660
2 10 7 -4.9473 -0.0113
2 10 8 0.4343 -0.0312
2 10 9 3.8699 -0.1090
2 10 10 -1.7857 -0.0698
2 10 11 1.2838 -0.0508
2 10 12 -3.8907 0.0974
2 12 0 -22.9380 -0.1329
2 12 1 2.0164 -0.0418
2 12 2 -5.0777 -0.0830
2 12 3 12.0227 -0.0346
2 12 4 -9.2626 0.1232
2 12 5 -5.5918 0.0005
2 12 6 0.7490 0.1192
2 12 7 6.1578 0.0701
2 12 8 9.3620 -0.0645
2 12 9 0.2974 -0.0152
2 12 10 0.1818 -0.0568
2 12 11 3.0586 0.0067
2 12 12 1.6152 -0.1454
2 14 0 9.3064 0.0390
2 14 1 -7.1238 0.0468
2 14 2 3.6923 0.0493
2 14 3 2.0328 -0.0712
2 14 4 -7.2514 -0.0484
2 14 5 3.3915 -0.0080
2 14 6 -0.5004 -0.1222
2 14 7 -0.7894 0.0045
2 14 8 -0.1797 0.0304
2 14 9 -10.0970 0.0107
2 14 10 -1.2953 0.1776
2 14 11 -0.1832 0.1555
2 16 0 -6.3562 0.0034
2 16 1 -8.6842 0.0094
2 16 2 2.7662 0.0578
2 16 3 -3.1056 0.0713
2 16 4 -6.5166 -0.0162
2 16 5 -1.7271 -0.0419
2 16 6 2.5316 -0.0070
2 16 7 -1.0737 -0.0376
2 16 8 -3.9192 -0.0342
2 16 9 2.6690 -0.0201
2 16 10 -0.2499 -0.0363
2 16 11 -4.0144 0.0966
2 18 0 -2.2332 0.0452
2 18 1 1.0584 0.0136
2 18 2 0.6220 0.0028
2 18 3 1.3923 0.0664
2 18 4 -2.5547 0.0297
2 18 5 2.4370 0.0318
2 18 6 2.3308 -0.0203
2 18 7 -1.3793 -0.0115
2 18 8 -2.3763 -0.0505
2 18 9 0.4362 0.1044
2 18 10 3.2971 0.1301
2 20 0 2.8779 -0.0344
2 20 1 0.9691 -0.0264
2 20 2 0.2499 -0.0519
2 20 3 -3.1025 -0.0214
2 20 4 1.9131 0.0030
2 20 5 2.6138 0.0113
2 20 6 -2.8225 -0.0073
2 20 7 1.2266 -0.0542
2 20 8 0.6996 0.0585
2 20 9 1.3220 -0.0140
2 20 10 4.1144 0.0108
2 22 0 1.4841 0.0149
2 22 1 1.2748 0.0124
2 22 2 3.1973 -0.0145
2 22 3 -0.1405 -0.0382
2 22 4 -1.5514 -0.0294
2 22 5 5.5506 -0.0339
2 22 6 2.1405 -0.0246
2 22 7 -1.3700 0.0099
2 22 8 0.8321 0.0439
2 22 9 1.5033 0.0911
2 22 10 0.7842 0.0101
2 24 0 -5.9887 0.0407
2 24 1 -0.5868 0.0530
2 24 2 0.4248 0.0275
2 24 3 -1.8623 -0.0119
2 24 4 1.7405 -0.0508
2 24 5 -0.2202 -0.0252
2 24 6 0.9335 0.0080
2 24 7 -1.3166 0.0602
2 24 8 -2.9527 0.0400
2 24 9 -1.3001 0.3229
2 26 0 -3.7324 0.0030
2 26 1 1.2060 0.0024
2 26 2 -2.0999 -0.0216
2 26 3 -0.4960 -0.0121
2 26 4 0.0004 -0.0213
2 26 5 -3.2669 -0.0245
2 26 6 -0.9518 0.0222
2 26 7 -2.4049 0.0527
2 26 8 3.7072 -0.0093
2 28 0 -0.8559 -0.0279
2 28 1 1.6619 -0.0103
2 28 2 -1.3941 -0.0157
2 28 3 -1.2614 0.0305
2 28 4 -1.4836 -0.0103
2 28 5 0.7677 0.0818
2 28 6 -1.4202 -0.0525
2 28 7 -0.6667 0.2102
2 30 0 2.7104 -0.0752
2 30 1 -1.7345 -0.1562
2 30 2 -0.0544 -0.1011
2 30 3 2.6698 0.0217
2 30 4 1.2708 -0.0323
2 30 5 3.3896 -0.0122
2 30 6 -0.0563 0.1304
2 30 7 -1.6058 -0.2180
2 32 0 -3.4539 0.0340
2 32 1 -3.5835 0.0145
2 32 2 -1.4932 0.2124
2 32 3 1.1388 -0.0012
2 32 4 0.1524 0.1058
2 32 5 -0.2360 -0.0391
2 34 3 1.8979 -0.0636
3 1 0 77.8706 0.3098
3 1 1 -2.0737 -0.5246
3 1 2 -13.5352 0.0591
3 1 3 -21.5534 -0.3423
3 1 4 -8.6335 -0.0050
3 1 5 10.1226 0.6521
3 1 6 12.8545 0.0563
3 1 7 0.2271 0.2871
3 1 8 -4.7349 0.0373
3 1 9 -0.4358 -0.5218
3 1 10 0.8399 -0.0401
3 1 11 0.2940 -0.2128
3 1 12 -3.0549 0.1217
3 3 0 58.6929 0.7786
3 3 1 -31.6820 0.4359
3 3 2 -58.6774 -0.2610
3 3 3 -11.3633 0.1965
3 3 4 -20.1405 -0.9834
3 3 5 10.9416 -0.3803
3 3 6 5.3749 0.0638
3 3 7 -4.8548 -0.2058
3 3 8 -6.5703 0.7118
3 3 9 1.7869 0.2982
3 3 10 6.5386 -0.0585
3 3 11 2.3624 0.1910
3 3 12 -1.5175 -0.3137
3 5 0 34.9788 -0.3870
3 5 1 -56.8356 0.1304
3 5 2 6.0224 0.2280
3 5 3 12.3031 0.0551
3 5 4 18.1351 0.5378
3 5 5 12.4741 -0.1772
3 5 6 5.6471 -0.0951
3 5 7 -4.3025 -0.0825
3 5 8 -0.3418 -0.4347
3 5 9 6.5552 0.1595
3 5 10 -1.3303 0.0341
3 5 11 -4.0417 0.1164
3 5 12 2.5930 0.2200
3 7 0 -29.4737 0.1111
3 7 1 -43.9964 -0.2149
3 7 2 -5.1154 -0.2228
3 7 3 4.9606 -0.1866
3 7 4 16.5633 -0.0835
3 7 5 11.4652 0.2633
3 7 6 -6.3772 0.0559
3 7 7 -3.7222 0.1382
3 7 8 -2.0083 0.1154
3 7 9 3.8086 -0.1633
3 7 10 -1.0304 0.0942
3 7 11 -0.8966 -0.0234
3 7 12 -3.1190 -0.1421
3 9 0 -44.0324 -0.1541
3 9 1 2.8717 -0.0674
3 9 2 20.4350 -0.0037
3 9 3 11.9627 -0.0097
3 9 4 7.0302 0.1268
3 9 5 -3.6136 -0.0032
3 9 6 -4.6627 0.0397
3 9 7 -8.1684 0.0495
3 9 8 4.0922 -0.0723
3 9 9 1.5018 -0.0134
3 9 10 0.2194 -0.1424
3 9 11 -0.9252 -0.1404
3 9 12 -1.4692 -0.0246
3 11 0 -6.4681 0.1351
3 11 1 -15.4670 0.0306
3 11 2 -8.7686 -0.0240
3 11 3 7.1274 -0.0147
3 11 4 -4.7246 -0.0505
3 11 5 -4.8231 0.0123
3 11 6 2.8953 -0.0544
3 11 7 -2.8041 0.0477
3 11 8 4.6570 0.0905
3 11 9 -0.1289 -0.0363
3 11 10 -3.3609 -0.0508
3 11 11 -2.3007 0.0542
3 11 12 1.4104 -0.0121
3 13 0 -0.3452 -0.0096
3 13 1 -3.6031 0.0317
3 13 2 2.5237 0.0032
3 13 3 5.0621 0.1312
3 13 4 0.1358 -0.0887
3 13 5 -3.0757 -0.1051
3 13 6 0.4395 -0.0033
3 13 7 3.0785 -0.0693
3 13 8 1.8404 0.0327
3 13 9 -1.8790 -0.0208
3 13 10 -2.4547 -0.0302
3 13 11 2.0753 0.1457
3 13 12 1.1969 0.6441
3 15 0 -16.5200 -0.0178
3 15 1 3.9195 -0.0403
3 15 2 10.4994 0.0307
3 15 3 -4.5498 -0.0158
3 15 4 -2.2123 0.0961
3 15 5 2.7104 0.0423
3 15 6 -3.4658 0.0563
3 15 7 1.9438 0.0456
3 15 8 1.1292 -0.0721
3 15 9 0.3076 0.0093
3 15 10 -0.0988 -0.0199
3 15 11 1.5283 0.0417
3 17 0 8.2349 -0.0329
3 17 1 -2.8254 0.0015
3 17 2 7.8770 -0.0815
3 17 3 3.2197 -0.0290
3 17 4 -7.1904 -0.0048
3 17 5 1.5273 0.0570
3 17 6 0.6788 0.0462
3 17 7 -5.0291 -0.0247
3 17 8 -0.2969 -0.0289
3 17 9 -1.8251 -0.0729
3 17 10 2.6072 -0.0084
3 19 0 0.7966 -0.0565
3 19 1 -2.2400 -0.0371
3 19 2 -9.3178 0.0425
3 19 3 -4.7446 -0.0410
3 19 4 -8.5428 -0.0066
3 19 5 2.1080 0.0164
3 19 6 4.5360 -0.0041
3 19 7 2.0151 0.0211
3 19 8 -3.1186 -0.0985
3 19 9 -1.2508 0.0251
3 19 10 3.3718 0.1538
3 21 0 0.1714 0.0359
3 21 1 0.2037 0.0356
3 21 2 2.1983 0.0115
3 21 3 -1.4071 0.0064
3 21 4 4.9393 -0.0593
3 21 5 0.6570 0.0044
3 21 6 0.2276 -0.0234
3 21 7 0.0806 -0.0344
3 21 8 -1.4804 0.0624
3 21 9 1.9249 0.1065
3 21 10 0.9491 0.1642
3 23 0 1.7427 -0.0234
3 23 1 4.4393 0.0177
3 23 2 1.0543 0.0316
3 23 3 -1.8857 0.0767
3 23 4 -0.6203 0.0600
3 23 5 3.0694 0.0287
3 23 6 -0.3531 -0.0269
3 23 7 0.5700 -0.0263
3 23 8 5.1900 -0.1005
3 23 9 0.4773 -0.1554
3 25 0 -2.6779 0.0095
3 25 1 -1.3792 -0.0045
3 25 2 -1.7008 -0.0526
3 25 3 -0.3320 0.0194
3 25 4 1.8264 0.0093
3 25 5 1.1193 -0.0348
3 25 6 -1.4154 -0.0572
3 25 7 -5.0608 -0.0309
3 25 8 -4.6465 0.0488
3 25 9 0.8471 0.2925
3 27 0 -2.5078 -0.0414
3 27 1 -0.9226 0.0439
3 27 2 -0.2739 0.0068
3 27 3 -2.2067 -0.0212
3 27 4 0.8320 -0.0676
3 27 5 0.4477 0.0481
3 27 6 -0.2685 -0.0136
3 27 7 1.4482 -0.0850
3 27 8 0.9950 0.0528
3 29 0 -0.5620 -0.0572
3 29 1 -3.3274 -0.0776
3 29 2 -2.4881 -0.0269
3 29 3 0.3322 -0.0810
3 29 4 -0.2572 0.0299
3 29 5 0.0334 -0.0430
3 29 6 2.3929 0.0456
3 29 7 -3.0612 0.2316
3 31 0 0.2585 0.0763
3 31 1 2.5542 0.0133
3 31 2 1.5395 0.0562
3 31 3 2.6504 0.0019
3 31 4 -1.0486 -0.1345
3 31 5 1.3161 0.0022
3 31 6 -3.3541 0.1384
3 33 0 -3.4692 0.0508
3 33 1 3.9659 0.0494
3 33 2 -0.3357 0.0010
3 33 3 0.6068 0.0676
3 33 4 2.2009 0.0315
4 0 0 106.9625 0.6555
4 0 2 -2.3148 -1.0666
4 0 4 -35.3467 -0.4294
4 0 6 21.1689 0.9354
4 0 8 -6.4808 0.3922
4 0 10 2.6526 -0.7042
4 0 12 -9.1138 -0.2037
4 2 0 28.8890 -0.1081
4 2 1 -81.2865 -0.3121
4 2 2 -19.6478 0.9502
4 2 3 -4.2656 -0.2895
4 2 4 2.7976 0.2720
4 2 5 9.1099 -0.1515
4 2 6 10.4170 -0.8563
4 2 7 3.3844 0.1768
4 2 8 -3.7460 -0.2696
4 2 9 0.6819 0.0974
4 2 10 3.9411 0.5379
4 2 11 -3.6778 -0.0896
4 2 12 2.7006 0.3753
4 4 0 26.6983 0.1191
4 4 1 16.1921 -0.2688
4 4 2 -26.0313 -0.1232
4 4 3 -10.2157 0.4145
4 4 4 -5.1893 -0.0060
4 4 5 6.3756 0.4686
4 4 6 -4.2414 0.0374
4 4 7 -5.4486 -0.3177
4 4 8 -2.4259 0.0732
4 4 9 3.9381 -0.3408
4 4 10 0.5652 0.0081
4 4 11 -2.9631 0.2391
4 4 12 -4.4701 0.0372
4 6 0 -15.5629 -0.2715
4 6 1 -19.5747 0.0967
4 6 2 -9.5320 -0.3033
4 6 3 -7.0009 -0.0974
4 6 4 -3.2485 0.0847
4 6 5 22.9854 -0.1340
4 6 6 2.2823 0.2427
4 6 7 -4.3946 0.1265
4 6 8 0.1929 -0.0090
4 6 9 4.0658 0.1327
4 6 10 -1.1020 -0.2162
4 6 11 1.1386 -0.0512
4 6 12 1.0509 -0.0368
4 8 0 15.3329 0.1465
4 8 1 -49.3149 0.0244
4 8 2 7.8006 0.1560
4 8 3 19.0475 -0.1338
4 8 4 25.3568 -0.0430
4 8 5 0.2198 -0.1427
4 8 6 3.4813 -0.1466
4 8 7 -7.3073 0.0875
4 8 8 -3.0382 0.0193
4 8 9 1.4929 0.0901
4 8 10 0.5480 0.0766
4 8 11 0.2400 0.0170
4 10 0 -4.2322 -0.0415
4 10 1 13.5242 0.0502
4 10 2 -1.9355 -0.0400
4 10 3 7.0514 0.1215
4 10 4 12.2537 -0.0783
4 10 5 -4.3826 -0.0634
4 10 6 -6.3897 0.1541
4 10 7 -4.0733 0.0093
4 10 8 1.1317 0.0762
4 10 9 2.3456 0.0203
4 10 10 -2.3477 -0.1798
4 10 11 -0.7563 0.0230
4 12 0 -35.0680 0.0154
4 12 1 -7.8787 0.0074
4 12 2 8.0242 0.1196
4 12 3 -3.2712 -0.0463
4 12 4 -8.2489 -0.0024
4 12 5 0.0131 0.0506
4 12 6 1.4892 -0.1079
4 12 7 1.8513 0.0138
4 12 8 11.8909 -0.1398
4 12 9 2.5675 -0.0845
4 12 10 -2.0395 0.0349
4 12 11 -2.1919 -0.1218
4 12 12 -0.3651 0.1865
4 14 0 4.7924 -0.0331
4 14 1 -15.5921 -0.0196
4 14 2 2.0961 -0.1338
4 14 3 8.3226 0.0260
4 14 4 -13.3761 0.0415
4 14 5 1.9473 0.0766
4 14 6 0.9312 0.1394
4 14 7 -3.6477 0.0033
4 14 8 -3.1322 0.0372
4 14 9 -5.4652 -0.0138
4 14 10 0.0769 0.0513
4 14 11 1.6741 0.2720
4 16 0 0.4333 -0.0204
4 16 1 -0.8861 -0.0017
4 16 2 -4.5969 -0.0069
4 16 3 -3.7435 -0.0340
4 16 4 -0.7443 -0.0060
4 16 5 -4.7495 0.0101
4 16 6 1.3609 -0.0068
4 16 7 1.5813 -0.0155
4 16 8 -1.4304 -0.0130
4 16 9 -2.6430 -0.0568
4 16 10 -1.5144 0.0102
4 16 11 -0.5143 0.0558
4 18 0 -4.5432 0.0081
4 18 1 3.7676 0.0294
4 18 2 4.6703 0.0320
4 18 3 -3.3187 -0.0124
4 18 4 -1.4805 -0.0221
4 18 5 7.5761 -0.0098
4 18 6 -0.9860 -0.0398
4 18 7 -0.9926 -0.0471
4 18 8 0.7550 0.0219
4 18 9 1.4160 0.0021
4 18 10 1.6022 -0.1364
4 20 0 4.8398 0.0436
4 20 1 -6.3443 0.0213
4 20 2 2.2977 0.0245
4 20 3 -4.6285 0.0303
4 20 4 -0.9943 -0.0093
4 20 5 6.4175 0.0245
4 20 6 0.4368 0.0206
4 20 7 -2.6533 0.0122
4 20 8 -0.5383 -0.0457
4 20 9 1.3411 0.1105
4 20 10 4.2148 -0.0271
4 22 0 1.3501 -0.0186
4 22 1 3.0955 0.0031
4 22 2 -0.8946 -0.0274
4 22 3 2.6587 -0.0064
4 22 4 3.5502 0.0046
4 22 5 1.5730 0.0134
4 22 6 0.6773 -0.0523
4 22 7 1.3795 -0.0822
4 22 8 -2.3869 0.0685
4 22 9 0.5710 0.0463
4 24 0 -5.3908 0.0024
4 24 1 3.1470 0.0127
4 24 2 0.9384 -0.0812
4 24 3 -4.6501 -0.0796
4 24 4 2.4041 0.0006
4 24 5 -2.1833 -0.0145
4 24 6 -2.7879 0.0382
4 24 7 0.1216 0.0494
4 24 8 1.1878 -0.0988
4 24 9 -2.1026 -0.0680
4 26 0 -7.8508 -0.0127
4 26 1 -0.2170 -0.0057
4 26 2 -0.9249 0.0369
4 26 3 1.0059 0.0956
4 26 4 -1.7931 -0.0635
4 26 5 -0.7242 0.0573
4 26 6 -0.2717 -0.0720
4 26 7 -4.5765 0.0644
4 26 8 2.1880 -0.1528
4 28 0 2.4125 0.0670
4 28 1 0.4153 0.0032
4 28 2 -1.5541 -0.0107
4 28 3 0.2848 -0.0439
4 28 4 -0.4743 -0.0641
4 28 5 -0.3305 0.0239
4 28 6 -1.1263 0.1379
4 30 0 2.2179 -0.0585
4 30 1 0.0345 -0.0963
4 30 2 -1.8512 -0.0312
4 30 3 -0.0161 -0.0466
4 30 4 3.0237 0.0710
4 30 5 1.1624 0.0551
4 30 6 2.2486 0.0751
4 32 0 -2.6579 -0.0009
4 32 1 -2.6774 -0.0869
4 32 2 2.0839 -0.0109
4 32 3 1.8762 0.0687
4 32 4 -1.4569 0.2908
4 32 5 0.3458 0.0348
4 34 3 2.0465 0.0389
5 1 0 67.4551 0.2088
5 1 1 31.3607 0.3135
5 1 2 -8.3754 -0.0228
5 1 3 -19.4878 0.6956
5 1 4 -21.1432 -0.0105
5 1 5 7.4043 -0.2342
5 1 6 15.8132 -0.0351
5 1 7 -1.9114 -0.6141
5 1 8 -1.5151 -0.0058
5 1 9 0.5338 0.1479
5 1 10 0.3833 -0.0086
5 1 11 0.0626 0.3381
5 1 12 -3.2470 -0.1131
5 3 0 -5.2864 -0.8146
5 3 1 -35.2312 -0.1571
5 3 2 -29.8029 -0.4959
5 3 3 -5.5026 -0.4497
5 3 4 -6.5064 0.6623
5 3 5 14.3173 0.0321
5 3 6 5.6495 0.5109
5 3 7 -5.6726 0.3976
5 3 8 -6.5725 -0.4415
5 3 9 2.7003 0.0560
5 3 10 3.8931 -0.4916
5 3 11 2.1182 -0.2627
5 3 12 -0.2530 0.3857
5 5 0 50.8906 0.5732
5 5 1 -45.0320 -0.0564
5 5 2 9.3146 0.2319
5 5 3 -5.2435 -0.2714
5 5 4 0.0139 -0.4737
5 5 5 13.1191 0.0129
5 5 6 2.9616 -0.2489
5 5 7 -1.3256 0.1746
5 5 8 -3.2214 0.3356
5 5 9 3.5297 -0.0029
5 5 10 1.1544 0.2439
5 5 11 -2.2489 -0.0615
5 5 12 1.2408 -0.0318
5 7 0 -14.1430 -0.0881
5 7 1 4.0038 0.1279
5 7 2 -13.8270 -0.0628
5 7 3 -8.9006 0.2676
5 7 4 15.6618 -0.0270
5 7 5 14.9688 -0.1120
5 7 6 -3.7820 0.1156
5 7 7 -3.2818 -0.2052
5 7 8 0.5979 0.0341
5 7 9 1.1763 0.1046
5 7 10 -0.1978 -0.0613
5 7 11 -0.7806 0.1950
5 9 0 -37.2252 0.0928
5 9 1 -15.8804 0.0445
5 9 2 14.5272 0.0672
5 9 3 15.7865 -0.0104
5 9 4 9.4963 0.0137
5 9 5 0.6196 0.0740
5 9 6 1.5356 -0.1171
5 9 7 -9.4000 -0.0285
5 9 8 3.4219 -0.0727
5 9 9 2.6664 -0.0273
5 9 10 -1.6629 0.0087
5 9 11 -2.2095 0.1763
5 11 0 1.5010 -0.0998
5 11 1 -18.9517 -0.1130
5 11 2 -16.3035 -0.1366
5 11 3 5.7547 -0.0109
5 11 4 3.2128 0.0615
5 11 5 -4.4490 0.0403
5 11 6 1.2264 0.1035
5 11 7 -3.5810 0.0311
5 11 8 -0.0467 -0.0122
5 11 9 1.5614 -0.0226
5 11 10 -0.1216 -0.1241
5 11 11 1.1477 -0.1901
5 13 0 -1.3970 0.0228
5 13 1 10.9674 -0.0159
5 13 2 1.6876 0.0063
5 13 3 3.6488 -0.0764
5 13 4 -0.3065 0.0542
5 13 5 -0.6944 0.0148
5 13 6 -7.1264 0.0042
5 13 7 0.9102 0.0870
5 13 8 3.9337 0.0263
5 13 9 -1.3156 -0.0111
5 13 10 -1.2131 0.0017
5 13 11 -0.1873 -0.1072
5 15 0 -11.4179 0.0566
5 15 1 -6.1472 0.0507
5 15 2 17.9479 0.0084
5 15 3 -4.9313 -0.0162
5 15 4 -4.3234 -0.0924
5 15 5 6.3866 0.0010
5 15 6 0.2686 -0.0335
5 15 7 -0.1114 -0.0005
5 15 8 2.9632 0.1344
5 15 9 -0.2533 0.0065
5 15 10 -1.5896 -0.0603
5 15 11 -3.5619 0.1389
5 17 0 4.7519 -0.0160
5 17 1 -5.5951 0.0045
5 17 2 0.9369 -0.0030
5 17 3 1.7296 0.0170
5 17 4 -8.6154 0.0098
5 17 5 -2.9439 -0.0560
5 17 6 -0.0971 0.0755
5 17 7 -3.4151 0.0255
5 17 8 -0.6652 -0.0105
5 17 9 1.7902 0.0259
5 17 10 0.7790 -0.1225
5 19 0 4.6246 -0.0198
5 19 1 5.9806 -0.0048
5 19 2 -10.1240 -0.0198
5 19 3 -5.1170 0.0248
5 19 4 -1.5250 0.0366
5 19 5 -1.0346 0.0804
5 19 6 2.0879 -0.0117
5 19 7 3.9199 -0.0400
5 19 8 -0.8502 -0.1622
5 19 9 -4.0908 -0.0022
5 19 10 -0.0797 -0.0530
5 21 0 2.0733 -0.0563
5 21 1 1.6498 -0.0556
5 21 2 4.0381 -0.0463
5 21 3 -5.0551 0.0160
5 21 4 0.7863 0.0137
5 21 5 3.1251 0.0476
5 21 6 -1.6516 0.0408
5 21 7 0.1142 0.0082
5 21 8 0.6883 -0.0085
5 21 9 -0.5375 -0.2795
5 23 0 -3.2628 0.0224
5 23 1 -1.9310 0.0215
5 23 2 3.3143 0.0371
5 23 3 -1.4779 0.0267
5 23 4 -0.7379 0.0153
5 23 5 4.0974 0.0022
5 23 6 3.3982 -0.0480
5 23 7 0.7437 -0.0538
5 23 8 1.7798 -0.1055
5 23 9 -0.1968 -0.0645
5 25 0 -1.6992 -0.0027
5 25 1 1.0306 0.0199
5 25 2 -6.6955 0.0147
5 25 3 1.2238 0.0473
5 25 4 4.1271 -0.0387
5 25 5 0.7813 -0.0389
5 25 6 -0.1372 -0.0006
5 25 7 -2.0928 -0.0396
5 25 8 -5.8034 0.0054
5 27 0 2.0046 0.0324
5 27 1 1.5316 0.0120
5 27 2 -1.4480 0.0499
5 27 3 -3.2497 -0.0252
5 27 4 1.9122 0.0123
5 27 5 0.5814 0.0457
5 27 6 -2.4229 -0.1186
5 27 7 -1.8893 -0.1391
5 29 0 -3.3871 -0.0336
5 29 1 -3.3581 -0.0233
5 29 2 -0.6667 -0.0725
5 29 3 -0.0493 -0.0350
5 29 4 -0.2732 -0.0831
5 29 5 -1.3259 -0.0864
5 29 6 0.4957 -0.1220
5 31 0 -0.8679 -0.0698
5 31 1 -1.9131 -0.0672
5 31 2 0.9846 -0.0320
5 31 3 6.3319 -0.0426
5 31 4 -0.6586 -0.2399
5 33 0 1.2142 0.1635
5 33 1 3.1772 0.1252
5 33 2 -0.5457 0.1737
5 33 3 -1.3982 0.0141
5 33 4 3.1675 0.2978
6 0 0 38.0481 -0.9838
6 0 2 -21.1524 0.4798
6 0 4 -9.1179 1.0667
6 0 6 13.8292 -0.1790
6 0 8 -1.3483 -0.8316
6 0 10 -1.1033 0.0449
6 2 0 23.4178 0.9258
6 2 1 -30.6146 0.0452
6 2 2 8.4988 -0.3319
6 2 3 -22.7950 0.0256
6 2 4 -10.9240 -0.9006
6 2 5 20.5586 0.2235
6 2 6 11.0296 0.2353
6 2 7 2.0876 -0.0882
6 2 8 -3.0559 0.7425
6 2 9 -1.7303 -0.1588
6 2 10 1.5773 -0.1151
6 2 11 -1.8100 0.0641
6 2 12 0.5433 -0.4593
6 4 0 -1.0387 -0.0718
6 4 1 22.7827 0.4414
6 4 2 -1.8793 0.0107
6 4 3 -9.3265 0.0136
6 4 4 -21.8494 -0.0348
6 4 5 -0.6288 -0.5526
6 4 6 -2.1813 -0.0860
6 4 7 -3.0599 -0.1051
6 4 8 -0.7488 -0.0077
6 4 9 1.3943 0.4339
6 4 10 2.1905 -0.0489
6 4 11 0.1135 0.0886
6 4 12 -3.0843 -0.0963
6 6 0 8.7960 -0.0449
6 6 1 -25.4103 -0.1659
6 6 2 -15.8018 0.2256
6 6 3 2.2254 0.0096
6 6 4 11.7838 0.2080
6 6 5 14.1319 0.2185
6 6 6 2.2051 -0.1782
6 6 7 0.1873 -0.0170
6 6 8 -0.3785 -0.1562
6 6 9 1.7921 -0.1334
6 6 10 -0.5329 0.2260
6 6 11 1.5480 0.1187
6 8 0 14.8526 -0.0189
6 8 1 -17.2799 -0.0711
6 8 2 -9.2622 -0.2187
6 8 3 -2.8554 -0.0366
6 8 4 22.7387 -0.0531
6 8 5 5.8618 0.0700
6 8 6 2.2278 0.1435
6 8 7 -6.8532 0.0071
6 8 8 -4.3992 0.0541
6 8 9 2.6749 -0.0018
6 8 10 2.3597 -0.0900
6 8 11 0.6335 0.0235
6 10 0 -4.0460 0.0493
6 10 1 18.5552 -0.0067
6 10 2 4.0441 0.0927
6 10 3 2.8817 -0.0612
6 10 4 0.4171 0.1171
6 10 5 2.6011 -0.0106
6 10 6 -3.1086 -0.0302
6 10 7 -6.0885 0.1182
6 10 8 2.6672 -0.0888
6 10 9 1.9769 0.1213
6 10 10 -0.3610 -0.0210
6 10 11 -2.5860 -0.1199
6 12 0 -10.6152 0.1201
6 12 1 -22.9803 0.0462
6 12 2 0.9304 -0.0827
6 12 3 4.6646 0.0092
6 12 4 -7.3129 -0.2038
6 12 5 -0.0169 -0.0970
6 12 6 6.5828 -0.0009
6 12 7 2.8587 -0.0307
6 12 8 3.6239 0.1780
6 12 9 -0.1259 0.0867
6 12 10 -0.9567 0.0138
6 12 11 -4.8078 -0.1370
6 14 0 1.1580 -0.0414
6 14 1 -8.6467 0.0504
6 14 2 -5.0442 0.1185
6 14 3 1.7700 0.0620
6 14 4 -1.4881 0.0307
6 14 5 -0.2171 -0.0844
6 14 6 -1.1281 -0.0052
6 14 7 -2.8500 0.0089
6 14 8 0.1935 -0.0523
6 14 9 1.2985 0.0295
6 14 10 -2.3664 -0.1408
6 14 11 2.8844 0.0112
6 16 0 -2.5163 -0.0081
6 16 1 -1.0764 -0.0264
6 16 2 0.4474 -0.0498
6 16 3 -4.1194 -0.0381
6 16 4 1.4680 0.0130
6 16 5 -0.3825 0.1074
6 16 6 -5.7261 0.0406
6 16 7 -2.7075 0.0116
6 16 8 1.7352 0.0626
6 16 9 -2.4715 -0.0558
6 16 10 -2.2541 -0.0052
6 18 0 -3.0727 -0.0748
6 18 1 0.2285 0.0057
6 18 2 3.5980 -0.0450
6 18 3 -2.1627 -0.0227
6 18 4 -6.1058 0.0373
6 18 5 6.0113 -0.0228
6 18 6 1.4516 0.0521
6 18 7 -1.6701 -0.0183
6 18 8 -0.2894 0.0084
6 18 9 -0.0110 -0.0894
6 18 10 2.0796 -0.2088
6 20 0 3.3907 0.0508
6 20 1 -6.6553 -0.0250
6 20 2 -0.5269 -0.0149
6 20 3 -1.8112 -0.0501
6 20 4 0.7771 -0.0506
6 20 5 2.3934 0.0730
6 20 6 2.7915 -0.0111
6 20 7 0.5551 0.0574
6 20 8 -0.4852 0.0186
6 20 9 -0.5544 -0.0136
6 22 0 0.8748 -0.0091
6 22 1 4.1614 0.0360
6 22 2 1.1585 -0.0107
6 22 3 2.6330 0.0038
6 22 4 4.6720 -0.0366
6 22 5 -0.0692 -0.0235
6 22 6 -4.3394 0.0322
6 22 7 1.8030 0.0008
6 22 8 -0.3011 0.0707
6 22 9 0.8752 0.1701
6 24 0 -4.1835 -0.0001
6 24 1 5.1173 -0.0301
6 24 2 0.7948 -0.0080
6 24 3 -6.3330 0.0497
6 24 4 -0.8980 0.0021
6 24 5 0.0799 0.0733
6 24 6 -0.8985 0.0076
6 24 7 -1.1198 -0.0560
6 24 8 3.0075 -0.2909
6 26 0 -6.5410 0.0142
6 26 1 -1.2502 0.0339
6 26 2 -0.5156 -0.0032
6 26 3 2.2902 -0.0155
6 26 4 0.7307 -0.0036
6 26 5 -0.7326 0.0511
6 26 6 -0.1763 -0.0897
6 26 7 -2.8936 0.0190
6 26 8 -1.5314 -0.2087
6 28 0 1.4245 -0.0147
6 28 1 -2.2483 -0.0386
6 28 2 0.8777 0.0273
6 28 3 0.7170 0.0203
6 28 4 -1.4571 0.0938
6 28 5 -0.7764 0.0369
6 28 6 -0.9699 0.1570
6 30 0 0.5826 -0.0003
6 30 1 2.0914 -0.0209
6 30 2 -3.0541 -0.0009
6 30 3 -0.4149 -0.0023
6 30 4 2.0825 0.0699
6 30 5 -0.9521 -0.0883
6 32 0 1.6142 -0.0357
6 32 1 -0.2112 -0.0438
6 32 2 0.4847 -0.2778
6 32 3 0.0311 -0.0611
6 32 4 -0.1672 -0.1176
6 34 0 -0.2211 0.1313
6 34 1 -0.7691 0.0323
6 34 2 -0.8475 0.0960
6 34 3 1.8676 0.2248
7 1 0 15.0600 0.1111
7 1 1 0.0590 0.0888
7 1 2 13.0663 0.1048
7 1 3 -7.2002 -0.6403
7 1 4 -26.9137 -0.0089
7 1 5 3.4488 -0.2720
7 1 6 14.6565 -0.0477
7 1 7 3.7053 0.5383
7 1 8 0.1133 0.0387
7 1 9 1.5569 0.2524
7 1 10 -0.4467 -0.0148
7 1 11 0.8847 -0.3008
7 3 0 13.6586 -0.0306
7 3 1 -14.7596 -0.2430
7 3 2 -26.4511 0.7193
7 3 3 2.1163 0.2965
7 3 4 10.2989 0.0110
7 3 5 8.3066 0.1984
7 3 6 0.6862 -0.6010
7 3 7 -3.5430 -0.3111
7 3 8 -3.8391 -0.0015
7 3 9 -1.5192 -0.1766
7 3 10 1.7989 0.4327
7 3 11 2.1442 0.1791
7 5 0 28.5963 -0.1958
7 5 1 -8.7517 0.0577
7 5 2 -5.6565 -0.5218
7 5 3 -25.6680 0.2450
7 5 4 -8.6848 0.0836
7 5 5 14.1939 0.0645
7 5 6 0.1373 0.3746
7 5 7 -1.8876 -0.1726
7 5 8 -3.0634 -0.0266
7 5 9 2.0091 0.0016
7 5 10 0.0291 -0.2826
7 5 11 -0.1600 0.1010
7 7 0 -13.3451 0.1403
7 7 1 -4.3474 0.0357
7 7 2 5.3524 0.1756
7 7 3 -1.6585 -0.2720
7 7 4 11.1528 0.0570
7 7 5 9.7945 -0.1207
7 7 6 2.1534 -0.1314
7 7 7 -2.8254 0.1911
7 7 8 -0.8292 -0.1125
7 7 9 2.1516 0.1035
7 7 10 4.2318 0.0547
7 7 11 -1.1681 -0.0113
7 9 0 -4.1262 0.1151
7 9 1 -9.2310 0.0354
7 9 2 3.0345 -0.0728
7 9 3 20.8405 0.0138
7 9 4 4.1041 -0.2038
7 9 5 -3.6786 -0.0893
7 9 6 3.4977 0.0840
7 9 7 -3.6157 -0.0343
7 9 8 1.0401 0.1669
7 9 9 2.0398 0.1002
7 9 10 -0.5973 0.0250
7 9 11 -0.8004 0.3070
7 11 0 -2.1682 -0.0857
7 11 1 -6.7025 0.0553
7 11 2 -10.5366 0.1037
7 11 3 -4.9769 0.0470
7 11 4 6.3362 0.0250
7 11 5 2.1626 -0.0140
7 11 6 0.4460 -0.0476
7 11 7 -5.4204 -0.0228
7 11 8 2.6408 -0.0847
7 11 9 1.9132 0.0402
7 11 10 -1.8050 0.0096
7 11 11 0.5873 -0.1992
7 13 0 -6.1343 0.0222
7 13 1 -0.9177 -0.0651
7 13 2 3.0557 0.0228
7 13 3 2.3394 -0.0129
7 13 4 -5.6441 0.0234
7 13 5 1.7824 0.1124
7 13 6 -6.9851 -0.0015
7 13 7 -0.7695 -0.0270
7 13 8 2.7558 0.0261
7 13 9 1.9774 -0.0130
7 13 10 -1.3160 0.0178
7 13 11 -3.1168 -0.1538
7 15 0 0.5412 -0.0435
7 15 1 -4.9906 0.0216
7 15 2 6.1787 -0.1055
7 15 3 -4.6068 0.0252
7 15 4 -3.1212 0.0951
7 15 5 3.2665 0.0068
7 15 6 2.2233 0.0521
7 15 7 1.0528 -0.0005
7 15 8 0.4735 0.0406
7 15 9 -4.1615 0.0471
7 15 10 0.7505 0.0071
7 17 0 -1.4827 0.0653
7 17 1 3.3809 -0.0050
7 17 2 -1.2573 0.0032
7 17 3 -4.1907 -0.0912
7 17 4 -4.1224 -0.0803
7 17 5 -3.9256 -0.0288
7 17 6 0.0773 -0.0831
7 17 7 -0.9745 0.0059
7 17 8 0.8672 0.1572
7 17 9 2.7256 0.0599
7 17 10 -2.3664 -0.0376
7 19 0 5.6934 0.0071
7 19 1 2.4719 0.0408
7 19 2 -1.8258 0.0110
7 19 3 -2.3985 0.0226
7 19 4 -1.3282 -0.0278
7 19 5 2.2425 -0.0698
7 19 6 -1.9093 0.0012
7 19 7 -0.5597 0.0418
7 19 8 1.5538 -0.0378
7 19 9 -1.3259 0.0879
7 21 0 3.1281 0.0150
7 21 1 -1.3338 -0.0009
7 21 2 -1.6702 0.0416
7 21 3 -3.4559 0.0789
7 21 4 0.5274 -0.0325
7 21 5 3.0026 0.0278
7 21 6 1.0670 0.0335
7 21 7 -0.1493 0.0915
7 21 8 -0.6357 -0.0612
7 23 0 -0.7284 -0.0768
7 23 1 -2.7286 -0.0548
7 23 2 0.2762 -0.0674
7 23 3 -1.5733 -0.0192
7 23 4 2.1456 0.0588
7 23 5 -0.2487 -0.0022
7 23 6 1.2616 0.0807
7 23 7 3.9233 -0.0853
7 23 8 0.8025 0.0225
7 25 0 -4.9511 -0.0121
7 25 1 1.4983 -0.0186
7 25 2 -4.6425 0.0141
7 25 3 1.2859 -0.0129
7 25 4 2.5801 0.0187
7 25 5 1.7220 0.0685
7 25 6 -1.1011 -0.0211
7 25 7 0.3683 0.1330
7 25 8 -1.9169 -0.2136
7 27 0 0.3818 0.0194
7 27 1 -0.7473 0.0034
7 27 2 0.9832 0.0092
7 27 3 2.0515 0.0358
7 27 4 1.7855 -0.0022
7 27 5 1.3504 0.0186
7 27 6 -2.1176 -0.0669
7 29 0 -1.1194 0.0874
7 29 1 -1.3044 0.0592
7 29 2 -1.6088 0.0720
7 29 3 -2.0123 -0.0581
7 29 4 0.9421 -0.1381
7 29 5 -4.2425 -0.0511
7 31 0 -0.7057 -0.0556
7 31 1 -1.2528 0.0501
7 31 2 1.4512 -0.0563
7 31 3 4.9003 0.0114
7 31 4 -1.6561 -0.1696
7 33 0 1.0581 0.0903
7 33 1 -0.4546 -0.0539
7 33 2 1.0385 -0.1382
7 33 3 1.0898 0.0046
8 0 0 14.1234 0.6434
8 0 2 -16.9127 0.4966
8 0 4 -7.6406 -0.7578
8 0 6 9.3205 -0.5533
8 0 8 2.4884 0.5622
8 0 10 -1.1026 0.4593
8 2 0 -1.5393 -0.7471
8 2 1 -5.0247 0.1814
8 2 2 3.7477 -0.3186
8 2 3 -9.6122 0.1995
8 2 4 -2.9333 0.7385
8 2 5 7.1500 -0.2111
8 2 6 7.9584 0.3658
8 2 7 2.6185 -0.1121
8 2 8 -1.7558 -0.5374
8 2 9 -2.6799 0.1690
8 2 10 -2.2134 -0.2517
8 2 11 0.0582 0.1666
8 4 0 3.8652 0.0730
8 4 1 3.9604 -0.3045
8 4 2 13.6019 0.0261
8 4 3 -1.2653 -0.4213
8 4 4 -13.7938 -0.0131
8 4 5 0.5079 0.2694
8 4 6 -5.2713 -0.0113
8 4 7 0.6907 0.3234
8 4 8 -0.6075 -0.0344
8 4 9 2.4834 -0.1958
8 4 10 3.3991 0.0518
8 4 11 0.8894 -0.2570
8 6 0 18.4860 0.2796
8 6 1 -3.9544 0.1351
8 6 2 -6.2927 -0.0272
8 6 3 -6.7715 0.1108
8 6 4 -2.6013 -0.3479
8 6 5 4.1928 -0.1088
8 6 6 2.2854 0.0477
8 6 7 0.3908 -0.1551
8 6 8 -0.2484 0.2570
8 6 9 -2.6006 0.1092
8 6 10 0.8066 0.0243
8 6 11 2.2027 0.0617
8 8 0 -5.5025 -0.1026
8 8 1 -2.3855 0.0887
8 8 2 -7.6441 0.1036
8 8 3 -2.3967 0.1277
8 8 4 9.6657 0.1387
8 8 5 6.3110 -0.0325
8 8 6 6.1207 -0.0527
8 8 7 -4.9972 -0.1200
8 8 8 -3.9201 -0.1119
8 8 9 1.9531 0.0847
8 8 10 0.5237 0.0172
8 8 11 0.9486 0.2664
8 10 0 7.1688 0.0685
8 10 1 -1.4104 -0.0771
8 10 2 -1.8953 0.0287
8 10 3 0.9382 -0.0035
8 10 4 3.9912 -0.0896
8 10 5 4.6160 0.0725
8 10 6 4.7148 -0.0682
8 10 7 -2.1763 -0.0915
8 10 8 1.4606 -0.0265
8 10 9 2.0157 0.0240
8 10 10 2.1076 0.1085
8 10 11 -3.1604 0.2057
8 12 0 2.7126 -0.1252
8 12 1 -8.3968 -0.0266
8 12 2 -7.7904 -0.0543
8 12 3 -0.6110 -0.0368
8 12 4 -3.3346 0.1778
8 12 5 4.0853 -0.0127
8 12 6 0.5720 0.0932
8 12 7 0.1893 0.0653
8 12 8 -0.8445 -0.0730
8 12 9 0.6778 0.1097
8 12 10 1.0212 0.0089
8 12 11 -1.8172 -0.4550
8 14 0 -5.3526 0.1816
8 14 1 0.3697 0.0200
8 14 2 6.4174 0.0411
8 14 3 -3.0344 -0.0644
8 14 4 -1.1716 -0.1222
8 14 5 1.9105 0.0114
8 14 6 -1.9275 -0.1380
8 14 7 -5.5088 0.0385
8 14 8 3.7407 0.0842
8 14 9 3.4822 -0.0267
8 14 10 -2.5074 0.0591
8 16 0 -1.9715 -0.0414
8 16 1 -8.5360 0.0447
8 16 2 0.5786 -0.0025
8 16 3 0.9163 0.0363
8 16 4 0.9106 -0.0157
8 16 5 -2.5519 -0.0929
8 16 6 -6.4816 0.0196
8 16 7 -1.2643 0.0030
8 16 8 0.2051 0.1183
8 16 9 -0.8385 0.0710
8 16 10 -2.2043 -0.1058
8 18 0 1.1720 0.0043
8 18 1 0.0554 0.0012
8 18 2 -6.8848 0.0320
8 18 3 -2.2781 0.0079
8 18 4 -1.3851 0.0085
8 18 5 -0.7595 -0.0518
8 18 6 0.7768 0.0076
8 18 7 0.6523 -0.0142
8 18 8 0.4854 0.0522
8 18 9 -1.1262 0.1741
8 20 0 3.2191 -0.0746
8 20 1 -0.7284 -0.0366
8 20 2 -2.5778 -0.0411
8 20 3 -1.3028 0.0150
8 20 4 0.6352 0.0459
8 20 5 1.3965 0.0903
8 20 6 3.8021 0.0199
8 20 7 1.1963 -0.0143
8 20 8 1.4023 -0.0633
8 22 0 0.4307 0.0036
8 22 1 -0.9390 -0.0198
8 22 2 6.4301 -0.0436
8 22 3 2.0683 -0.0460
8 22 4 0.1355 -0.0328
8 22 5 0.1922 -0.0080
8 22 6 -5.0950 0.0399
8 22 7 0.1622 0.0745
8 22 8 -0.3699 0.1412
8 24 0 -5.4112 0.0092
8 24 1 3.7064 0.0158
8 24 2 0.1171 0.0258
8 24 3 -2.1357 -0.0361
8 24 4 -0.0543 -0.0890
8 24 5 0.6403 0.0372
8 24 6 1.0704 -0.0478
8 24 7 -0.9986 0.0442
8 24 8 1.2899 -0.0990
8 26 0 -0.0972 0.0188
8 26 1 -0.1649 0.0154
8 26 2 -1.9598 0.0398
8 26 3 1.5521 0.0154
8 26 4 -0.2172 0.0513
8 26 5 -0.1598 -0.0117
8 26 6 1.6481 0.0710
8 26 7 1.0395 0.0983
8 28 0 -0.3764 0.0021
8 28 1 -2.7890 -0.0234
8 28 2 1.4203 -0.0212
8 28 3 -0.7243 0.1030
8 28 4 -1.0208 0.1425
8 28 5 -1.1733 0.0639
8 30 0 -2.6078 -0.0260
8 30 1 -0.8094 0.0463
8 30 2 -1.6998 -0.0534
8 30 3 2.2427 0.0569
8 30 4 0.4712 0.1293
8 32 0 3.7133 -0.1570
8 32 1 -1.3306 -0.0588
8 32 2 0.2440 -0.2592
8 32 3 -0.5648 -0.0906
8 34 0 -1.2959 0.4735
9 1 0 1.7461 -0.1074
9 1 1 -8.9813 -0.4881
9 1 2 0.8190 -0.0381
9 1 3 -9.1042 0.2535
9 1 4 -6.1800 0.0375
9 1 5 14.4043 0.5992
9 1 6 7.3514 0.1022
9 1 7 2.2982 -0.1814
9 1 8 1.7608 0.0343
9 1 9 0.6769 -0.4908
9 1 10 -1.8865 -0.0129
9 3 0 10.8676 0.6249
9 3 1 -3.2756 0.3823
9 3 2 -4.3918 -0.4190
9 3 3 -0.0191 -0.0154
9 3 4 -5.5366 -0.5391
9 3 5 3.8776 -0.3333
9 3 6 1.2969 0.2935
9 3 7 -3.8167 -0.0564
9 3 8 -2.8843 0.4169
9 3 9 -3.4194 0.2627
9 3 10 1.0383 -0.1875
9 5 0 0.8716 -0.2275
9 5 1 -5.2284 0.0007
9 5 2 -4.5673 0.3857
9 5 3 -5.1074 -0.0614
9 5 4 -7.0060 0.2333
9 5 5 -1.9051 -0.1218
9 5 6 -0.0660 -0.3054
9 5 7 2.8948 0.0234
9 5 8 -3.0606 -0.2353
9 5 9 1.1125 0.1546
9 5 10 0.3678 0.1760
9 7 0 1.4891 -0.0062
9 7 1 -11.3692 -0.1531
9 7 2 5.0686 -0.0372
9 7 3 1.4194 0.1164
9 7 4 15.3719 -0.0832
9 7 5 7.2106 0.1979
9 7 6 3.6211 0.0152
9 7 7 -1.4910 -0.1464
9 7 8 -1.6132 0.0681
9 7 9 1.8645 -0.1541
9 7 10 4.9641 0.0460
9 7 11 -2.4487 0.3365
9 9 0 2.7534 -0.1576
9 9 1 9.7120 -0.0056
9 9 2 5.2505 -0.0004
9 9 3 4.7367 -0.0764
9 9 4 -5.1545 0.1998
9 9 5 0.5329 0.0212
9 9 6 2.6925 0.0412
9 9 7 -5.1324 0.0896
9 9 8 2.4451 -0.1589
9 9 9 4.7880 0.0186
9 9 10 -0.9953 -0.0551
9 9 11 -0.0214 -0.0303
9 11 0 0.7488 0.1575
9 11 1 0.1853 -0.0184
9 11 2 1.9673 0.0213
9 11 3 -1.3830 -0.0326
9 11 4 -7.1327 -0.0815
9 11 5 0.3861 -0.0031
9 11 6 0.8245 -0.0429
9 11 7 -4.1095 0.0158
9 11 8 1.6275 0.0929
9 11 9 0.1359 0.0130
9 11 10 -0.5167 0.1626
9 11 11 -0.2492 -0.0027
9 13 0 -4.0406 -0.0358
9 13 1 -12.6657 0.0953
9 13 2 -4.2324 -0.0354
9 13 3 -1.7986 0.0554
9 13 4 -0.1217 -0.0378
9 13 5 1.8041 -0.1423
9 13 6 -0.3435 0.0360
9 13 7 4.6814 -0.0400
9 13 8 0.6088 0.0406
9 13 9 0.2238 0.0546
9 13 10 -2.5097 -0.0511
9 15 0 0.5169 0.0057
9 15 1 1.9435 -0.0217
9 15 2 -3.4102 0.1157
9 15 3 -7.8506 0.0318
9 15 4 2.4037 0.0478
9 15 5 2.4203 0.0215
9 15 6 -1.5589 -0.0909
9 15 7 -0.6755 -0.0085
9 15 8 2.0930 -0.1204
9 15 9 -1.2218 -0.0174
9 15 10 -0.5829 0.0792
9 17 0 -2.1325 -0.0363
9 17 1 3.8062 0.0106
9 17 2 -0.3116 -0.0584
9 17 3 -4.0732 0.0171
9 17 4 -3.8629 0.0014
9 17 5 -0.3693 0.0254
9 17 6 1.6408 0.0511
9 17 7 -4.9059 -0.0752
9 17 8 -0.1911 0.0227
9 17 9 -0.5941 0.1051
9 19 0 6.4629 0.0288
9 19 1 0.1631 -0.0074
9 19 2 1.0095 0.0314
9 19 3 1.2765 -0.0428
9 19 4 -0.9365 0.0050
9 19 5 0.2544 -0.0349
9 19 6 -2.6685 -0.0795
9 19 7 -0.3388 -0.0107
9 19 8 -1.7958 -0.0194
9 21 0 1.3189 0.0446
9 21 1 -0.8230 0.0158
9 21 2 -2.3330 -0.0240
9 21 3 -1.0486 -0.0158
9 21 4 2.9021 -0.0922
9 21 5 -0.0517 -0.0187
9 21 6 -0.1114 0.0202
9 21 7 1.6397 0.1005
9 21 8 1.2252 0.2084
9 23 0 0.7588 -0.0595
9 23 1 -1.3596 -0.0091
9 23 2 -0.8630 0.0139
9 23 3 -1.0125 0.0461
9 23 4 -2.8686 0.0094
9 23 5 -0.4083 -0.1002
9 23 6 1.2614 0.0428
9 23 7 2.3840 0.0305
9 23 8 3.5643 0.0854
9 25 0 -2.3649 0.0068
9 25 1 -1.4269 -0.0133
9 25 2 -4.4221 -0.0241
9 25 3 -0.1324 -0.0077
9 25 4 3.1688 0.0287
9 25 5 0.9843 0.0545
9 25 6 -0.8331 0.0261
9 25 7 0.6232 0.1148
9 27 0 -0.6135 -0.0128
9 27 1 -1.6147 -0.0276
9 27 2 1.0448 -0.0531
9 27 3 4.1206 -0.0411
9 27 4 4.4011 0.0580
9 27 5 3.1064 0.0564
9 29 0 -2.0659 0.0819
9 29 1 -0.6125 0.0080
9 29 2 2.4107 0.1338
9 29 3 0.0872 0.1029
9 29 4 -3.1126 -0.0426
9 31 0 1.1349 0.0935
9 31 1 -0.9350 0.0954
9 31 3 1.9899 -0.0059
9 33 0 0.9318 -0.1100
9 33 1 -2.3391 -0.0650
10 0 0 8.1404 0.1682
10 0 2 -6.6304 -0.8357
10 0 4 -9.6300 0.0046
10 0 6 7.1935 0.6788
10 0 8 3.1103 0.0383
10 0 10 -4.0596 -0.5084
10 2 0 -10.0957 0.1306
10 2 1 -0.8859 -0.1766
10 2 2 -1.6345 0.6930
10 2 3 -2.0900 -0.2509
10 2 4 4.3107 -0.1175
10 2 5 -5.6015 0.0834
10 2 6 3.2736 -0.5904
10 2 7 4.2738 0.2057
10 2 8 -0.4146 0.0593
10 2 9 -2.8889 -0.0854
10 2 10 -1.8143 0.4304
10 4 0 6.8696 -0.1709
10 4 1 -4.4329 -0.0084
10 4 2 6.5066 -0.0189
10 4 3 4.0957 0.5047
10 4 4 -2.9329 0.0515
10 4 5 3.8369 0.0567
10 4 6 -4.8311 0.0322
10 4 7 1.1830 -0.4070
10 4 8 -0.8006 0.0189
10 4 9 0.3713 -0.0613
10 4 10 3.7150 -0.0320
10 6 0 11.9551 -0.1825
10 6 1 -2.7338 -0.0318
10 6 2 -0.8548 -0.1543
10 6 3 -5.2597 -0.1496
10 6 4 -9.3489 0.2467
10 6 5 -2.5381 -0.0015
10 6 6 3.3361 0.0917
10 6 7 -1.0425 0.1168
10 6 8 -0.0565 -0.2237
10 6 9 -1.2165 -0.0076
10 6 10 -1.7433 -0.1462
10 8 0 -6.1708 0.2045
10 8 1 1.3612 -0.0580
10 8 2 4.8576 0.0915
10 8 3 6.1465 -0.1147
10 8 4 -3.1874 -0.1482
10 8 5 0.9035 -0.0070
10 8 6 4.2090 -0.0274
10 8 7 -1.0563 0.0572
10 8 8 -4.7129 0.1152
10 8 9 1.1102 -0.0181
10 8 10 1.8704 0.1234
10 8 11 2.4058 0.2746
10 10 0 1.2475 -0.1049
10 10 1 -5.1123 0.1093
10 10 2 1.5725 -0.1204
10 10 3 -3.3779 0.0557
10 10 4 5.5768 -0.0472
10 10 5 8.5847 -0.1194
10 10 6 10.4956 0.1142
10 10 7 -0.7638 -0.0630
10 10 8 1.6740 0.0133
10 10 9 1.1197 0.0765
10 10 10 2.7283 0.0147
10 10 11 -1.1726 0.4587
10 12 0 3.0854 0.0527
10 12 1 -0.8459 -0.0332
10 12 2 -4.5932 0.2003
10 12 3 -5.7688 0.0484
10 12 4 -4.7281 0.0158
10 12 5 3.9674 0.0716
10 12 6 -1.4372 -0.1300
10 12 7 -4.3501 -0.0177
10 12 8 -0.2807 -0.1345
10 12 9 4.5184 -0.0938
10 12 10 -0.9664 0.1036
10 14 0 -2.4308 -0.0479
10 14 1 1.7016 -0.0522
10 14 2 4.0774 -0.0765
10 14 3 -2.9226 0.0582
10 14 4 -2.0950 0.0685
10 14 5 0.7889 0.0123
10 14 6 -5.0431 0.0945
10 14 7 -3.3563 -0.0364
10 14 8 2.7041 -0.0806
10 14 9 -0.9568 -0.0101
10 14 10 0.6649 0.0693
10 16 0 -0.4497 0.0189
10 16 1 0.1359 0.0037
10 16 2 -1.1917 0.0189
10 16 3 -2.4024 -0.0147
10 16 4 2.6795 0.0419
10 16 5 -4.0360 0.0226
10 16 6 -4.3377 -0.0724
10 16 7 1.9318 -0.0122
10 16 8 -1.0087 0.0106
10 16 9 -0.3297 -0.0331
10 18 0 0.7279 0.0467
10 18 1 0.7107 -0.0177
10 18 2 -5.1387 -0.0051
10 18 3 -2.8954 -0.0357
10 18 4 -0.8098 -0.0846
10 18 5 -1.5306 -0.0238
10 18 6 1.4283 -0.0342
10 18 7 1.2223 -0.0760
10 18 8 0.6569 0.1278
10 20 0 3.2180 -0.0402
10 20 1 -1.9254 0.0564
10 20 2 -4.1334 0.0770
10 20 3 1.6421 0.0261
10 20 4 -0.7796 0.0335
10 20 5 1.2575 -0.0586
10 20 6 3.8823 -0.0362
10 20 7 -3.1900 0.0364
10 20 8 2.6119 -0.1395
10 22 0 4.4125 -0.0175
10 22 1 -3.1249 -0.0114
10 22 2 -0.0036 -0.0040
10 22 3 0.0293 0.0485
10 22 4 1.7613 -0.0386
10 22 5 -0.9344 -0.0032
10 22 6 -2.7637 0.0007
10 22 7 1.2083 -0.0667
10 24 0 -2.2942 -0.0417
10 24 1 3.5356 -0.0445
10 24 2 0.4984 -0.0070
10 24 3 -0.5925 -0.1155
10 24 4 1.5001 0.0534
10 24 5 1.5166 -0.0251
10 24 6 -2.0276 -0.0416
10 24 7 0.3294 0.0595
10 26 0 -1.2811 0.0340
10 26 1 -0.3745 0.0099
10 26 2 2.4135 -0.0231
10 26 3 4.2859 0.0357
10 26 4 -4.5623 -0.0081
10 26 5 1.0145 -0.0146
10 26 6 4.7723 0.0281
10 28 0 -0.6741 0.0192
10 28 1 -6.0899 -0.0167
10 28 2 -0.5285 0.0154
10 28 3 1.1163 0.0246
10 28 4 -0.1371 -0.0636
10 30 0 -1.5108 -0.0100
10 30 1 -1.2249 0.1257
10 30 2 -3.3203 0.0420
10 30 3 -1.3211 0.1231
10 32 0 1.0490 -0.1474
10 32 1 -0.9877 0.0518
11 1 0 -0.1864 -0.1111
11 1 1 -6.6983 0.5029
11 1 2 -4.8087 0.0188
11 1 3 5.0206 0.2831
11 1 4 0.5792 0.0176
11 1 5 4.0182 -0.5351
11 1 6 3.9843 -0.0580
11 1 7 1.5584 -0.2386
11 1 8 2.3450 -0.0163
11 1 9 -1.4970 0.3605
11 1 10 0.0742 0.0594
11 3 0 5.7950 -0.4988
11 3 1 -10.0151 -0.2932
11 3 2 -6.4341 -0.0733
11 3 3 5.7031 -0.1597
11 3 4 -0.0230 0.5212
11 3 5 -3.5090 0.2352
11 3 6 -0.8090 0.1269
11 3 7 1.1388 0.1990
11 3 8 -2.2337 -0.4422
11 3 9 0.3876 -0.1861
11 3 10 -2.2836 -0.0675
11 5 0 -0.2802 0.3764
11 5 1 -3.5568 -0.1209
11 5 2 6.1669 -0.0411
11 5 3 -0.1087 -0.1248
11 5 4 -7.9140 -0.3424
11 5 5 -1.8613 0.1343
11 5 6 -1.3439 0.0621
11 5 7 1.2541 0.0466
11 5 8 -1.9468 0.2533
11 5 9 0.4655 -0.1081
11 5 10 0.6687 -0.0175
11 7 0 -3.6285 -0.0907
11 7 1 -7.5005 0.1598
11 7 2 10.7846 -0.0900
11 7 3 2.5243 0.0774
11 7 4 0.5436 0.0527
11 7 5 4.9444 -0.1602
11 7 6 8.4579 0.0778
11 7 7 -2.5626 -0.0307
11 7 8 -1.7101 0.0033
11 7 9 -0.2900 0.1292
11 7 10 3.6914 -0.0863
11 9 0 -1.0571 0.0223
11 9 1 5.2775 -0.0587
11 9 2 6.3970 0.1945
11 9 3 1.5968 0.0840
11 9 4 -3.1166 -0.0160
11 9 5 -0.8686 0.0788
11 9 6 4.8492 -0.1948
11 9 7 -2.6546 -0.1070
11 9 8 0.8889 -0.0221
11 9 9 3.7913 -0.0924
11 9 10 -2.6942 0.0997
11 11 0 5.1363 -0.1416
11 11 1 4.7182 -0.0372
11 11 2 -0.5842 -0.0708
11 11 3 -3.3238 0.0155
11 11 4 -8.0158 0.0994
11 11 5 -0.3855 -0.0133
11 11 6 -4.5479 0.1181
11 11 7 -0.5759 -0.0423
11 11 8 1.2754 -0.0650
11 11 9 0.1512 -0.0558
11 11 10 1.4868 -0.0569
11 13 0 -5.1352 0.0166
11 13 1 -6.0743 -0.0288
11 13 2 0.0721 0.0303
11 13 3 -8.9235 -0.0659
11 13 4 1.3940 0.0665
11 13 5 6.1619 0.0391
11 13 6 2.4670 -0.0383
11 13 7 0.5540 0.0789
11 13 8 0.3318 -0.0917
11 13 9 0.7919 -0.1115
11 13 10 -1.7629 0.1871
11 15 0 -1.0535 0.0933
11 15 1 4.2212 0.0047
11 15 2 -1.9040 -0.0485
11 15 3 -2.7981 0.0045
11 15 4 0.2989 -0.1262
11 15 5 -0.5146 -0.0268
11 15 6 1.2242 -0.0022
11 15 7 -1.5686 0.0035
11 15 8 0.6391 0.0290
11 15 9 2.7563 -0.1337
11 17 0 2.7540 -0.0421
11 17 1 -1.4019 0.0493
11 17 2 -4.8220 0.0796
11 17 3 -1.5124 0.0339
11 17 4 0.1717 0.0593
11 17 5 -1.4728 -0.0486
11 17 6 -1.9173 -0.0013
11 17 7 -3.9841 0.0162
11 17 8 0.7787 -0.0654
11 19 0 3.6226 0.0181
11 19 1 2.2309 -0.0028
11 19 2 -2.6595 0.0378
11 19 3 0.1036 0.0386
11 19 4 1.1284 0.0151
11 19 5 -0.9335 0.0266
11 19 6 -2.4445 -0.0409
11 19 7 0.0487 -0.1246
11 19 8 -2.9170 -0.1707
11 21 0 0.7834 -0.0373
11 21 1 -0.2299 -0.0050
11 21 2 3.4074 -0.0231
11 21 3 0.4308 0.0112
11 21 4 -0.2744 0.0778
11 21 5 -1.0018 0.0101
11 21 6 0.9151 0.0278
11 21 7 3.4264 -0.0783
11 23 0 0.7663 0.0579
11 23 1 0.1230 0.0183
11 23 2 0.0155 -0.0294
11 23 3 0.3060 -0.0521
11 23 4 -5.0673 -0.0496
11 23 5 -0.4170 -0.0790
11 23 6 1.7537 -0.0892
11 23 7 -1.1470 0.0410
11 25 0 0.3569 0.0040
11 25 1 -1.5828 -0.0039
11 25 2 -3.0723 0.0040
11 25 3 -0.9765 -0.0046
11 25 4 1.5266 -0.0552
11 25 5 1.1788 -0.1073
11 25 6 0.9641 0.0227
11 25 7 -0.3729 0.2121
11 27 0 2.1197 0.0005
11 27 1 -0.7694 -0.0733
11 27 2 -2.6326 -0.0014
11 27 3 -0.1486 0.0627
11 27 4 4.9708 0.0254
11 29 0 -2.6142 0.0791
11 29 1 -1.1016 0.0207
11 29 2 2.3109 -0.0994
11 29 3 2.8957 0.0919
11 31 0 1.8185 0.1165
11 31 1 -4.6493 -0.0241
12 0 0 1.6152 -0.7200
12 0 2 -9.3106 0.4559
12 0 4 6.2893 0.5088
12 0 6 1.4903 -0.2867
12 0 8 1.7835 -0.4328
12 2 0 0.0548 0.4349
12 2 1 -10.7173 -0.0234
12 2 2 -2.4878 -0.5164
12 2 3 -8.6812 0.2080
12 2 4 -0.5496 -0.3747
12 2 5 0.7669 0.1124
12 2 6 2.0205 0.3408
12 2 7 -0.9424 -0.1907
12 2 8 0.0715 0.3275
12 2 9 -4.0758 -0.1123
12 2 10 -1.0896 -0.3134
12 4 0 1.5452 0.1823
12 4 1 -5.1637 0.2511
12 4 2 2.4951 0.0443
12 4 3 9.4982 -0.2878
12 4 4 -5.4183 0.0192
12 4 5 -3.1105 -0.2749
12 4 6 -0.8079 -0.0336
12 4 7 1.6879 0.2239
12 4 8 -0.8316 -0.0166
12 4 9 0.5691 0.2080
12 4 10 3.8026 -0.1453
12 6 0 -2.6821 -0.0985
12 6 1 -3.0366 -0.1258
12 6 2 4.5457 0.2193
12 6 3 6.3644 0.0897
12 6 4 -2.4272 -0.0186
12 6 5 -6.3590 0.0863
12 6 6 1.7078 -0.2114
12 6 7 2.6974 -0.0998
12 6 8 1.1962 0.0235
12 6 9 0.7050 -0.0838
12 6 10 -3.4783 0.1644
12 8 0 -2.1523 -0.1638
12 8 1 -1.1498 -0.0563
12 8 2 9.8073 -0.1869
12 8 3 -0.0372 0.0155
12 8 4 -5.3499 0.0951
12 8 5 4.4406 0.0402
12 8 6 2.4072 0.1293
12 8 7 -1.4775 -0.0149
12 8 8 -2.0539 -0.0836
12 8 9 0.8416 -0.0929
12 8 10 0.1865 -0.0443
12 10 0 -2.8051 0.0249
12 10 1 2.0565 -0.0930
12 10 2 4.6357 0.1086
12 10 3 -3.2739 -0.0565
12 10 4 -0.3339 0.1228
12 10 5 6.5451 0.0763
12 10 6 8.7691 -0.0351
12 10 7 -2.6913 0.1081
12 10 8 -1.2661 -0.0843
12 10 9 2.2513 -0.1118
12 10 10 2.7657 0.1078
12 12 0 7.6502 0.1020
12 12 1 2.0125 0.0284
12 12 2 0.2610 -0.1543
12 12 3 -4.7488 0.0289
12 12 4 -7.5347 -0.1597
12 12 5 -2.1440 -0.0942
12 12 6 1.5269 0.1379
12 12 7 -2.0730 -0.0081
12 12 8 -0.9039 0.1445
12 12 9 0.4041 -0.0883
12 12 10 -0.3401 -0.1226
12 14 0 -4.7963 -0.0722
12 14 1 -1.1396 0.0356
12 14 2 -2.1521 0.0996
12 14 3 -4.7057 0.0316
12 14 4 0.6978 0.0813
12 14 5 1.4743 -0.0787
12 14 6 -5.1750 -0.0462
12 14 7 -0.6820 -0.0006
12 14 8 2.0737 -0.1248
12 14 9 -1.1812 -0.0421
12 16 0 -1.7773 0.0191
12 16 1 4.2142 -0.0420
12 16 2 -0.0902 0.0300
12 16 3 -3.3000 0.0563
12 16 4 0.7811 -0.0142
12 16 5 -0.8102 0.0925
12 16 6 -1.6073 0.0268
12 16 7 -1.9672 -0.0255
12 16 8 0.3410 -0.0771
12 18 0 2.2431 -0.0626
12 18 1 0.3987 0.0222
12 18 2 -1.3387 0.0129
12 18 3 -1.3928 0.0169
12 18 4 0.0302 0.0841
12 18 5 -0.2945 0.0442
12 18 6 3.2760 -0.0160
12 18 7 1.6630 -0.0965
12 20 0 5.1725 0.0718
12 20 1 -0.4875 -0.0337
12 20 2 -4.0724 0.0069
12 20 3 -0.0115 -0.0482
12 20 4 1.6410 -0.0455
12 20 5 -0.5834 0.0483
12 20 6 -2.2840 -0.0470
12 20 7 -4.6692 -0.0209
12 22 0 0.0678 -0.0249
12 22 1 -0.3333 0.0123
12 22 2 -2.0775 0.0046
12 22 3 -0.5480 0.0387
12 22 4 -1.2154 -0.0055
12 22 5 0.1473 -0.0774
12 22 6 1.3409 -0.0025
12 22 7 0.3718 0.0121
12 24 0 1.6921 0.0041
12 24 1 -0.6477 0.0097
12 24 2 0.3881 0.0712
12 24 3 0.1776 0.0390
12 24 4 -0.7488 0.0464
12 24 5 1.9817 -0.1375
12 24 6 -0.9317 -0.0526
12 26 0 -0.1639 0.0133
12 26 1 0.1917 -0.0335
12 26 2 0.8832 -0.0168
12 26 3 3.2974 -0.0659
12 26 4 2.7041 -0.0439
12 26 5 1.2223 -0.0149
12 28 0 -1.1078 0.0215
12 28 1 -3.1182 0.0368
12 28 2 1.4526 0.0236
12 28 3 2.6416 -0.1052
12 30 0 -1.2195 0.0036
12 30 1 -3.0342 0.0590
13 1 0 7.5323 0.2487
13 1 1 4.6635 -0.1900
13 1 2 -5.7623 0.0222
13 1 3 3.3818 -0.5921
13 1 4 1.4391 -0.0981
13 1 5 -7.3833 0.1763
13 1 6 1.2548 -0.0416
13 1 7 1.2219 0.4482
13 1 8 2.6095 0.0200
13 1 9 -0.7672 -0.0892
13 3 0 -8.1171 -0.0017
13 3 1 -5.6942 0.0122
13 3 2 -0.6916 0.3963
13 3 3 3.0786 0.2469
13 3 4 1.5300 -0.1653
13 3 5 -3.8122 0.0072
13 3 6 -0.9820 -0.3189
13 3 7 3.7836 -0.1840
13 3 8 -1.1347 0.1531
13 3 9 2.3607 -0.0510
13 5 0 1.6284 -0.2655
13 5 1 -13.0154 0.0845
13 5 2 2.5988 -0.1887
13 5 3 4.4997 0.1500
13 5 4 -5.6959 0.2660
13 5 5 0.8432 -0.0978
13 5 6 1.2286 0.1611
13 5 7 -2.3469 -0.0504
13 5 8 -1.7687 -0.1516
13 5 9 -0.1218 0.0021
13 5 10 -2.7778 -0.2172
13 7 0 1.3186 0.0748
13 7 1 -3.4459 -0.1421
13 7 2 5.3604 0.0858
13 7 3 4.2192 -0.1822
13 7 4 -4.2969 0.0328
13 7 5 0.8141 0.1009
13 7 6 6.3087 -0.0817
13 7 7 0.2653 0.1780
13 7 8 -0.6292 -0.0729
13 7 9 -0.3307 -0.1352
13 7 10 1.0677 0.1175
13 9 0 -6.7272 0.0564
13 9 1 6.1017 0.0800
13 9 2 12.3579 -0.2031
13 9 3 -1.4746 -0.0439
13 9 4 -4.5988 -0.1378
13 9 5 0.8763 -0.1299
13 9 6 3.1795 0.1994
13 9 7 -1.0637 -0.0160
13 9 8 -0.7506 0.1781
13 9 9 -0.8813 0.0726
13 9 10 -0.9485 -0.1353
13 11 0 -3.1912 -0.0350
13 11 1 0.4593 0.0587
13 11 2 3.2149 0.0841
13 11 3 -4.2945 0.0128
13 11 4 -5.7841 0.0224
13 11 5 0.2696 0.0113
13 11 6 -0.6076 -0.0711
13 11 7 -1.6636 -0.0196
13 11 8 1.0920 -0.0940
13 11 9 4.9834 -0.1262
13 13 0 0.6129 0.0124
13 13 1 -1.1911 -0.0811
13 13 2 -0.2789 0.0477
13 13 3 -5.8350 0.0507
13 13 4 0.9216 -0.0511
13 13 5 2.6272 0.0397
13 13 6 1.5879 -0.0033
13 13 7 -1.7535 -0.0634
13 13 8 -1.7289 -0.0354
13 13 9 0.3057 -0.1070
13 15 0 0.8685 -0.1134
13 15 1 6.2269 0.0010
13 15 2 -2.5993 -0.0477
13 15 3 -1.7035 0.0022
13 15 4 0.9382 0.1495
13 15 5 -0.1941 0.0297
13 15 6 0.2033 0.0741
13 15 7 -1.0955 0.0408
13 15 8 1.8697 -0.0581
13 17 0 3.9566 0.1213
13 17 1 1.1880 -0.0388
13 17 2 -2.4338 -0.0121
13 17 3 -3.9808 -0.0360
13 17 4 0.6868 -0.0557
13 17 5 -0.2454 0.0936
13 17 6 -3.5248 -0.0616
13 17 7 -2.5672 0.0677
13 19 0 -2.8796 -0.0064
13 19 1 -0.8301 0.0426
13 19 2 -2.2499 -0.0189
13 19 3 0.8421 0.0021
13 19 4 -2.3582 0.0531
13 19 5 -0.3670 -0.0413
13 19 6 1.3458 0.0669
13 19 7 -2.4965 0.0423
13 21 0 1.6467 0.0442
13 21 1 -1.5777 0.0409
13 21 2 2.8066 0.0988
13 21 3 1.1995 0.0424
13 21 4 0.7310 0.0053
13 21 5 -1.0920 -0.0137
13 21 6 2.2152 -0.0261
13 23 0 4.1924 -0.0145
13 23 1 2.8558 -0.0025
13 23 2 -2.7013 -0.0054
13 23 3 -1.5970 0.0294
13 23 4 1.2484 0.0497
13 23 5 -0.4216 -0.0199
13 23 6 -2.7999 0.0080
13 25 0 0.0020 0.0379
13 25 1 1.8267 -0.0544
13 25 2 2.3357 0.0086
13 25 3 -0.7695 -0.0547
13 25 4 -3.9902 0.0532
13 25 5 3.5813 -0.0085
13 25 6 2.8313 -0.1881
13 27 0 0.5273 -0.0060
13 27 1 -1.7521 -0.0240
13 27 2 -1.1104 -0.0671
13 29 0 -0.2062 0.0067
13 29 1 -3.2222 -0.0277
14 0 0 -1.4139 0.5276
14 0 2 -0.4358 0.1131
14 0 4 2.1292 -0.4992
14 0 6 -0.8745 -0.1786
14 0 8 0.1920 0.3535
14 2 0 2.1718 -0.5375
14 2 1 -14.4407 0.2183
14 2 2 -5.4740 0.0349
14 2 3 -0.6827 -0.0469
14 2 4 0.3574 0.4405
14 2 5 -2.5070 -0.2487
14 2 6 2.8489 -0.0051
14 2 7 -1.6896 0.0962
14 2 8 -0.7027 -0.3589
14 2 9 -2.0265 0.1440
14 4 0 0.5768 -0.0251
14 4 1 -3.1124 -0.3140
14 4 2 -1.3690 -0.0538
14 4 3 4.7184 -0.0521
14 4 4 -1.4082 0.0017
14 4 5 -2.3769 0.3130
14 4 6 -2.3776 0.0593
14 4 7 1.6457 0.0443
14 4 8 1.5166 -0.0304
14 4 9 3.0010 -0.2923
14 4 10 -0.6512 -0.0581
14 6 0 -5.6745 0.2342
14 6 1 2.7245 0.1523
14 6 2 11.9343 -0.1996
14 6 3 2.4185 -0.0482
14 6 4 -8.1506 -0.1152
14 6 5 -0.8113 -0.1419
14 6 6 1.4372 0.1887
14 6 7 0.7122 0.0613
14 6 8 3.2032 0.1124
14 6 9 -0.2654 0.1468
14 6 10 -1.1110 -0.1595
14 8 0 -4.2974 -0.0204
14 8 1 -4.3738 0.0397
14 8 2 9.6691 0.0910
14 8 3 0.5808 0.0200
14 8 4 -1.9086 0.0061
14 8 5 2.5564 -0.0152
14 8 6 5.8391 -0.1255
14 8 7 -0.4171 -0.0070
14 8 8 -1.0032 -0.0464
14 8 9 0.6116 0.0184
14 8 10 -1.6401 0.0191
14 10 0 -1.0713 0.0199
14 10 1 4.2842 -0.0533
14 10 2 -2.6241 0.0512
14 10 3 -1.5759 0.0779
14 10 4 0.4970 -0.0744
14 10 5 0.2421 0.0228
14 10 6 1.6119 -0.0322
14 10 7 1.1011 -0.1278
14 10 8 -4.2659 0.0860
14 10 9 0.0681 -0.0495
14 12 0 6.9765 -0.1647
14 12 1 3.0360 -0.0457
14 12 2 1.9975 -0.0333
14 12 3 -6.4645 -0.0780
14 12 4 -6.0042 0.1738
14 12 5 0.2823 0.0314
14 12 6 0.2660 0.0938
14 12 7 -2.6993 0.0641
14 12 8 0.6565 -0.0441
14 12 9 -2.8372 -0.1630
14 14 0 -3.3229 0.1239
14 14 1 0.4711 -0.0313
14 14 2 -0.0732 -0.0501
14 14 3 -3.0587 -0.0233
14 14 4 -0.7334 -0.1085
14 14 5 0.6227 0.0460
14 14 6 1.3400 -0.0237
14 14 7 -3.3818 0.0007
14 14 8 -2.5075 0.1305
14 14 9 5.3048 -0.1943
14 16 0 -0.9575 -0.0098
14 16 1 0.6621 0.0515
14 16 2 -0.4873 -0.0493
14 16 3 0.8933 -0.0237
14 16 4 -0.9802 0.0426
14 16 5 -0.5962 -0.0627
14 16 6 0.7695 0.0619
14 16 7 -1.8566 0.1324
14 16 8 1.9280 0.0600
14 18 0 2.4111 0.0070
14 18 1 -0.8756 0.0259
14 18 2 -0.6329 0.0967
14 18 3 -1.5670 0.0446
14 18 4 3.4306 0.0129
14 18 5 1.0539 0.0103
14 18 6 0.3572 -0.0813
14 18 7 0.7301 0.0516
14 20 0 3.1298 -0.0261
14 20 1 1.0801 -0.0299
14 20 2 -3.2801 -0.0061
14 20 3 -2.7918 0.0721
14 20 4 1.6912 0.0310
14 20 5 0.1184 0.0629
14 20 6 -5.5670 0.0958
14 22 0 -2.6322 0.0293
14 22 1 0.0830 -0.0145
14 22 2 0.5906 0.0277
14 22 3 0.7660 -0.0291
14 22 4 -3.5259 0.0577
14 22 5 0.9240 0.0667
14 22 6 3.8922 0.0414
14 24 0 0.9182 0.0644
14 24 1 -0.5337 0.0313
14 24 2 1.5552 -0.0420
14 24 3 -0.2010 -0.0257
14 24 4 -3.8109 -0.0119
14 24 5 1.8337 -0.0258
14 26 0 -1.3801 -0.0214
14 26 1 -0.2916 -0.0701
14 26 2 0.9217 0.1288
14 26 3 0.5223 -0.0246
14 28 0 2.1460 0.0117
14 28 1 2.9929 0.0893
15 1 0 3.4527 -0.1961
15 1 1 -2.4245 -0.2126
15 1 2 -1.9070 -0.0437
15 1 3 -3.2630 0.4826
15 1 4 2.7677 0.0495
15 1 5 -8.2350 0.2070
15 1 6 -0.0094 0.0441
15 1 7 -0.6242 -0.3720
15 1 8 1.8645 -0.0631
15 1 9 -2.3850 -0.1460
15 3 0 -1.0742 0.3581
15 3 1 -4.8078 0.1794
15 3 2 -1.1227 -0.3240
15 3 3 -0.7643 -0.1493
15 3 4 -2.5151 -0.1214
15 3 5 -0.6755 -0.1653
15 3 6 0.0603 0.2264
15 3 7 0.2332 0.0932
15 3 8 -0.1035 0.1415
15 3 9 -0.0352 0.1310
15 5 0 -3.1812 0.0480
15 5 1 -3.8935 0.0127
15 5 2 1.2140 0.2765
15 5 3 7.1655 -0.1272
15 5 4 -1.7932 -0.0590
15 5 5 -2.2143 -0.0272
15 5 6 0.2029 -0.1996
15 5 7 -0.4984 0.1241
15 5 8 -1.1002 0.0524
15 5 9 2.7529 0.0480
15 7 0 -3.0467 -0.0952
15 7 1 -2.6797 0.0079
15 7 2 4.1454 -0.0555
15 7 3 3.0040 0.1339
15 7 4 -4.1132 -0.0643
15 7 5 2.0573 -0.0237
15 7 6 4.0692 0.0069
15 7 7 1.8227 -0.1555
15 7 8 2.7579 0.0959
15 7 9 -0.5631 0.0383
15 9 0 -3.4047 -0.1111
15 9 1 3.0274 -0.0563
15 9 2 7.7784 0.0234
15 9 3 -3.3462 -0.1125
15 9 4 -5.2209 0.1843
15 9 5 2.9980 0.0573
15 9 6 0.9475 -0.0273
15 9 7 -1.8907 0.1257
15 9 8 -2.7399 -0.1288
15 9 9 -1.0799 -0.2048
15 11 0 1.7721 0.1246
15 11 1 1.2647 -0.0376
15 11 2 3.3431 -0.0427
15 11 3 -3.0478 -0.0120
15 11 4 -3.0800 -0.1154
15 11 5 -3.8238 0.0562
15 11 6 1.4051 0.0478
15 11 7 -0.8170 0.0223
15 11 8 -0.7205 0.1124
15 13 0 2.7237 -0.0454
15 13 1 0.8316 0.1008
15 13 2 0.6341 -0.1231
15 13 3 -1.9198 -0.0541
15 13 4 0.9997 -0.0279
15 13 5 -0.1902 -0.1265
15 13 6 1.8790 0.0594
15 13 7 -0.0201 0.0481
15 13 8 -1.7731 0.1243
15 15 0 -3.4109 0.0249
15 15 1 1.2485 -0.0256
15 15 2 -0.6569 0.1207
15 15 3 -1.6035 0.0327
15 15 4 -1.0742 0.0240
15 15 5 2.4712 0.0328
15 15 6 0.3214 -0.0687
15 15 7 -4.0745 0.0076
15 15 8 4.8374 -0.0517
15 17 0 1.2224 -0.0423
15 17 1 3.0471 0.0030
15 17 2 -1.3802 -0.0626
15 17 3 -3.2181 0.0278
15 17 4 0.8925 0.0464
15 17 5 1.6539 0.0110
15 17 6 -0.6506 0.0968
15 17 7 -1.2365 0.0541
15 19 0 0.2110 0.0216
15 19 1 -2.3264 -0.0146
15 19 2 -0.8015 0.0281
15 19 3 -1.1496 -0.0193
15 19 4 -1.7290 0.0231
15 19 5 0.5637 0.1002
15 19 6 0.2578 0.0007
15 21 0 -0.1020 0.0711
15 21 1 0.9432 -0.0315
15 21 2 -0.0481 -0.0435
15 21 3 -1.0299 -0.0538
15 21 4 1.5177 -0.0563
15 21 5 0.9990 0.0748
15 21 6 0.4355 0.1014
15 23 0 0.2869 -0.0160
15 23 1 2.5046 0.0699
15 23 2 -0.8957 0.0656
15 23 3 -0.3066 0.0760
15 23 4 2.2298 0.0913
15 23 5 -0.8969 -0.0683
15 25 0 3.7050 0.0209
15 25 1 -0.4368 -0.0441
15 25 2 0.7065 0.1171
15 25 3 -0.1427 0.0226
15 25 4 -0.1190 0.0456
15 25 5 3.6782 -0.0085
15 27 0 -1.9480 0.0309
15 27 1 1.6700 -0.0018
16 0 0 5.0673 0.0285
16 0 2 -3.3341 -0.3634
16 0 4 1.2120 0.1137
16 0 6 -2.9603 0.2993
16 0 8 0.5378 -0.0682
16 2 0 -1.9042 0.2023
16 2 1 1.2756 -0.1466
16 2 2 -0.1013 0.2698
16 2 3 -2.3838 -0.1684
16 2 4 -1.0522 -0.2164
16 2 5 -0.0078 0.1699
16 2 6 3.2041 -0.1975
16 2 7 -0.8184 0.1182
16 2 8 0.0083 0.1193
16 2 9 2.4709 -0.1438
16 4 0 -4.9117 -0.1653
16 4 1 -3.9016 0.1966
16 4 2 3.3543 -0.0323
16 4 3 3.0655 0.2668
16 4 4 -2.8826 0.0197
16 4 5 -0.0192 -0.2165
16 4 6 -0.9038 0.0355
16 4 7 0.2015 -0.1688
16 4 8 1.9630 0.0273
16 4 9 2.1340 0.1368
16 6 0 2.8148 -0.1431
16 6 1 -2.4794 -0.0879
16 6 2 -0.2050 0.0835
16 6 3 -0.3284 -0.0401
16 6 4 -3.6636 0.1896
16 6 5 0.0451 0.0820
16 6 6 1.4302 -0.0678
16 6 7 -0.9614 0.1031
16 6 8 0.9507 -0.1875
16 6 9 -1.9167 -0.1241
16 8 0 -1.5495 0.1189
16 8 1 1.5247 0.0048
16 8 2 5.9342 -0.0608
16 8 3 -0.3398 -0.0484
16 8 4 0.4399 -0.1124
16 8 5 2.0205 -0.0016
16 8 6 0.1649 0.0755
16 8 7 1.4699 0.0029
16 8 8 1.8187 0.1288
16 8 9 0.0172 0.0742
16 10 0 -4.5581 -0.0199
16 10 1 2.8406 0.1305
16 10 2 2.8380 -0.1284
16 10 3 -1.3422 -0.1022
16 10 4 -2.3578 -0.0190
16 10 5 -0.4653 -0.0848
16 10 6 0.5462 0.0684
16 10 7 -0.6749 0.0332
16 10 8 -2.6481 0.0506
16 12 0 2.1095 0.0824
16 12 1 -0.0067 -0.0343
16 12 2 1.7753 0.1294
16 12 3 -3.0316 0.0532
16 12 4 -3.0476 -0.1063
16 12 5 -0.3582 0.0694
16 12 6 1.6149 -0.1504
16 12 7 -2.2738 -0.0838
16 12 8 -1.9599 0.0270
16 14 0 2.8538 -0.1014
16 14 1 3.7288 -0.0051
16 14 2 -2.7778 -0.0470
16 14 3 -1.3190 0.0087
16 14 4 1.5906 0.0540
16 14 5 -1.2443 -0.0334
16 14 6 1.5918 0.0958
16 14 7 -1.2738 -0.0383
16 14 8 -3.1667 0.0939
16 16 0 2.5440 0.0105
16 16 1 0.3823 -0.0242
16 16 2 -0.8782 0.0069
16 16 3 -0.4007 -0.0458
16 16 4 0.2948 0.0681
16 16 5 0.8079 0.0595
16 16 6 -0.9259 -0.0545
16 16 7 -0.8910 0.0790
16 18 0 0.1254 0.0566
16 18 1 -2.4624 -0.0094
16 18 2 0.5357 -0.1007
16 18 3 -0.7630 -0.0297
16 18 4 0.6993 -0.0729
16 18 5 0.4891 0.0005
16 18 6 1.6343 0.0749
16 20 0 -2.5427 -0.0127
16 20 1 0.5229 0.0412
16 20 2 -2.7337 0.0647
16 20 3 -1.9490 -0.0354
16 20 4 0.9169 0.0670
16 20 5 1.8888 -0.0054
16 22 0 0.8288 0.0454
16 22 1 -3.1395 0.0197
16 22 2 0.4055 0.0485
16 22 3 0.5638 0.0739
16 22 4 0.6947 -0.0691
16 22 5 1.5320 0.0286
16 24 0 -0.1352 -0.0096
16 24 1 2.0692 -0.0082
16 24 2 0.3529 0.0199
16 24 3 -0.0737 -0.0202
16 24 4 -3.6685 0.1648
16 26 0 -4.8288 0.0667
16 26 1 -0.1789 -0.0212
17 1 0 0.9432 0.0406
17 1 1 -3.4171 0.4459
17 1 2 1.0981 0.0424
17 1 3 -2.9749 -0.1283
17 1 4 0.2350 0.0132
17 1 5 -8.7596 -0.4076
17 1 6 0.3317 -0.0284
17 1 7 -0.3693 0.1085
17 1 8 1.3612 0.0070
17 3 0 -1.1346 -0.3759
17 3 1 -3.2645 -0.1534
17 3 2 -3.5409 0.0867
17 3 3 0.7945 0.0158
17 3 4 1.8506 0.2153
17 3 5 0.6114 0.1425
17 3 6 0.2418 -0.0326
17 3 7 -3.0691 -0.0365
17 3 8 -0.9250 -0.1385
17 3 9 -1.2541 -0.0795
17 5 0 -0.2608 0.1651
17 5 1 2.2067 -0.1093
17 5 2 2.9161 -0.2074
17 5 3 1.7131 0.0473
17 5 4 -3.3469 -0.1100
17 5 5 0.3577 0.0545
17 5 6 -3.0682 0.1377
17 5 7 1.6673 -0.0920
17 5 8 1.9153 0.1200
17 5 9 3.7810 0.1117
17 7 0 -3.4391 0.0707
17 7 1 -1.4232 0.1221
17 7 2 2.5824 -0.0303
17 7 3 1.8337 -0.0892
17 7 4 -5.3338 0.0310
17 7 5 2.0252 -0.0849
17 7 6 4.2571 0.0119
17 7 7 -1.9060 0.0691
17 7 8 3.9502 0.0295
17 9 0 0.0271 0.0641
17 9 1 1.8930 0.0293
17 9 2 1.7771 0.1113
17 9 3 -2.2580 0.1089
17 9 4 -1.0560 -0.1541
17 9 5 0.1897 0.0143
17 9 6 0.1875 -0.1813
17 9 7 1.1861 -0.0891
17 9 8 -5.1850 0.1275
17 11 0 3.7666 -0.1356
17 11 1 1.1683 -0.0258
17 11 2 -0.2865 -0.0129
17 11 3 -3.1236 -0.0408
17 11 4 -1.8496 0.0857
17 11 5 -1.7898 -0.0278
17 11 6 -1.5947 0.0127
17 11 7 1.4958 0.0590
17 13 0 2.0994 -0.0074
17 13 1 -0.7709 -0.0496
17 13 2 2.7118 0.0291
17 13 3 0.6678 -0.0153
17 13 4 4.2913 0.0226
17 13 5 0.4004 0.0954
17 13 6 0.5989 -0.0397
17 13 7 -1.9551 0.0773
17 15 0 -2.8502 0.0786
17 15 1 -0.3139 0.0100
17 15 2 0.3176 -0.1289
17 15 3 0.0108 -0.0323
17 15 4 -2.7198 -0.0905
17 15 5 -2.1623 -0.0678
17 15 6 3.8223 0.0947
17 15 7 -4.4112 0.0587
17 17 0 -1.9780 -0.0233
17 17 1 2.7325 0.0429
17 17 2 -0.6266 0.0597
17 17 3 -0.0317 -0.0675
17 17 4 1.0673 0.0584
17 17 5 4.1401 -0.0836
17 17 6 1.5294 -0.0367
17 19 0 3.3632 -0.0015
17 19 1 -1.6787 -0.0158
17 19 2 0.9026 0.0053
17 19 3 -4.5275 0.0528
17 19 4 -1.7779 -0.0810
17 19 5 1.6104 -0.0102
17 21 0 -1.6636 -0.0623
17 21 1 -0.6040 0.0014
17 21 2 -5.2390 0.0409
17 21 3 -0.3562 -0.0006
17 21 4 2.6539 0.0579
17 21 5 1.0986 0.1566
17 23 0 -0.8837 0.0803
17 23 1 3.8635 0.0186
17 23 2 1.4495 -0.0360
17 23 3 -0.4347 -0.0480
17 23 4 1.2938 0.0388
17 25 0 2.2914 -0.0383
17 25 1 -3.1287 0.0053
17 25 2 2.1490 0.0394
18 0 0 -6.3832 -0.3680
18 0 2 1.1593 0.2220
18 0 4 0.4851 0.1727
18 0 6 1.1464 -0.1265
18 0 8 0.3651 -0.1149
18 2 0 2.9671 0.1195
18 2 1 -2.5013 -0.0221
18 2 2 -1.9627 -0.2751
18 2 3 2.8056 0.2585
18 2 4 -1.2015 -0.0455
18 2 5 1.1394 -0.0488
18 2 6 1.6173 0.2081
18 2 7 1.2777 -0.2389
18 2 8 1.3762 0.0432
18 4 0 1.2880 0.2064
18 4 1 0.5992 0.0074
18 4 2 0.7506 0.0498
18 4 3 0.1924 -0.2761
18 4 4 -0.2966 -0.0684
18 4 5 1.1879 0.0110
18 4 6 -3.1176 -0.0187
18 4 7 -0.8605 0.2077
18 6 0 -1.3638 -0.0319
18 6 1 1.0428 0.0314
18 6 2 0.3554 0.0667
18 6 3 -2.8104 0.1056
18 6 4 -2.2520 -0.1565
18 6 5 1.2190 -0.0097
18 6 6 3.1752 -0.0674
18 6 7 -2.4202 -0.1263
18 6 8 -1.7851 0.1687
18 8 0 -2.7323 -0.1450
18 8 1 -1.8344 0.0276
18 8 2 2.1552 -0.0163
18 8 3 1.0450 0.0072
18 8 4 -3.3764 0.1470
18 8 5 2.4979 -0.0248
18 8 6 -2.2807 -0.0248
18 8 7 0.9056 0.0134
18 10 0 0.7189 0.0097
18 10 1 -0.0525 -0.0835
18 10 2 2.3467 0.0989
18 10 3 0.4711 -0.0160
18 10 4 3.0248 0.0464
18 10 5 -1.9288 0.1098
18 10 6 -2.2754 -0.1013
18 10 7 -2.3095 0.0502
18 12 0 4.2927 0.0402
18 12 1 3.5820 0.0620
18 12 2 1.6414 -0.1818
18 12 3 -3.3285 -0.0278
18 12 4 -1.7292 -0.1142
18 12 5 -2.2666 -0.0905
18 12 6 0.5399 0.0661
18 12 7 -0.3388 0.0441
18 14 0 -0.8036 0.0326
18 14 1 3.6164 0.0390
18 14 2 -0.9364 0.0856
18 14 3 0.4353 -0.0423
18 14 4 0.4509 -0.0193
18 14 5 1.1470 -0.0545
18 14 6 3.3220 -0.0987
18 14 7 0.6139 0.0546
18 16 0 1.9306 -0.0051
18 16 1 -1.0581 -0.0210
18 16 2 -2.1241 -0.0015
18 16 3 -0.5767 0.0453
18 16 4 1.1187 -0.0498
18 16 5 0.5793 -0.0521
18 16 6 -1.8206 0.1153
18 18 0 0.2857 -0.0980
18 18 1 -4.6896 0.0049
18 18 2 -1.7886 0.0066
18 18 3 -0.1637 -0.0426
18 18 4 2.4751 0.0636
18 18 5 -2.0664 0.0371
18 20 0 -0.2777 0.0539
18 20 1 3.6793 -0.0469
18 20 2 -1.4711 -0.0371
18 20 3 -1.9805 -0.0784
18 20 4 1.0957 -0.0715
18 22 0 -1.4358 0.0106
18 22 1 -3.0684 0.0208
18 22 2 1.5213 -0.0840
18 22 3 -0.1926 -0.0103
18 22 4 -0.9273 0.0709
18 24 0 -0.2250 -0.0170
18 24 1 -1.4005 0.0502
18 24 2 -2.1629 0.1647
18 24 3 3.0799 0.1510
19 1 0 1.1762 0.1356
19 1 1 2.5451 -0.3303
19 1 2 -1.6365 -0.0145
19 1 3 -4.9337 -0.2301
19 1 4 1.1580 -0.0504
19 1 5 1.1127 0.3252
19 1 6 -0.3550 0.0573
19 1 7 -1.2238 0.0994
19 1 8 2.4979 0.1371
19 3 0 -2.4482 0.1121
19 3 1 2.1986 0.0865
19 3 2 3.5302 0.0528
19 3 3 -0.3616 0.0654
19 3 4 -2.1783 -0.1378
19 3 5 3.4151 -0.0623
19 3 6 2.1477 -0.0520
19 3 7 -5.0841 -0.0743
19 3 8 -1.9750 0.1761
19 5 0 2.0286 -0.1960
19 5 1 -3.1132 0.1093
19 5 2 -1.7106 0.0258
19 5 3 1.0463 0.0312
19 5 4 -0.9746 0.1433
19 5 5 -1.8550 -0.1064
19 5 6 -1.7009 -0.0618
19 5 7 4.3760 -0.0483
19 7 0 0.2415 -0.0074
19 7 1 -1.5277 -0.1244
19 7 2 -5.3081 0.0706
19 7 3 1.7069 0.0316
19 7 4 0.7903 0.0170
19 7 5 1.5092 0.0954
19 7 6 -2.0104 -0.0949
19 7 7 -3.9224 -0.0359
19 9 0 2.3372 0.0182
19 9 1 2.5325 0.1037
19 9 2 4.6661 -0.1928
19 9 3 -2.9471 -0.0607
19 9 4 -3.3898 0.0118
19 9 5 1.0101 -0.1112
19 9 6 -0.1672 0.1442
19 9 7 -0.1819 0.0737
19 11 0 -1.5538 0.0614
19 11 1 1.2581 0.0006
19 11 2 1.6138 0.0477
19 11 3 0.5456 -0.0027
19 11 4 -2.7482 -0.0774
19 11 5 0.6025 0.0329
19 11 6 2.4156 -0.1423
19 11 7 1.0170 0.0716
19 13 0 -0.0058 0.0287
19 13 1 -1.6741 -0.0130
19 13 2 0.8469 0.0517
19 13 3 1.3303 0.0993
19 13 4 8.3187 -0.0840
19 13 5 0.4660 -0.0228
19 13 6 -4.6903 0.0019
19 15 0 1.6864 -0.1155
19 15 1 -0.8473 -0.0226
19 15 2 -1.6365 0.0251
19 15 3 -1.6340 -0.0331
19 15 4 1.0904 0.0855
19 15 5 -6.4758 -0.0264
19 15 6 1.7670 0.0252
19 17 0 0.4114 0.0565
19 17 1 3.9092 -0.0400
19 17 2 1.5364 -0.0485
19 17 3 3.7511 -0.0275
19 17 4 -1.3364 -0.1120
19 17 5 4.0118 0.0211
19 19 0 0.0771 -0.0375
19 19 1 -0.5113 0.0176
19 19 2 -0.0292 -0.0622
19 19 3 -4.6733 -0.1296
19 19 4 -3.8389 0.0466
19 21 0 -3.1940 0.0369
19 21 1 -3.6688 0.0143
19 21 2 -6.1668 0.0579
19 21 3 0.0663 0.0289
19 23 0 3.4475 -0.0369
19 23 1 3.6115 0.0019
19 23 2 0.3982 0.0364
19 23 3 -0.5937 0.0840
20 0 0 -2.4284 0.3360
20 0 2 -0.5863 -0.0326
20 0 4 0.7825 -0.1764
20 0 6 1.8807 -0.0379
20 2 0 0.2985 -0.1956
20 2 1 1.9274 0.1681
20 2 2 -2.7568 0.1335
20 2 3 5.7840 -0.1642
20 2 4 0.9769 0.0982
20 2 5 -0.6635 -0.1042
20 2 6 -0.3936 -0.0559
20 2 7 2.9382 0.1056
20 2 8 0.8125 -0.0799
20 4 0 1.1001 -0.1245
20 4 1 -1.6270 -0.1646
20 4 2 1.5088 -0.0345
20 4 3 -0.2325 0.1526
20 4 4 0.5020 0.0076
20 4 5 2.5044 0.1051
20 4 6 -2.7345 0.0027
20 4 7 -0.8747 -0.1667
20 6 0 1.0999 0.1330
20 6 1 0.6174 0.0283
20 6 2 0.3175 -0.1761
20 6 3 -2.3978 -0.0501
20 6 4 -4.7223 0.0344
20 6 5 2.1662 -0.0618
20 6 6 3.8051 0.1283
20 8 0 -0.1102 0.0867
20 8 1 -0.1449 0.0211
20 8 2 -0.6834 0.0700
20 8 3 -0.2558 0.0322
20 8 4 -2.6482 -0.0836
20 8 5 0.0873 0.0435
20 8 6 -1.8730 -0.0675
20 8 7 0.4208 -0.0288
20 10 0 0.5940 -0.0143
20 10 1 -0.0214 0.0334
20 10 2 1.4271 0.0019
20 10 3 0.3537 0.0631
20 10 4 5.1812 -0.0493
20 10 5 -0.4366 -0.0728
20 10 6 -4.3103 -0.0462
20 10 7 -0.6164 -0.0896
20 12 0 3.7571 -0.1058
20 12 1 0.1607 -0.0702
20 12 2 0.6666 0.1019
20 12 3 -0.4887 -0.0627
20 12 4 -0.9036 0.1102
20 12 5 -0.8968 0.0505
20 12 6 -0.7686 -0.1357
20 14 0 -1.4933 0.0469
20 14 1 3.0836 -0.0185
20 14 2 -1.1823 -0.0685
20 14 3 2.0769 0.0491
20 14 4 2.3109 -0.1103
20 14 5 -1.1059 -0.0111
20 14 6 4.9929 -0.0626
20 16 0 0.1839 -0.0018
20 16 1 -0.8206 0.0345
20 16 2 -1.2793 -0.0601
20 16 3 0.7792 -0.0963
20 16 4 -0.4521 -0.0434
20 16 5 1.9047 -0.1028
20 18 0 0.1217 0.0190
20 18 1 -4.2493 -0.0266
20 18 2 1.3132 0.0352
20 18 3 -2.3930 -0.0147
20 18 4 2.2845 0.0157
20 20 0 1.5424 -0.0802
20 20 1 4.0042 0.0006
20 20 2 -1.7925 -0.0435
20 20 3 0.3663 0.0484
20 22 0 -2.0810 0.0257
20 22 1 -1.5448 -0.0418
20 22 2 -1.9778 0.0641
21 1 0 -2.8279 -0.1419
21 1 1 -4.5687 0.0561
21 1 2 -0.5174 -0.0145
21 1 3 3.3964 0.3771
21 1 4 -0.0351 0.0488
21 1 5 3.6904 -0.0764
21 1 6 4.2442 -0.0006
21 1 7 -0.1578 -0.2980
21 3 0 5.5631 0.1469
21 3 1 -2.0534 -0.0462
21 3 2 -2.2251 -0.0760
21 3 3 0.4359 -0.0884
21 3 4 -0.0439 -0.0068
21 3 5 2.1584 0.0053
21 3 6 -3.7945 0.0482
21 5 0 0.9856 0.1103
21 5 1 0.4102 0.0029
21 5 2 -0.3319 0.0845
21 5 3 -3.0248 -0.0873
21 5 4 1.6818 -0.1279
21 5 5 0.6640 0.0591
21 5 6 -1.3439 -0.0539
21 7 0 -3.5026 -0.0532
21 7 1 -0.1735 0.0869
21 7 2 -2.4605 -0.0765
21 7 3 2.5273 0.0520
21 7 4 -2.6471 -0.0351
21 7 5 0.8659 -0.1141
21 7 6 -1.0564 0.0124
21 9 0 2.0733 -0.0821
21 9 1 -1.9214 -0.1037
21 9 2 2.4384 0.1488
21 9 3 2.7116 -0.0260
21 9 4 -1.2706 0.1323
21 9 5 -0.6429 0.0743
21 9 6 0.4060 -0.1161
21 11 0 1.3144 0.0018
21 11 1 2.1902 0.0025
21 11 2 0.5769 -0.0702
21 11 3 0.1149 0.0589
21 11 4 1.0544 -0.0242
21 11 5 -0.0872 -0.0216
21 11 6 1.5972 0.0039
21 13 0 -0.4705 0.0177
21 13 1 1.5821 0.0466
21 13 2 3.2312 -0.0841
21 13 3 -0.9503 -0.0798
21 13 4 2.3593 -0.0274
21 13 5 4.1559 -0.0623
21 15 0 0.9740 0.0807
21 15 1 -2.8290 -0.0044
21 15 2 -0.7151 0.0527
21 15 3 -1.4822 0.0621
21 15 4 1.7143 -0.0958
21 15 5 -6.0765 -0.0590
21 17 0 0.6805 -0.1088
21 17 1 2.8008 -0.0087
21 17 2 -0.7142 -0.0399
21 17 3 4.7607 0.0183
21 17 4 1.4609 -0.0063
21 19 0 -0.2746 -0.0043
21 19 1 -1.3773 -0.0455
21 19 2 -2.6708 0.0566
21 21 0 -2.7523 0.0569
21 21 1 -0.4224 -0.0580
21 23 1 2.0102 0.0277
22 0 0 -0.3633 -0.0943
22 0 2 -3.4089 -0.0460
22 0 4 3.8154 0.0203
22 0 6 -3.3767 0.0714
22 2 0 -1.7831 0.1406
22 2 1 7.0006 -0.1872
22 2 2 1.5407 0.0180
22 2 3 3.2640 -0.0283
22 2 4 -1.1172 -0.0830
22 2 5 5.2907 0.1752
22 2 6 -0.4693 -0.0395
22 4 0 1.8087 -0.0304
22 4 1 -1.5301 0.2121
22 4 2 0.1112 0.0064
22 4 3 -0.5963 0.0013
22 4 4 -0.7906 0.0011
22 4 5 -1.5001 -0.1712
22 4 6 3.6121 -0.0333
22 6 0 -0.5499 -0.0928
22 6 1 -3.4435 -0.0357
22 6 2 -4.0368 0.1536
22 6 3 -0.1710 0.0528
22 6 4 -0.1122 0.0380
22 6 5 1.3814 0.0332
22 8 0 4.1007 0.0177
22 8 1 0.9432 -0.0270
22 8 2 0.6044 -0.0977
22 8 3 -1.8873 0.0150
22 8 4 -1.7554 0.0253
22 8 5 0.7167 -0.0738
22 10 0 1.3151 0.0077
22 10 1 0.7346 0.0187
22 10 2 2.0477 -0.0881
22 10 3 0.0364 -0.0827
22 10 4 0.5925 0.0373
22 10 5 0.3557 -0.0287
22 12 0 -2.0641 0.1080
22 12 1 -0.6129 0.0153
22 12 2 -0.1601 0.0679
22 12 3 5.7201 0.0655
22 12 4 1.2338 -0.1559
22 12 5 0.0592 0.0264
22 14 0 -1.2989 -0.1071
22 14 1 -0.5951 -0.0029
22 14 2 -3.1400 -0.0079
22 14 3 -0.5339 -0.0074
22 14 4 5.0645 0.0268
22 16 0 2.1151 -0.0019
22 16 1 -1.7359 -0.0510
22 16 2 2.5642 0.0272
22 16 3 2.9499 0.0275
22 16 4 -2.1524 -0.0924
22 18 0 2.0930 0.0081
22 18 1 1.2591 -0.0073
22 18 2 3.6809 -0.1367
22 20 0 -3.8004 0.0540
22 20 1 2.4163 -0.0571
22 22 0 0.2014 0.0279
23 1 0 -0.1589 0.0752
23 1 1 -2.0816 0.2078
23 1 2 -2.9904 0.0361
23 1 3 2.8948 -0.2525
23 1 4 3.2419 -0.0302
23 1 5 1.1566 -0.0830
23 1 6 4.7134 -0.0877
23 3 0 -0.9550 -0.1973
23 3 1 -3.7150 0.0076
23 3 2 -1.8248 0.0569
23 3 3 -0.2228 0.0631
23 3 4 -1.1944 0.0368
23 5 0 1.9564 0.0056
23 5 1 -1.8040 -0.0651
23 5 2 3.5959 -0.0937
23 5 3 1.7178 0.1000
23 5 4 -1.0341 0.0498
23 5 5 1.9763 -0.0454
23 7 0 -1.2801 0.0962
23 7 1 0.9611 -0.0157
23 7 2 -3.1481 0.0071
23 7 3 0.0835 -0.0613
23 7 4 -1.3377 -0.0028
23 9 0 1.6816 0.0601
23 9 1 2.4980 0.0245
23 9 2 1.7136 0.0052
23 9 3 4.9428 0.0654
23 11 0 -0.6748 -0.0697
23 11 1 -2.1633 0.0082
23 11 2 0.0212 0.0600
23 11 3 -1.0952 -0.0818
23 13 0 1.7071 -0.0490
23 13 1 -0.0335 -0.0538
23 13 2 4.2423 0.0498
23 13 3 -0.0189 0.0360
23 15 0 1.5630 -0.0049
23 15 1 -0.0323 0.0323
23 15 2 -1.0435 -0.1658
23 15 3 -0.4894 -0.0249
23 17 0 -2.7803 0.0737
23 17 1 0.6367 -0.0366
23 17 2 -0.3347 0.0215
23 19 0 1.1047 -0.0136
24 0 0 -0.4941 -0.1078
24 0 2 -0.8401 0.0074
24 0 4 -0.2375 0.0517
24 2 0 -1.8268 -0.0468
24 2 1 0.4381 0.0663
24 2 2 0.9481 -0.0404
24 2 3 7.7126 0.1651
24 2 4 -0.8626 -0.0047
24 2 5 2.3384 -0.1079
24 4 0 1.0661 0.1144
24 4 1 -1.4324 -0.1176
24 4 2 -2.9520 0.0486
24 4 3 -3.4879 -0.0815
24 4 4 3.2213 -0.0659
24 6 0 -0.4523 0.0317
24 6 1 -1.4159 0.0561
24 6 2 -0.1508 -0.0374
24 6 4 -1.9372 -0.0867
24 8 0 1.2500 -0.0559
24 8 1 3.4025 -0.0029
24 8 2 1.4401 0.0673
24 8 3 1.0892 -0.0689
24 10 0 2.1929 -0.0474
24 10 1 -4.0365 -0.0673
24 10 2 0.8409 0.1089
24 10 3 0.6105 0.0529
24 12 0 -1.3245 -0.0484
24 12 1 1.4884 0.0640
24 12 2 -1.3582 -0.1678
24 12 3 6.0995 -0.0341
24 14 0 -1.7381 0.1171
24 14 1 -1.5709 -0.0248
24 14 2 -0.5821 0.0001
24 14 3 -1.6784 -0.0267
24 16 0 2.0686 -0.0294
24 16 1 -1.9008 0.0086
24 18 0 1.3579 -0.0889
25 1 0 -2.8511 -0.0223
25 1 1 -0.7984 -0.2909
25 1 2 1.1472 -0.0303
25 1 3 -0.5934 0.0367
25 1 4 3.3680 -0.0226
25 3 0 1.3386 0.0731
25 3 1 -0.6968 0.0446
25 3 2 -4.7903 -0.0554
25 3 3 -1.2412 -0.0051
25 5 0 1.7894 -0.0724
25 5 1 -0.0261 0.0943
25 5 2 2.1176 0.0992
25 7 0 -4.5455 -0.0412
25 7 1 -4.5052 -0.0444
25 7 2 0.4697 0.0600
25 7 3 -0.2890 0.0661
25 9 0 6.3761 -0.0071
25 9 1 3.8111 -0.0229
25 9 2 0.7006 -0.1257
26 0 0 6.7108 0.1251
26 2 0 -5.7877 -0.0538
26 2 1 -1.1569 0.1085
26 2 2 0.8162 -0.0177
26 4 0 -3.9415 -0.0745
26 4 1 -3.5796 -0.0112
26 4 2 2.7336 -0.0539
26 4 3 0.7396 0.1392
26 6 0 5.2384 0.0022
26 6 1 -0.4015 -0.0897
26 6 2 -0.1837 -0.0081
26 8 0 0.3836 0.0448
26 8 1 7.8707 -0.0096
27 1 0 -2.4812 -0.0640
27 3 0 1.5852 -0.0049
27 3 1 0.6126 -0.0439
27 5 0 1.7974 0.0603
27 5 1 -2.0204 -0.0567
27 7 0 -3.2428 0.0006
27 7 1 -3.2154 0.0664
28 2 0 -4.2983 0.0460
0 0 0 0.0 0.0
;
_shelx_fab_checksum              93450
_olex2_submission_special_instructions 'No special instructions were received'
_oxdiff_exptl_absorpt_empirical_details
;
Empirical correction (ABSPACK) includes:
- Absorption correction using spherical harmonics
- Frame scaling
;
_oxdiff_exptl_absorpt_empirical_full_max 2.265
_oxdiff_exptl_absorpt_empirical_full_min 0.425
loop_
_space_group_symop_operation_xyz
'x, y, z'
'-x, y, -z+1/2'
'x+1/2, y+1/2, z'
'-x+1/2, y+1/2, -z+1/2'
'-x, -y, -z'
'x, -y, z-1/2'
'-x+1/2, -y+1/2, -z'
'x+1/2, -y+1/2, z-1/2'
loop_
_atom_site_label
_atom_site_type_symbol
_atom_site_fract_x
_atom_site_fract_y
_atom_site_fract_z
_atom_site_U_iso_or_equiv
_atom_site_adp_type
_atom_site_occupancy
_atom_site_site_symmetry_order
_atom_site_calc_flag
_atom_site_refinement_flags_posn
_atom_site_refinement_flags_adp
_atom_site_refinement_flags_occupancy
_atom_site_disorder_assembly
_atom_site_disorder_group
Zn01 Zn 0.68788(4) 0.46858(2) 0.62371(5) 0.0556(3) Uani 1 1 d . U . . .
O002 O 0.6986(2) 0.50706(14) 0.8224(4) 0.0638(11) Uani 1 1 d . U . . .
N003 N 0.6980(3) 0.39826(15) 0.7260(4) 0.0568(11) Uani 1 1 d . U . . .
O004 O 0.6542(3) 0.56771(15) 0.9365(3) 0.0742(13) Uani 1 1 d . U . . .
N005 N 0.7857(3) 0.4815(2) 0.6065(5) 0.0623(12) Uani 1 1 d . . . . .
C006 C 0.6605(3) 0.54506(18) 0.8238(5) 0.0600(15) Uani 1 1 d . . . . .
C007 C 0.8196(3) 0.4470(3) 0.5429(6) 0.0675(15) Uani 1 1 d . U . . .
H007 H 0.7994 0.4157 0.5147 0.081 Uiso 1 1 calc R . . . .
N008 N 0.6168(4) 0.5240(3) 0.5840(6) 0.100(2) Uani 1 1 d . U . . .
H008 H 0.5844 0.5226 0.5154 0.120 Uiso 1 1 calc R . . . .
C009 C 0.7192(3) 0.30515(19) 0.8742(6) 0.0599(13) Uani 1 1 d . U . . .
C00A C 0.6649(4) 0.3560(2) 0.6801(7) 0.0760(18) Uani 1 1 d . U . . .
H00A H 0.6339 0.3582 0.5989 0.091 Uiso 1 1 calc R . . . .
C00B C 0.7287(3) 0.2549(2) 0.9427(6) 0.0626(14) Uani 1 1 d . U . . .
H00B H 0.7027 0.2276 0.9027 0.075 Uiso 1 1 calc R . . . .
C00C C 0.7380(4) 0.3942(2) 0.8467(6) 0.0719(16) Uani 1 1 d . U . . .
H00C H 0.7581 0.4243 0.8853 0.086 Uiso 1 1 calc R . . . .
C00D C 0.8797(4) 0.5347(3) 0.6286(9) 0.0762(19) Uani 1 1 d . . . . .
H00D H 0.8994 0.5659 0.6590 0.091 Uiso 1 1 calc R . . . .
C00E C 0.8825(4) 0.4556(3) 0.5177(8) 0.0802(18) Uani 1 1 d . U . . .
H00E H 0.9039 0.4308 0.4715 0.096 Uiso 1 1 calc R . . . .
C00F C 0.8195(4) 0.5256(2) 0.6539(8) 0.0739(18) Uani 1 1 d . U . . .
H00F H 0.7993 0.5495 0.7052 0.089 Uiso 1 1 calc R . . . .
C00G C 0.6743(4) 0.3083(2) 0.7475(7) 0.0731(17) Uani 1 1 d . U . . .
H00G H 0.6515 0.2792 0.7099 0.088 Uiso 1 1 calc R . . . .
C00H C 0.9144(4) 0.5015(3) 0.5612(6) 0.0742(17) Uani 1 1 d . . . . .
C00I C 0.7525(4) 0.3493(3) 0.9195(7) 0.0809(19) Uani 1 1 d . U . . .
H00I H 0.7846 0.3488 0.9992 0.097 Uiso 1 1 calc R . . . .
C00J C 0.6270(5) 0.5667(3) 0.6858(6) 0.089(2) Uani 1 1 d D U . . .
H00J H 0.5823 0.5754 0.7027 0.106 Uiso 1 1 calc R . . A .
C00L C 0.9805(4) 0.5158(3) 0.5352(9) 0.085(2) Uani 1 1 d . U . . .
H00L H 0.9974 0.5478 0.5673 0.101 Uiso 1 1 calc R . . . .
C12 C 0.5901(6) 0.6806(6) 0.7138(15) 0.197(5) Uani 1 1 d . U . . .
H12 H 0.5510 0.6685 0.6619 0.236 Uiso 0.5 1 calc R . P B 1
C9 C 0.6492(7) 0.6547(4) 0.7093(13) 0.177(4) Uani 1 1 d DG U . . .
C10 C 0.7076(6) 0.6728(5) 0.7869(15) 0.179(4) Uani 1 1 d G U . . .
H10 H 0.7471 0.6554 0.7839 0.214 Uiso 1 1 calc R . . . .
C13 C 0.7071(6) 0.7169(6) 0.8690(14) 0.202(5) Uani 1 1 d G U . . .
H13 H 0.7462 0.7290 0.9209 0.243 Uiso 1 1 calc R . . . .
C14 C 0.6480(8) 0.7428(4) 0.8735(14) 0.212(5) Uani 1 1 d G U . . .
H14 H 0.6477 0.7723 0.9284 0.254 Uiso 1 1 calc R . . . .
C20 C 0.5896(6) 0.7247(5) 0.7959(16) 0.215(5) Uani 1 1 d G U . . .
H20 H 0.5501 0.7421 0.7990 0.258 Uiso 1 1 calc R . . . .
C0AA C 0.6457(7) 0.6069(4) 0.6259(13) 0.075(3) Uani 0.5 1 d D U P C 1
H0AB H 0.6155 0.6125 0.5391 0.090 Uiso 0.5 1 calc R . P C 1
H0AA H 0.6891 0.6002 0.6016 0.090 Uiso 0.5 1 calc R . P C 1
loop_
_atom_site_aniso_label
_atom_site_aniso_U_11
_atom_site_aniso_U_22
_atom_site_aniso_U_33
_atom_site_aniso_U_23
_atom_site_aniso_U_13
_atom_site_aniso_U_12
Zn01 0.1166(7) 0.0286(4) 0.0219(4) 0.00294(15) 0.0121(3) 0.0071(2)
O002 0.118(3) 0.047(2) 0.0244(15) -0.0006(13) 0.0069(18) 0.0197(19)
N003 0.103(3) 0.0306(18) 0.039(2) 0.0077(15) 0.019(2) 0.0099(19)
O004 0.157(4) 0.0449(19) 0.0211(15) 0.0020(13) 0.0142(19) 0.024(2)
N005 0.105(4) 0.047(2) 0.034(2) 0.0030(19) 0.010(2) 0.002(2)
C006 0.125(5) 0.028(2) 0.026(2) 0.0067(16) 0.012(2) 0.009(2)
C007 0.099(4) 0.059(3) 0.045(3) -0.008(2) 0.015(3) 0.006(3)
N008 0.131(5) 0.127(5) 0.033(3) -0.021(3) -0.015(3) 0.057(4)
C009 0.097(4) 0.039(2) 0.045(3) 0.0136(19) 0.017(2) 0.013(2)
C00A 0.121(5) 0.044(3) 0.060(3) 0.022(2) 0.004(3) 0.003(3)
C00B 0.104(4) 0.038(2) 0.047(3) 0.0173(19) 0.017(3) 0.010(2)
C00C 0.118(4) 0.045(3) 0.046(3) 0.015(2) -0.006(3) 0.003(3)
C00D 0.091(5) 0.073(5) 0.065(5) 0.002(3) 0.016(4) -0.012(3)
C00E 0.108(5) 0.078(4) 0.057(4) -0.011(3) 0.018(3) 0.013(4)
C00F 0.111(5) 0.057(3) 0.051(4) -0.002(2) 0.006(3) 0.010(3)
C00G 0.116(4) 0.039(2) 0.059(3) 0.014(2) -0.003(3) -0.002(3)
C00H 0.108(5) 0.077(4) 0.035(3) -0.001(3) 0.003(3) -0.004(4)
C00I 0.131(5) 0.060(3) 0.049(3) 0.019(3) 0.004(3) 0.005(3)
C00J 0.154(6) 0.079(4) 0.030(3) -0.003(3) 0.007(3) 0.048(4)
C00L 0.113(5) 0.071(4) 0.069(4) -0.014(3) 0.012(4) -0.003(4)
C12 0.203(7) 0.185(7) 0.204(7) -0.004(6) 0.037(6) 0.015(6)
C9 0.185(6) 0.170(6) 0.181(7) 0.017(6) 0.044(6) 0.012(6)
C10 0.192(6) 0.172(7) 0.178(7) 0.015(6) 0.049(6) -0.011(6)
C13 0.209(7) 0.201(7) 0.200(7) 0.011(6) 0.044(6) -0.007(6)
C14 0.219(7) 0.202(7) 0.212(7) 0.013(6) 0.031(6) 0.000(6)
C20 0.217(7) 0.207(7) 0.221(7) 0.000(6) 0.034(6) 0.004(6)
C0AA 0.098(7) 0.070(6) 0.057(6) 0.029(5) 0.015(5) 0.005(5)
loop_
_atom_type_symbol
_atom_type_description
_atom_type_scat_dispersion_real
_atom_type_scat_dispersion_imag
_atom_type_scat_source
C C 0.0033 0.0016 'International Tables Vol C Tables 4.2.6.8 and 6.1.1.4'
H H 0.0000 0.0000 'International Tables Vol C Tables 4.2.6.8 and 6.1.1.4'
N N 0.0061 0.0033 'International Tables Vol C Tables 4.2.6.8 and 6.1.1.4'
O O 0.0106 0.0060 'International Tables Vol C Tables 4.2.6.8 and 6.1.1.4'
Zn Zn 0.2839 1.4301 'International Tables Vol C Tables 4.2.6.8 and 6.1.1.4'
loop_
_geom_angle_atom_site_label_1
_geom_angle_atom_site_label_2
_geom_angle_atom_site_label_3
_geom_angle
_geom_angle_site_symmetry_1
_geom_angle_site_symmetry_3
N003 Zn01 O002 89.60(16) . .
O004 Zn01 O002 166.4(2) 6_565 .
O004 Zn01 N003 90.70(16) 6_565 .
O004 Zn01 N005 101.5(2) 6_565 .
N005 Zn01 O002 91.93(19) . .
N005 Zn01 N003 99.0(2) . .
N008 Zn01 O002 79.05(19) . .
N008 Zn01 N003 136.5(3) . .
N008 Zn01 O004 91.4(2) . 6_565
N008 Zn01 N005 123.0(3) . .
C006 O002 Zn01 113.4(3) . .
C00A N003 Zn01 124.1(4) . .
C00C N003 Zn01 119.6(4) . .
C00C N003 C00A 116.3(5) . .
C006 O004 Zn01 118.7(3) . 6_566
C007 N005 Zn01 120.6(5) . .
C007 N005 C00F 115.8(7) . .
C00F N005 Zn01 123.5(5) . .
O002 C006 O004 121.5(5) . .
O002 C006 C00J 118.6(5) . .
O004 C006 C00J 119.7(5) . .
N005 C007 H007 118.5 . .
N005 C007 C00E 123.0(6) . .
C00E C007 H007 118.5 . .
Zn01 N008 H008 123.8 . .
C00J N008 Zn01 112.4(5) . .
C00J N008 H008 123.8 . .
C00G C009 C00B 117.8(5) . .
C00I C009 C00B 125.2(6) . .
C00I C009 C00G 116.9(5) . .
N003 C00A H00A 118.4 . .
N003 C00A C00G 123.3(6) . .
C00G C00A H00A 118.4 . .
C009 C00B H00B 117.5 . .
C00B C00B C009 125.0(8) 7_657 .
C00B C00B H00B 117.5 7_657 .
N003 C00C H00C 117.4 . .
N003 C00C C00I 125.2(6) . .
C00I C00C H00C 117.4 . .
C00F C00D H00D 118.0 . .
C00F C00D C00H 124.0(7) . .
C00H C00D H00D 118.0 . .
C007 C00E H00E 120.1 . .
C007 C00E C00H 119.9(7) . .
C00H C00E H00E 120.1 . .
N005 C00F H00F 119.2 . .
C00D C00F N005 121.6(7) . .
C00D C00F H00F 119.2 . .
C009 C00G H00G 120.7 . .
C00A C00G C009 118.6(6) . .
C00A C00G H00G 120.7 . .
C00D C00H C00E 115.6(7) . .
C00D C00H C00L 119.7(7) . .
C00E C00H C00L 124.7(7) . .
C009 C00I C00C 119.4(6) . .
C009 C00I H00I 120.3 . .
C00C C00I H00I 120.3 . .
C006 C00J H00J 104.2 . .
N008 C00J C006 107.9(5) . .
N008 C00J H00J 104.2 . .
C0AA C00J C006 125.1(9) . .
C0AA C00J N008 109.2(8) . .
C0AA C00J H00J 104.2 . .
C00H C00L H00L 118.3 . .
C00L C00L C00H 123.5(9) 5_766 .
C00L C00L H00L 118.3 5_766 .
C9 C12 H12 120.0 . .
C9 C12 C20 120.0 . .
C20 C12 H12 120.0 . .
C12 C9 C0AA 117.1(12) . .
C10 C9 C12 120.0 . .
C10 C9 C0AA 122.8(12) . .
C9 C10 H10 120.0 . .
C9 C10 C13 120.0 . .
C13 C10 H10 120.0 . .
C10 C13 H13 120.0 . .
C10 C13 C14 120.0 . .
C14 C13 H13 120.0 . .
C13 C14 H14 120.0 . .
C13 C14 C20 120.0 . .
C20 C14 H14 120.0 . .
C12 C20 H20 120.0 . .
C14 C20 C12 120.0 . .
C14 C20 H20 120.0 . .
C00J C0AA C9 115.3(10) . .
C00J C0AA H0AB 108.4 . .
C00J C0AA H0AA 108.4 . .
C9 C0AA H0AB 108.4 . .
C9 C0AA H0AA 108.4 . .
H0AB C0AA H0AA 107.5 . .
loop_
_geom_bond_atom_site_label_1
_geom_bond_atom_site_label_2
_geom_bond_distance
_geom_bond_site_symmetry_2
Zn01 O002 2.141(3) .
Zn01 N003 2.065(4) .
Zn01 O004 2.056(3) 6_565
Zn01 N005 2.064(6) .
Zn01 N008 2.038(6) .
O002 C006 1.257(7) .
N003 C00A 1.326(8) .
N003 C00C 1.319(8) .
O004 Zn01 2.056(3) 6_566
O004 C006 1.260(6) .
N005 C007 1.339(8) .
N005 C00F 1.374(10) .
C006 C00J 1.507(7) .
C007 H007 0.9300 .
C007 C00E 1.369(11) .
N008 H008 0.8600 .
N008 C00J 1.471(9) .
C009 C00B 1.458(6) .
C009 C00G 1.411(9) .
C009 C00I 1.366(9) .
C00A H00A 0.9300 .
C00A C00G 1.393(7) .
C00B C00B 1.321(12) 7_657
C00B H00B 0.9300 .
C00C H00C 0.9300 .
C00C C00I 1.366(8) .
C00D H00D 0.9300 .
C00D C00F 1.316(13) .
C00D C00H 1.348(11) .
C00E H00E 0.9300 .
C00E C00H 1.388(11) .
C00F H00F 0.9300 .
C00G H00G 0.9300 .
C00H C00L 1.464(12) .
C00I H00I 0.9300 .
C00J H00J 0.9800 .
C00J C0AA 1.278(12) .
C00L C00L 1.393(16) 5_766
C00L H00L 0.9300 .
C12 H12 0.9300 .
C12 C9 1.3900 .
C12 C20 1.3900 .
C9 C10 1.3900 .
C9 C0AA 1.470(13) .
C10 H10 0.9300 .
C10 C13 1.3900 .
C13 H13 0.9300 .
C13 C14 1.3900 .
C14 H14 0.9300 .
C14 C20 1.3900 .
C20 H20 0.9300 .
C0AA H0AB 0.9700 .
C0AA H0AA 0.9700 .
loop_
_geom_torsion_atom_site_label_1
_geom_torsion_atom_site_label_2
_geom_torsion_atom_site_label_3
_geom_torsion_atom_site_label_4
_geom_torsion
_geom_torsion_site_symmetry_1
_geom_torsion_site_symmetry_4
Zn01 O002 C006 O004 170.5(5) . .
Zn01 O002 C006 C00J -15.4(8) . .
Zn01 N003 C00A C00G 177.3(6) . .
Zn01 N003 C00C C00I -175.2(6) . .
Zn01 O004 C006 O002 -15.5(9) 6_566 .
Zn01 O004 C006 C00J 170.5(6) 6_566 .
Zn01 N005 C007 C00E 174.1(5) . .
Zn01 N005 C00F C00D -173.1(6) . .
Zn01 N008 C00J C006 -30.5(9) . .
Zn01 N008 C00J C0AA 108.4(9) . .
O002 C006 C00J N008 30.6(10) . .
O002 C006 C00J C0AA -100.0(11) . .
N003 C00A C00G C009 2.7(12) . .
N003 C00C C00I C009 -6.6(13) . .
O004 C006 C00J N008 -155.2(7) . .
O004 C006 C00J C0AA 74.2(12) . .
N005 C007 C00E C00H 1.3(11) . .
C006 C00J C0AA C9 -57.9(16) . .
C007 N005 C00F C00D 5.0(10) . .
C007 C00E C00H C00D 0.7(10) . .
C007 C00E C00H C00L -177.5(7) . .
N008 C00J C0AA C9 172.0(11) . .
C00A N003 C00C C00I 6.6(11) . .
C00B C009 C00G C00A -179.6(6) . .
C00B C009 C00I C00C -178.9(7) . .
C00C N003 C00A C00G -4.6(11) . .
C00D C00H C00L C00L -179.2(10) . 5_766
C00E C00H C00L C00L -1.0(15) . 5_766
C00F N005 C007 C00E -4.1(10) . .
C00F C00D C00H C00E 0.2(12) . .
C00F C00D C00H C00L 178.5(8) . .
C00G C009 C00B C00B 176.2(8) . 7_657
C00G C009 C00I C00C 4.0(11) . .
C00H C00D C00F N005 -3.2(13) . .
C00I C009 C00B C00B -0.8(12) . 7_657
C00I C009 C00G C00A -2.3(10) . .
C12 C9 C10 C13 0.0 . .
C12 C9 C0AA C00J -79.8(13) . .
C9 C12 C20 C14 0.0 . .
C9 C10 C13 C14 0.0 . .
C10 C9 C0AA C00J 97.1(14) . .
C10 C13 C14 C20 0.0 . .
C13 C14 C20 C12 0.0 . .
C20 C12 C9 C10 0.0 . .
C20 C12 C9 C0AA 177.1(11) . .
C0AA C9 C10 C13 -176.9(11) . .
loop_
_smtbx_masks_void_nr
_smtbx_masks_void_average_x
_smtbx_masks_void_average_y
_smtbx_masks_void_average_z
_smtbx_masks_void_volume
_smtbx_masks_void_count_electrons
1 0.000 0.000 -0.065 932.6 296.4
2 0.500 0.500 -0.410 932.6 296.4
