#------------------------------------------------------------------------------
#$Date: 2019-09-25 12:22:59 +0300 (Wed, 25 Sep 2019) $
#$Revision: 218826 $
#$URL: file:///home/coder/svn-repositories/cod/cif/7/12/42/7124223.cif $
#------------------------------------------------------------------------------
#
# This file is available in the Crystallography Open Database (COD),
# http://www.crystallography.net/
#
# All data on this site have been placed in the public domain by the
# contributors.
#
data_7124223
loop_
_publ_author_name
'Drake, Hannah'
'Day, Gregory S.'
'Vali, Shaik Waseem'
'Xiao, Zhifeng'
'Banerjee, Sayan'
'Li, Jialuo'
'Joseph, Elizabeth'
'Kuszynski, Jason E.'
'Perry, Zachary'
'Kirchon, Angelo'
'Ozdemir, Osman'
'Lindahl, Paul'
'Zhou, Hong-Cai'
_publ_section_title
;
 The Thermally Induced Decarboxylation Mechanism of a Mixed-Oxidation
 State Carboxylate-Based Iron Metal-Organic Framework
;
_journal_name_full               'Chemical Communications'
_journal_paper_doi               10.1039/C9CC04555D
_journal_year                    2019
_chemical_formula_moiety         'C48 H29.639 Fe6 N6 O31.82'
_chemical_formula_sum            'C48 H29.64 Fe6 N6 O31.82'
_chemical_formula_weight         1534.64
_chemical_name_common            PCN-250
_chemical_name_systematic
'catena-[hexakis(m-5,5'-((E)-diazenediyl)bis(benzene-1,3-dicarboxylato))-tetrakis(m-oxo)-dodeca-aqua-dodeca-iron unknown solvate]'
_space_group_crystal_system      cubic
_space_group_IT_number           218
_space_group_name_Hall           'P -4n 2 3'
_space_group_name_H-M_alt        'P -4 3 n'
_symmetry_space_group_name_Hall  'P -4n 2 3'
_symmetry_space_group_name_H-M   'P -4 3 n'
_atom_sites_solution_hydrogens   mixed
_audit_creation_date             2019-09-08
_audit_creation_method
;
Olex2 1.3-alpha
(compiled 2019.08.16 svn.r3652 for OlexSys, GUI svn.r5895)
;
_audit_update_record
;
2019-09-12 deposited with the CCDC.    2019-09-23 downloaded from the CCDC.
;
_cell_angle_alpha                90
_cell_angle_beta                 90
_cell_angle_gamma                90
_cell_formula_units_Z            4
_cell_length_a                   21.9389(7)
_cell_length_b                   21.9389(7)
_cell_length_c                   21.9389(7)
_cell_measurement_reflns_used    9472
_cell_measurement_temperature    200.0
_cell_measurement_theta_max      28
_cell_measurement_theta_min      0.5
_cell_volume                     10559.5(6)
_computing_molecular_graphics    'Olex2 1.3-alpha (Dolomanov et al., 2009)'
_computing_publication_material  'Olex2 1.3-alpha (Dolomanov et al., 2009)'
_computing_structure_refinement  'ShelXL 2018/3 (Sheldrick, 2015)'
_diffrn_ambient_temperature      200.0
_diffrn_measured_fraction_theta_full 0.994
_diffrn_measured_fraction_theta_max 0.995
_diffrn_measurement_device_type  'Bruker P4'
_diffrn_measurement_method       '\w scans'
_diffrn_radiation_monochromator  graphite
_diffrn_radiation_type           Synchrotron
_diffrn_radiation_wavelength     0.7288
_diffrn_reflns_av_R_equivalents  0.1112
_diffrn_reflns_av_unetI/netI     0.0343
_diffrn_reflns_Laue_measured_fraction_full 0.994
_diffrn_reflns_Laue_measured_fraction_max 0.995
_diffrn_reflns_limit_h_max       28
_diffrn_reflns_limit_h_min       -28
_diffrn_reflns_limit_k_max       28
_diffrn_reflns_limit_k_min       -28
_diffrn_reflns_limit_l_max       28
_diffrn_reflns_limit_l_min       -28
_diffrn_reflns_number            104626
_diffrn_reflns_point_group_measured_fraction_full 0.995
_diffrn_reflns_point_group_measured_fraction_max 0.995
_diffrn_reflns_theta_full        25.930
_diffrn_reflns_theta_max         28.268
_diffrn_reflns_theta_min         1.346
_diffrn_source                   'Advanced Light Source, Beamline 12.2.1'
_exptl_absorpt_coefficient_mu    0.913
_exptl_absorpt_correction_type   multi-scan
_exptl_crystal_colour            'clear dark red'
_exptl_crystal_colour_lustre     clear
_exptl_crystal_colour_modifier   dark
_exptl_crystal_colour_primary    red
_exptl_crystal_density_diffrn    0.965
_exptl_crystal_description       block
_exptl_crystal_F_000             3081
_exptl_crystal_size_max          0.1
_exptl_crystal_size_mid          0.05
_exptl_crystal_size_min          0.05
_refine_diff_density_max         0.326
_refine_diff_density_min         -0.189
_refine_diff_density_rms         0.051
_refine_ls_abs_structure_details
;
 Refined as an inversion twin.
;
_refine_ls_abs_structure_Flack   0.007(19)
_refine_ls_extinction_coef       0.0044(4)
_refine_ls_extinction_expression Fc^*^=kFc[1+0.001xFc^2^\l^3^/sin(2\q)]^-1/4^
_refine_ls_extinction_method     'SHELXL-2018/3 (Sheldrick 2018)'
_refine_ls_goodness_of_fit_ref   1.088
_refine_ls_hydrogen_treatment    constr
_refine_ls_matrix_type           full
_refine_ls_number_parameters     143
_refine_ls_number_reflns         4054
_refine_ls_number_restraints     0
_refine_ls_restrained_S_all      1.088
_refine_ls_R_factor_all          0.0309
_refine_ls_R_factor_gt           0.0263
_refine_ls_shift/su_max          0.001
_refine_ls_shift/su_mean         0.000
_refine_ls_structure_factor_coef Fsqd
_refine_ls_weighting_details
'w=1/[\s^2^(Fo^2^)+(0.0455P)^2^] where P=(Fo^2^+2Fc^2^)/3'
_refine_ls_weighting_scheme      calc
_refine_ls_wR_factor_gt          0.0716
_refine_ls_wR_factor_ref         0.0739
_reflns_Friedel_coverage         0.851
_reflns_Friedel_fraction_full    0.997
_reflns_Friedel_fraction_max     0.996
_reflns_number_gt                3680
_reflns_number_total             4054
_reflns_threshold_expression     'I > 2\s(I)'
_cod_data_source_file            c9cc04555d2.cif
_cod_data_source_block           pcn-250_beforeactivation
_cod_original_cell_volume        10559.5(10)
_cod_database_code               7124223
_shelx_shelxl_version_number     2018/3
_shelx_space_group_comment
;
The symmetry employed for this shelxl refinement is uniquely defined
by the following loop, which should always be used as a source of
symmetry information in preference to the above space-group names.
They are only intended as comments.
;
_shelx_estimated_absorpt_t_max   0.956
_shelx_estimated_absorpt_t_min   0.914
_olex2_refinement_description
;
1. Twinned data refinement
 Scales: 0.99276
 0.00724
2. Others
 Sof(O6)=Sof(H6A)=Sof(H6B)=FVAR(1)
3.a Rotating group:
 O6(H6A,H6B)
3.b Aromatic/amide H refined with riding coordinates:
 C4(H4), C6(H6), C8(H8)
;
_shelx_res_file
;
TITL Data_0m in P-43n #218
    pcn-250_beforeactivation_sq.res
    created by SHELXL-2018/3 at 20:21:59 on 08-Sep-2019
REM reset to P-43n #218
CELL 0.7288 21.9389 21.9389 21.9389 90 90 90
ZERR 4 0.0007 0.0007 0.0007 0 0 0
LATT -1
SYMM 0.5+Y,0.5-X,0.5-Z
SYMM -X,-Y,+Z
SYMM 0.5-Y,0.5+X,0.5-Z
SYMM 0.5-X,0.5+Z,0.5-Y
SYMM +X,-Y,-Z
SYMM 0.5-X,0.5-Z,0.5+Y
SYMM 0.5-Z,0.5-Y,0.5+X
SYMM -X,+Y,-Z
SYMM 0.5+Z,0.5-Y,0.5-X
SYMM +Z,+X,+Y
SYMM +Y,+Z,+X
SYMM -Y,-Z,+X
SYMM +Z,-X,-Y
SYMM -Y,+Z,-X
SYMM -Z,-X,+Y
SYMM -Z,+X,-Y
SYMM +Y,-Z,-X
SYMM 0.5-Y,0.5-X,0.5+Z
SYMM 0.5+Y,0.5+X,0.5+Z
SYMM 0.5+X,0.5-Z,0.5-Y
SYMM 0.5+X,0.5+Z,0.5+Y
SYMM 0.5-Z,0.5+Y,0.5-X
SYMM 0.5+Z,0.5+Y,0.5+X
SFAC C H Fe N O
DISP C 0.0037 0.0017 12.0457
DISP Fe 0.3621 0.8896 3712.4999
DISP H -0 0 0.6249
DISP N 0.007 0.0034 20.6663
DISP O 0.0123 0.0065 34.424
UNIT 192 118.56 24 24 127.28

L.S. 5 0 47
PLAN  20
SIZE 0.05 0.05 0.1
TEMP -73.15
ABIN
fmap 2
acta
TWIN -1 0 0 0 -1 0 0 0 -1 2
OMIT 0 0 2
OMIT 0 1 2
OMIT 1 1 2
OMIT -1 1 2
OMIT 2 2 4
OMIT -2 2 4
OMIT -3 4 5
REM <olex2.extras>
REM <HklSrc "%.\\PCN-250_BeforeActivation_sq.hkl">
REM </olex2.extras>

WGHT    0.045500
EXTI    0.004383
BASF   0.00724
FVAR       0.07647   0.96994
FE1   3    0.739955    0.319903    0.196318    11.00000    0.01237    0.01837 =
         0.02009    0.00169    0.00031    0.00100
O1    5    0.740627    0.259373    0.259373    10.33333    0.01516    0.01516 =
         0.01516    0.00118   -0.00118   -0.00118
O4    5    1.107755    0.255487    0.248997    11.00000    0.01651    0.04327 =
         0.02963    0.00482   -0.00016    0.00080
O5    5    1.149402    0.296183    0.165911    11.00000    0.01392    0.05053 =
         0.03329    0.00879   -0.00390    0.00002
O3    5    0.874936    0.273662    0.262352    11.00000    0.01590    0.04881 =
         0.02744    0.00576   -0.00020   -0.00072
O2    5    0.829559    0.313007    0.180828    11.00000    0.01488    0.05377 =
         0.03403    0.01416    0.00382    0.00485
C1    1    0.875146    0.293048    0.209072    11.00000    0.01213    0.03040 =
         0.02601   -0.00490    0.00254    0.00117
C2    1    1.105218    0.279165    0.197513    11.00000    0.01198    0.02776 =
         0.02686   -0.00503   -0.00243    0.00173
C3    1    1.043221    0.287517    0.168909    11.00000    0.01219    0.04688 =
         0.02596   -0.00349   -0.00366    0.00134
C4    1    1.040509    0.296311    0.106862    11.00000    0.01410    0.09548 =
         0.02615    0.00016    0.00332    0.00415
AFIX  43
H4    2    1.076878    0.297894    0.083413    11.00000   -1.20000
AFIX   0
C6    1    0.931408    0.303361    0.112722    11.00000    0.01275    0.10412 =
         0.02737   -0.00067   -0.00096    0.00623
AFIX  43
H6    2    0.893258    0.310081    0.093371    11.00000   -1.20000
AFIX   0
C8    1    0.990153    0.284633    0.202943    11.00000    0.01679    0.03934 =
         0.02404   -0.00484   -0.00407    0.00052
AFIX  43
H8    2    0.992064    0.276205    0.245374    11.00000   -1.20000
AFIX   0
C7    1    0.933929    0.294102    0.174924    11.00000    0.01167    0.04794 =
         0.02744   -0.00417    0.00087    0.00261
C5    1    0.984060    0.302860    0.078795    11.00000    0.01614    0.12963 =
         0.02380    0.00655   -0.00207    0.00580
O6    5    0.738034    0.384958    0.129476    21.00000    0.03778    0.03680 =
         0.03789    0.02193   -0.00913   -0.00312
AFIX   7
H6A   2    0.758949    0.424265    0.128673    21.00000   -1.50000
H6B   2    0.716360    0.384660    0.090498    21.00000   -1.50000
AFIX   0
N1    4    0.976706    0.307103    0.013964    11.00000    0.01906    0.17543 =
         0.02130   -0.00027    0.00005    0.00384
HKLF 4




REM  Data_0m in P-43n #218
REM wR2 = 0.0739, GooF = S = 1.088, Restrained GooF = 1.088 for all data
REM R1 = 0.0263 for 3680 Fo > 4sig(Fo) and 0.0309 for all 4054 data
REM 143 parameters refined using 0 restraints

END

WGHT      0.0455      0.0000

REM Highest difference peak  0.326,  deepest hole -0.189,  1-sigma level  0.051
Q1    1   0.7069  0.4244  0.1212  11.00000  0.05    0.33
Q2    1   1.1805  0.2351  0.1815  11.00000  0.05    0.24
Q3    1   0.7296  0.2468  0.2595  11.00000  0.05    0.23
Q4    1   0.8512  0.1488  0.1488  10.33333  0.05    0.19
Q5    1   0.8306  0.1695  0.1695  10.33333  0.05    0.19
Q6    1   0.8040  0.2516  0.1996  11.00000  0.05    0.17
Q7    1   1.1394  0.2419  0.2564  11.00000  0.05    0.17
Q8    1   0.9916  0.2304  0.2374  11.00000  0.05    0.16
Q9    1   1.1402  0.1597  0.1367  11.00000  0.05    0.16
Q10   1   0.9103  0.2879  0.2571  11.00000  0.05    0.16
Q11   1   0.8772  0.2522  0.2435  11.00000  0.05    0.16
Q12   1   1.1612  0.1612  0.1612  10.33333  0.05    0.16
Q13   1   1.1133  0.2405  0.2546  11.00000  0.05    0.16
Q14   1   1.1558  0.3101  0.1872  11.00000  0.05    0.15
Q15   1   1.1238  0.2625  0.1214  11.00000  0.05    0.14
Q16   1   1.1262  0.1521  0.1183  11.00000  0.05    0.14
Q17   1   0.8829  0.2993  0.1962  11.00000  0.05    0.14
Q18   1   1.1352  0.1636  0.1192  11.00000  0.05    0.14
Q19   1   0.9023  0.2926  0.1941  11.00000  0.05    0.14
Q20   1   1.0804  0.2801  0.2460  11.00000  0.05    0.14
;
_shelx_res_checksum              32262
_shelx_fab_file
;
    0    1    1     29.07      0.19
    0    1    3   -139.01     -0.02
    1    2    3    -11.45      7.96
    0    2    3    -94.29     -0.02
    2    3    3     29.37     -5.65
    0    3    3     42.84     -0.31
    1    1    4    -28.42     -6.74
    0    1    4    -61.82      0.05
    1    2    4      1.49     -9.30
    0    2    4    -60.13      0.53
    3    3    4    -24.05     13.20
    2    3    4    -13.92     10.74
    1    3    4     13.11     -2.18
    0    3    4     22.69     -0.19
    4    4    4     -6.85    -36.04
    2    4    4     49.07     -0.24
    0    4    4      9.90      0.34
    1    2    5    -28.95    -19.69
    0    2    5     22.67     -0.16
    2    3    5     11.86    -10.47
    1    3    5    -64.42     -0.26
    2    4    5    -10.06    -15.78
    1    4    5    -19.09      6.95
    0    4    5    -10.45     -0.01
    3    4    5     -1.45     15.97
    4    5    5    -49.56      7.16
    2    5    5    -21.18      2.31
    0    5    5     -8.17     -0.17
    0    0    6     66.06      0.58
    1    1    6     11.71      1.82
    0    1    6    -36.74      0.00
    2    2    6     11.47     11.07
    1    2    6    -22.39      3.84
    0    2    6     -6.17      0.04
    3    3    6     -4.74     -4.86
    2    3    6     -3.65     -9.97
    1    3    6     -2.99      0.49
    4    4    6      1.21     -8.71
    3    4    6      0.12     19.17
    2    4    6    -16.45      8.19
    1    4    6     16.31     12.83
    0    4    6    -30.74      0.03
    5    5    6     12.06    -19.60
    4    5    6     20.85     -7.03
    3    5    6     16.70    -11.25
    2    5    6      4.70     -0.14
    1    5    6     15.89     -2.60
    0    5    6      5.18      0.07
    6    6    6     11.28     24.29
    4    6    6     15.13      5.23
    2    6    6    -24.77     -3.14
    0    6    6     39.49      0.44
    0    1    7    110.38     -0.28
    1    2    7      1.05      7.94
    0    2    7     67.60     -0.54
    2    3    7    -17.49      4.42
    1    3    7     18.93      4.00
    0    3    7    -69.60     -0.33
    3    4    7     45.69     -1.10
    2    4    7    -24.61     -0.15
    1    4    7     -1.93     -3.27
    0    4    7     -1.85     -0.10
    4    5    7     -2.45      7.79
    3    5    7    -35.16      5.83
    2    5    7     -3.28     -8.74
    1    5    7     -3.20     -0.15
    0    5    7    -34.21      0.59
    5    6    7      0.03     -0.04
    4    6    7    -11.64      1.97
    3    6    7    -14.98     -6.16
    2    6    7     -4.69     -1.37
    1    6    7     -9.73     -3.05
    0    6    7      5.49      0.74
    6    7    7    -11.78      0.88
    4    7    7    -21.67     -5.93
    2    7    7     16.92     -0.62
    0    7    7     13.84      2.20
    0    0    8     30.03      0.24
    1    1    8    -11.01     13.98
    0    1    8    -44.59      0.15
    2    2    8     32.42     10.99
    1    2    8      3.84     -3.88
    0    2    8      5.08     -0.07
    3    3    8    -19.90      5.66
    2    3    8      8.15     15.90
    1    3    8      3.44      4.95
    0    3    8     34.84     -0.18
    4    4    8     23.18     -3.67
    3    4    8    -17.44     -4.70
    2    4    8     -3.07     -5.67
    1    4    8     21.20      5.55
    0    4    8    -31.17     -0.45
    5    5    8      5.29     10.31
    4    5    8     -0.10      2.21
    3    5    8      7.23      5.94
    2    5    8     -3.77     15.02
    1    5    8     16.84     -7.96
    0    5    8     14.25     -0.28
    6    6    8    -10.94      0.67
    5    6    8     27.86     10.77
    4    6    8     26.43     -4.13
    3    6    8    -17.43      3.46
    2    6    8    -16.57    -11.13
    1    6    8      0.73      3.70
    0    6    8     -2.36     -0.68
    7    7    8     -3.16      7.06
    6    7    8    -19.39     -8.74
    5    7    8     -8.39     -0.61
    4    7    8      0.97     -9.60
    3    7    8     -3.52     -2.69
    2    7    8     -0.02      7.55
    1    7    8     10.44     -2.61
    0    7    8      6.30     -1.07
    8    8    8     36.19    -10.57
    6    8    8    -16.99     -3.42
    4    8    8     18.04      3.14
    2    8    8     -1.57      6.30
    0    8    8    -11.07      0.02
    0    1    9     45.84      0.10
    1    2    9     -1.88      5.07
    0    2    9      1.94     -0.45
    2    3    9    -14.43      2.80
    1    3    9      2.99      1.69
    0    3    9    -19.11      0.44
    3    4    9      7.93     -3.92
    2    4    9      4.08      3.03
    1    4    9     -3.94     -2.41
    0    4    9     -0.54     -0.14
    4    5    9      3.93      5.59
    3    5    9     -8.31      5.07
    2    5    9      8.73     -4.06
    1    5    9     -0.79     -2.11
    0    5    9      5.26     -0.12
    5    6    9      8.95      7.22
    4    6    9      2.62     -8.07
    3    6    9     -0.72      3.29
    2    6    9     10.33     -2.51
    1    6    9      2.85      5.69
    0    6    9      0.35      1.33
    6    7    9     -9.39     -2.71
    5    7    9    -11.35      7.42
    4    7    9     -9.85     -6.82
    3    7    9      6.03      2.86
    2    7    9      6.51      6.38
    1    7    9    -17.03      0.13
    0    7    9      3.62      0.68
    7    8    9      2.70     -6.03
    6    8    9      7.36     -4.98
    5    8    9     -6.55     -4.71
    4    8    9     -2.99      2.67
    3    8    9    -10.13     -7.58
    2    8    9      2.36     -2.40
    1    8    9     11.60     -2.69
    0    8    9    -11.74      2.90
    8    9    9      1.55      3.32
    6    9    9      2.88     -3.33
    4    9    9    -12.09     -3.30
    2    9    9     -6.28     11.50
    0    9    9      6.76      1.31
    0    0   10    -41.81     -0.42
    1    1   10    -32.89     -2.17
    0    1   10     20.96      0.26
    2    2   10     18.62     -2.26
    1    2   10    -12.63     -1.12
    0    2   10     -4.99      0.17
    3    3   10     -5.04     -1.63
    2    3   10    -18.84     -8.63
    1    3   10     24.23     -5.88
    0    3   10     19.16     -0.11
    4    4   10    -37.99      7.73
    3    4   10     13.87     -2.94
    2    4   10     -0.49      9.08
    1    4   10      2.28      1.57
    0    4   10     19.70     -0.81
    5    5   10    -11.26     -8.74
    4    5   10     -3.52      0.25
    3    5   10      0.02      4.73
    2    5   10      0.43     -5.50
    1    5   10    -16.11     -0.45
    0    5   10      7.20     -0.63
    6    6   10      1.73     -9.43
    5    6   10      2.90     -0.08
    4    6   10      6.68     -4.94
    3    6   10     -3.80      0.79
    2    6   10      3.04      1.04
    1    6   10     -8.42      6.13
    0    6   10      9.66     -3.20
    7    7   10     -1.67      2.90
    6    7   10      9.91     -0.36
    5    7   10      9.80     -4.68
    4    7   10     -1.95     -1.43
    3    7   10     33.56      2.73
    2    7   10      2.94      1.82
    1    7   10     -9.90      4.73
    0    7   10     -2.84     -0.33
    8    8   10      7.01     -1.69
    7    8   10     -3.81      4.50
    6    8   10     -9.04      2.52
    5    8   10     -1.55     -1.57
    4    8   10     -1.22      7.40
    3    8   10     11.75     -0.30
    2    8   10      5.77      3.00
    1    8   10      6.69      0.15
    0    8   10      0.74     -0.62
    9    9   10      3.79      1.53
    8    9   10     -1.57    -11.80
    7    9   10      6.70     -3.94
    6    9   10      3.95      3.25
    5    9   10      0.15      1.92
    4    9   10     -7.22      3.76
    3    9   10      2.22      2.70
    2    9   10     -6.52     -3.67
    1    9   10     -0.74      2.58
    0    9   10     -0.15     -0.68
   10   10   10    -14.94     -0.18
    8   10   10      0.01      3.94
    6   10   10      3.16      6.25
    4   10   10    -27.32      2.14
    2   10   10     -5.61     -6.04
    0   10   10     13.93      0.52
    0    1   11    -20.17      0.18
    1    2   11     -4.13     -1.58
    0    2   11    -18.88     -0.18
    2    3   11     18.21      0.07
    1    3   11     -1.26     -1.59
    0    3   11     12.89      0.57
    3    4   11      0.27     -0.64
    2    4   11     11.14     -0.68
    1    4   11     -9.54      2.56
    0    4   11      7.89      0.04
    4    5   11    -11.17     -2.25
    3    5   11      1.14     -1.47
    2    5   11      3.67     -1.91
    1    5   11      1.81     -3.56
    0    5   11      3.62      0.04
    5    6   11     -0.55     -2.61
    4    6   11     -1.25     -5.26
    3    6   11      2.57     -0.53
    2    6   11     -5.35      2.83
    1    6   11      3.10      6.91
    0    6   11     -4.42      0.51
    6    7   11     -1.74      5.18
    5    7   11     -8.48     -0.15
    4    7   11      8.75     -0.92
    3    7   11      7.13     -3.84
    2    7   11      0.70     -0.10
    1    7   11     -9.75     -0.70
    0    7   11    -15.39     -0.21
    7    8   11     -1.57     -0.77
    6    8   11      6.53     -5.67
    5    8   11      3.34      1.14
    4    8   11     -4.03      5.26
    3    8   11     -3.03     -2.33
    2    8   11     -1.04     -1.01
    1    8   11     -0.59     -0.82
    0    8   11      4.34      1.05
    8    9   11     -9.71      4.23
    7    9   11      0.18     -3.41
    6    9   11      5.50      1.56
    5    9   11     -3.23      0.31
    4    9   11      5.96     -0.28
    3    9   11     -0.95      0.02
    2    9   11     -0.36      2.69
    1    9   11      1.45      0.54
    0    9   11     -3.52      0.00
    9   10   11     -2.10      2.43
    8   10   11     -1.27      3.52
    7   10   11      3.10     -1.47
    6   10   11     -0.40     -4.99
    5   10   11     -6.15     -5.73
    4   10   11      1.07      0.77
    3   10   11     -1.76      1.46
    2   10   11      2.19      0.20
    1   10   11     -3.72      5.48
    0   10   11      3.50      0.36
   10   11   11     -1.08     -4.98
    8   11   11     -0.43      6.07
    6   11   11     -2.63     -1.63
    4   11   11     -4.17      0.85
    2   11   11      5.51      0.54
    0   11   11     -2.69     -0.36
    0    0   12      6.30     -0.05
    1    1   12     -6.76      4.30
    0    1   12     -3.39      0.21
    2    2   12     -6.34     -6.97
    1    2   12      1.74     -3.00
    0    2   12    -10.15     -0.03
    3    3   12    -19.45     10.11
    2    3   12     -9.13     -7.48
    1    3   12      3.77      1.80
    0    3   12      0.98      0.14
    4    4   12    -10.77     -0.40
    3    4   12      1.71     -4.64
    2    4   12      8.71     -0.78
    1    4   12    -11.85      0.83
    0    4   12     18.02     -0.28
    5    5   12     -7.69     -8.55
    4    5   12      3.21      2.34
    3    5   12      1.43      5.87
    2    5   12     13.73     -2.11
    1    5   12      4.17      0.35
    0    5   12     -8.83     -0.07
    6    6   12      6.98      1.84
    5    6   12      4.13     -4.07
    4    6   12     -0.37      0.27
    3    6   12      2.99      0.00
    2    6   12     -9.70     -1.57
    1    6   12      2.43      5.60
    0    6   12    -12.86     -0.93
    7    7   12     -4.26      1.92
    6    7   12     -4.09      2.77
    5    7   12      2.79     -6.06
    4    7   12    -13.33     -0.76
    3    7   12      6.54     -4.41
    2    7   12      3.25     -0.15
    1    7   12     -4.71     -0.42
    0    7   12    -14.08     -0.60
    8    8   12     -3.70     -1.76
    7    8   12      6.25     -4.64
    6    8   12     -0.38      3.45
    5    8   12     -3.85     -5.32
    4    8   12      3.19      4.06
    3    8   12     -1.34      2.11
    2    8   12     -2.54     -0.15
    1    8   12     -4.08     -0.58
    0    8   12    -11.37      0.29
    9    9   12     -0.22     -4.48
    8    9   12      0.67      1.85
    7    9   12     -3.48      2.42
    6    9   12      2.88      2.24
    5    9   12      1.65      7.70
    4    9   12     -1.51      1.02
    3    9   12     -3.28     -0.16
    2    9   12      6.75     -8.75
    1    9   12      3.20     -2.96
    0    9   12      5.24     -0.24
   10   10   12      2.52     -4.70
    9   10   12     -2.83     -2.19
    8   10   12      2.51     -1.92
    7   10   12      4.92      3.55
    6   10   12      8.87     -0.95
    5   10   12      1.45      2.60
    4   10   12      2.52     -0.04
    3   10   12      3.42      4.23
    2   10   12      7.17     -0.04
    1   10   12      3.95     -0.34
    0   10   12     16.21      0.20
   11   11   12      0.14     -2.50
   10   11   12      1.90      0.82
    9   11   12      3.74      0.80
    8   11   12      3.90     -0.39
    7   11   12      3.59      3.92
    6   11   12     -3.18     -0.92
    5   11   12      1.10     -0.89
    4   11   12      2.32     -3.12
    3   11   12      3.59     -1.66
    2   11   12      6.70     -1.33
    1   11   12      7.03     -0.99
    0   11   12      1.53      0.14
   12   12   12     -7.42     -0.10
   10   12   12      2.06      1.13
    8   12   12     -2.42      0.92
    6   12   12     -4.84     -4.01
    4   12   12     -3.28      0.44
    2   12   12     -3.98      1.58
    0   12   12      5.52     -0.36
    0    1   13    -10.00     -0.12
    1    2   13      7.93      4.34
    0    2   13    -11.37     -0.72
    2    3   13      6.62      6.01
    1    3   13      7.60     -0.76
    0    3   13    -11.86      0.26
    3    4   13      3.78     -3.28
    2    4   13      1.08      0.90
    1    4   13     -2.43     -2.34
    0    4   13      3.32      0.22
    4    5   13      0.57      1.77
    3    5   13     -7.86      0.70
    2    5   13     -0.46     -0.49
    1    5   13      4.14     -2.06
    0    5   13     -2.46      0.34
    5    6   13     -1.50     -0.14
    4    6   13      9.51     -2.43
    3    6   13    -11.55    -10.09
    2    6   13     -5.62      5.03
    1    6   13      0.13     -5.85
    0    6   13      0.70      0.01
    6    7   13      0.07      5.55
    5    7   13      2.91     -0.36
    4    7   13      4.34      0.03
    3    7   13      2.61      0.37
    2    7   13      0.42     -0.99
    1    7   13      5.42     -0.22
    0    7   13      2.22      0.05
    7    8   13      6.60      2.25
    6    8   13     -6.75     -1.11
    5    8   13      6.15      6.50
    4    8   13      0.41      1.96
    3    8   13     -6.00      0.03
    2    8   13     -1.75      0.66
    1    8   13      0.53     -3.70
    0    8   13      2.29     -0.35
    8    9   13     -0.98     -3.03
    7    9   13     -3.16      1.32
    6    9   13     -1.04     -5.64
    5    9   13      0.58      1.17
    4    9   13      3.04     -5.98
    3    9   13     -4.32      0.98
    2    9   13     -0.92      1.93
    1    9   13      1.79      0.12
    0    9   13     -1.45     -0.17
    9   10   13      0.44      3.40
    8   10   13      0.41     -0.06
    7   10   13     -3.95      0.44
    6   10   13    -10.49     -2.20
    5   10   13     -1.86     -3.39
    4   10   13     -0.47     -3.07
    3   10   13      6.11      3.31
    2   10   13     -1.78      1.10
    1   10   13     -2.01      3.96
    0   10   13    -12.92     -0.28
   10   11   13      2.98      0.13
    9   11   13     -4.04     -1.14
    8   11   13      0.17      4.01
    7   11   13     -6.23      0.21
    6   11   13     -5.19      1.29
    5   11   13     -1.26      4.32
    4   11   13     -1.86      2.80
    3   11   13     -1.46      0.72
    2   11   13      4.36     -1.67
    1   11   13     -2.41     -4.59
    0   11   13     -3.49     -0.35
   11   12   13     -0.85     -0.01
   10   12   13     -0.15      0.56
    9   12   13     -1.42     -2.04
    8   12   13      1.98      1.81
    7   12   13      0.31     -0.42
    6   12   13      3.80      1.51
    5   12   13     -0.49     -1.09
    4   12   13      7.26     -1.53
    3   12   13     -4.37     -0.81
    2   12   13      3.45     -2.70
    1   12   13     -3.87     -1.47
    0   12   13     -0.44      0.02
   12   13   13     -3.14      3.21
   10   13   13     -1.42     -2.81
    8   13   13      4.18      4.45
    6   13   13     -0.64      8.33
    4   13   13     -4.60      2.87
    2   13   13      2.40     -2.43
    0   13   13      2.39     -0.38
    0    0   14     62.67      0.40
    1    1   14     16.22     10.38
    0    1   14      3.22     -0.53
    2    2   14    -13.09     11.90
    1    2   14      6.03     -2.68
    0    2   14      1.68      0.21
    3    3   14    -12.43     -3.33
    2    3   14     -3.70     -2.81
    1    3   14     -9.85     -0.58
    0    3   14     12.25     -0.02
    4    4   14      2.39     -0.30
    3    4   14     -4.03      0.63
    2    4   14     -1.60     -0.72
    1    4   14     -6.56      2.42
    0    4   14     -4.01      0.17
    5    5   14      0.14      3.58
    4    5   14      0.97     -5.66
    3    5   14      5.80      1.22
    2    5   14     -4.80     -0.24
    1    5   14      0.67     -6.04
    0    5   14    -16.78      0.94
    6    6   14     -0.33      4.35
    5    6   14      2.51      5.15
    4    6   14     -1.67      2.05
    3    6   14      2.74     -0.64
    2    6   14     -1.68     -5.56
    1    6   14      4.82     -2.01
    0    6   14      5.04      0.51
    7    7   14      8.85      0.12
    6    7   14      6.41      1.52
    5    7   14     -2.74     -1.06
    4    7   14      2.98      0.11
    3    7   14     -9.36      1.47
    2    7   14      4.96      3.56
    1    7   14     -2.41      2.02
    0    7   14      1.50      0.30
    8    8   14      9.03      2.49
    7    8   14     -1.07     -1.56
    6    8   14     -3.14     -3.87
    5    8   14     -2.01     -0.04
    4    8   14     -1.64     -8.94
    3    8   14      1.99      0.14
    2    8   14      4.63     -2.09
    1    8   14     -0.91     -3.93
    0    8   14      6.95      0.95
    9    9   14      3.81     -1.08
    8    9   14     -3.27     -0.41
    7    9   14      0.66     -2.09
    6    9   14      1.54      2.03
    5    9   14      1.06      0.55
    4    9   14      0.68      4.86
    3    9   14     -1.42      3.44
    2    9   14     -2.76      0.15
    1    9   14      8.43      1.91
    0    9   14      5.29      0.09
   10   10   14      2.61     -3.35
    9   10   14     -0.19      0.54
    8   10   14      0.29      1.45
    7   10   14     -0.34      1.31
    6   10   14     -3.57     -0.20
    5   10   14      1.81     -1.94
    4   10   14      2.15     -3.04
    3   10   14     -0.17     -2.00
    2   10   14     -0.99      3.39
    1   10   14     -2.40     -1.31
    0   10   14     -4.00      1.08
   11   11   14      3.31      0.34
   10   11   14      0.62     -1.29
    9   11   14      0.43     -1.03
    8   11   14     -1.04     -1.61
    7   11   14     -3.97     -2.29
    6   11   14     -2.67      0.09
    5   11   14      1.67     -0.48
    4   11   14      1.64     -1.73
    3   11   14      3.36     -0.89
    2   11   14     -2.32     -0.39
    1   11   14     -0.03     -2.68
    0   11   14     -1.76      0.29
   12   12   14     -1.91      1.18
   11   12   14      1.94      1.51
   10   12   14      1.34     -0.98
    9   12   14      2.73     -1.65
    8   12   14      0.04     -0.18
    7   12   14     -3.04     -2.21
    6   12   14     -0.78      1.08
    5   12   14      2.50      1.10
    4   12   14      1.03      0.92
    3   12   14      2.72      3.30
    2   12   14     -4.88      0.69
    1   12   14      2.91      2.66
    0   12   14     -7.44      0.10
   13   13   14      0.40      1.33
   12   13   14     -2.19      1.87
   11   13   14     -1.62      1.45
   10   13   14      1.74      1.59
    9   13   14      0.02     -2.87
    8   13   14     -1.10     -0.92
    7   13   14      4.22     -1.89
    6   13   14      0.03      2.06
    5   13   14      2.32     -0.63
    4   13   14     -0.32     -1.86
    3   13   14     -1.41     -2.13
    2   13   14      1.83     -1.73
    1   13   14      2.45     -3.25
    0   13   14      4.38      0.01
   14   14   14      5.35      1.61
   12   14   14     -1.10      1.23
   10   14   14     -3.71     -1.34
    8   14   14      6.01     -1.05
    6   14   14      3.12      0.10
    4   14   14     -4.56     -0.43
    2   14   14      3.43      2.65
    0   14   14      6.39      0.07
    0    1   15      1.79     -0.22
    1    2   15      0.81      1.79
    0    2   15      1.92     -2.19
    2    3   15     -4.15      0.65
    1    3   15     -1.00      0.03
    0    3   15     -1.35      0.12
    3    4   15     -1.10      1.30
    2    4   15      4.47     -3.68
    1    4   15      3.30     -3.11
    0    4   15     10.38     -0.51
    4    5   15      0.22      5.29
    3    5   15      3.73      1.74
    2    5   15     -6.76     -6.05
    1    5   15      7.71      2.35
    0    5   15      6.95     -0.02
    5    6   15     11.66      1.53
    4    6   15      2.48     -1.33
    3    6   15      0.44     -1.24
    2    6   15     -1.53      0.45
    1    6   15      6.60     -2.84
    0    6   15      3.96      0.12
    6    7   15     -2.49      1.11
    5    7   15      0.48     -4.62
    4    7   15     -2.30     -0.21
    3    7   15      3.09     -0.48
    2    7   15     -3.37     -1.40
    1    7   15     -2.66      2.83
    0    7   15      7.54     -0.30
    7    8   15     -6.14     -1.44
    6    8   15     -1.64      3.54
    5    8   15      1.11     -1.21
    4    8   15     -2.77      3.99
    3    8   15     -0.11     -0.70
    2    8   15      1.40     -0.06
    1    8   15     -2.53     -0.32
    0    8   15      4.26     -0.22
    8    9   15      1.04     -0.37
    7    9   15     -1.71     -0.30
    6    9   15      0.05      0.80
    5    9   15     -4.28     -3.36
    4    9   15     -2.10      0.06
    3    9   15     -4.60      1.54
    2    9   15     -3.96      6.33
    1    9   15     -3.05      4.03
    0    9   15      3.41      0.07
    9   10   15      3.82      5.55
    8   10   15      3.73     -1.82
    7   10   15     -5.14      2.73
    6   10   15     -3.26      2.33
    5   10   15     -1.98     -4.79
    4   10   15     -2.20     -2.20
    3   10   15      8.08     -1.49
    2   10   15      2.75      3.04
    1   10   15     -2.63      3.33
    0   10   15     -2.13     -0.15
   10   11   15      2.02     -0.66
    9   11   15      0.40     -0.74
    8   11   15     -1.61     -3.07
    7   11   15     -0.15     -1.18
    6   11   15      0.23      1.13
    5   11   15      0.12      1.42
    4   11   15      0.13      5.15
    3   11   15      4.50      0.86
    2   11   15     -2.26     -0.22
    1   11   15      1.13     -2.97
    0   11   15     -2.39      0.01
   11   12   15      1.83     -4.05
   10   12   15     -3.47      2.35
    9   12   15     -0.89     -1.59
    8   12   15      0.33     -1.28
    7   12   15     -2.25      2.77
    6   12   15      0.99      2.48
    5   12   15     -0.11     -0.20
    4   12   15      0.06     -4.01
    3   12   15      1.69     -1.70
    2   12   15     -3.40     -2.58
    1   12   15     -0.21     -1.16
    0   12   15     -3.11      0.14
   12   13   15      0.82      0.52
   11   13   15     -2.42      1.65
   10   13   15     -1.17     -2.23
    9   13   15     -1.55      1.46
    8   13   15      1.09     -2.52
    7   13   15     -1.02      2.20
    6   13   15      0.33     -0.12
    5   13   15     -2.41      0.00
    4   13   15     -0.61     -1.19
    3   13   15      1.63      0.19
    2   13   15     -1.34     -0.81
    1   13   15     -1.76     -0.29
    0   13   15      2.51     -0.03
   13   14   15      0.71      0.48
   12   14   15      1.88      1.90
   11   14   15     -3.21      0.76
   10   14   15     -1.86      1.43
    9   14   15      0.51      4.02
    8   14   15      2.18     -1.93
    7   14   15      0.09      3.48
    6   14   15      0.39     -0.87
    5   14   15     -3.33      0.04
    4   14   15      0.24      1.50
    3   14   15     -3.65      0.37
    2   14   15     -0.59      2.52
    1   14   15      0.92     -1.99
    0   14   15      1.80      0.01
   14   15   15     -0.98      1.54
   12   15   15     -0.84      0.32
   10   15   15      0.03      2.99
    8   15   15     -0.78      0.02
    6   15   15     -1.34      2.00
    4   15   15      1.09      0.03
    2   15   15     -1.49      0.11
    0   15   15      6.57      0.10
    0    0   16     27.66      0.23
    1    1   16      3.18     11.51
    0    1   16      0.07     -0.48
    2    2   16     -0.06      2.52
    1    2   16      2.34     -2.40
    0    2   16     -2.08      0.31
    3    3   16      6.47     -5.41
    2    3   16     -2.87     -0.81
    1    3   16     -2.96     -1.07
    0    3   16     10.10      0.17
    4    4   16      5.23      0.57
    3    4   16     -0.10     -2.25
    2    4   16     -1.34     -5.80
    1    4   16      2.57      2.58
    0    4   16    -13.32      0.10
    5    5   16     -7.20      2.74
    4    5   16     -1.42     -0.19
    3    5   16      8.01      2.47
    2    5   16     -1.90      1.84
    1    5   16      1.23     -3.32
    0    5   16     -0.72      0.69
    6    6   16      1.30     -1.93
    5    6   16     -1.21     -0.46
    4    6   16      3.45      4.37
    3    6   16     -6.22     -3.65
    2    6   16      0.83      0.17
    1    6   16     -5.92     -2.01
    0    6   16      2.78      0.08
    7    7   16      3.19      2.33
    6    7   16      0.49      2.07
    5    7   16     -6.27     -1.33
    4    7   16     -0.47      0.82
    3    7   16     -1.09      0.01
    2    7   16      3.08     -0.04
    1    7   16      1.66      5.62
    0    7   16      6.11      0.18
    8    8   16      2.56     -0.98
    7    8   16      2.77     -2.55
    6    8   16     -2.81     -3.59
    5    8   16     -2.53      0.66
    4    8   16     -1.82     -4.34
    3    8   16     -0.81      2.84
    2    8   16     -0.69      2.06
    1    8   16     -1.02     -0.32
    0    8   16     -3.21      0.28
    9    9   16      0.64      3.04
    8    9   16     -4.51     -3.14
    7    9   16     -0.66      1.11
    6    9   16      2.03     -5.68
    5    9   16     -1.18     -1.28
    4    9   16      1.09      1.79
    3    9   16      1.31     -4.31
    2    9   16     -2.28     -3.69
    1    9   16      4.10      2.59
    0    9   16      5.45     -0.09
   10   10   16      1.57     -5.40
    9   10   16      2.63     -0.03
    8   10   16     -3.44      0.52
    7   10   16      4.05     -0.40
    6   10   16     -2.31      3.77
    5   10   16      4.32     -0.78
    4   10   16     -0.20     -1.59
    3   10   16     -1.55      0.58
    2   10   16     -1.56      1.62
    1   10   16      2.78      4.02
    0   10   16     -6.05      0.07
   11   11   16     -1.44      1.63
   10   11   16      2.16      1.65
    9   11   16     -2.11      1.77
    8   11   16     -0.66      1.93
    7   11   16     -3.95     -1.14
    6   11   16      2.51     -1.87
    5   11   16      0.95     -1.33
    4   11   16      3.52      0.44
    3   11   16      3.53     -2.65
    2   11   16     -0.63      0.29
    1   11   16     -2.78      0.83
    0   11   16      0.89      0.05
   12   12   16      4.71      0.01
   11   12   16     -1.44      1.04
   10   12   16      4.55     -0.37
    9   12   16      3.31     -0.30
    8   12   16     -2.41      0.47
    7   12   16     -3.63      0.09
    6   12   16      3.30      0.24
    5   12   16     -0.30     -0.17
    4   12   16      6.65      0.11
    3   12   16     -1.92     -1.03
    2   12   16      3.01     -3.21
    1   12   16      1.96      3.83
    0   12   16     -2.26     -0.07
   13   13   16     -0.56     -2.83
   12   13   16     -1.55      1.03
   11   13   16     -0.28      0.79
   10   13   16      1.35      0.22
    9   13   16     -1.41     -0.49
    8   13   16     -0.32     -0.16
    7   13   16     -0.98     -2.56
    6   13   16      0.53      1.80
    5   13   16      1.09      0.55
    4   13   16     -0.72      2.22
    3   13   16     -0.86      0.54
    2   13   16      1.19      1.03
    1   13   16     -0.88      0.72
    0   13   16      1.57     -0.07
   14   14   16     -1.44     -1.40
   13   14   16      1.22      0.53
   12   14   16      1.25     -2.02
   11   14   16     -3.45      0.70
   10   14   16     -0.71      0.39
    9   14   16      2.31     -0.08
    8   14   16     -1.53      0.83
    7   14   16      1.23      1.34
    6   14   16     -0.06     -0.92
    5   14   16     -1.70     -0.01
    4   14   16     -5.05     -1.19
    3   14   16      0.92     -2.93
    2   14   16      0.12     -2.21
    1   14   16      4.63      0.74
    0   14   16      1.91      0.08
   15   15   16     -0.64      0.86
   14   15   16     -1.47      0.60
   13   15   16     -1.16     -0.66
   12   15   16     -2.48      0.42
   11   15   16     -0.42      0.64
   10   15   16     -0.23     -0.77
    9   15   16      1.28      0.20
    8   15   16      0.37     -0.68
    7   15   16     -0.81      0.41
    6   15   16     -0.87     -1.90
    5   15   16     -1.00      0.71
    4   15   16     -1.48      0.01
    3   15   16     -1.91      1.19
    2   15   16     -0.66     -1.46
    1   15   16      0.66      1.68
    0   15   16     -4.24     -0.22
   16   16   16      0.65      2.72
   14   16   16     -4.02      0.19
   12   16   16      0.55     -0.52
   10   16   16      2.31      1.05
    8   16   16     -1.69      1.75
    6   16   16     -1.11      1.81
    4   16   16     -2.55     -2.52
    2   16   16      1.04     -2.92
    0   16   16      1.84     -0.07
    0    1   17    -21.69      0.12
    1    2   17     -1.71     -5.46
    0    2   17     -0.73     -0.79
    2    3   17      7.41     -4.49
    1    3   17      3.04     -2.61
    0    3   17      9.77     -0.16
    3    4   17     -1.47      2.32
    2    4   17      1.02     -2.23
    1    4   17     10.15     -4.14
    0    4   17     -0.14     -0.16
    4    5   17     -5.72      3.71
    3    5   17      1.82     -2.54
    2    5   17     -1.21      0.63
    1    5   17      7.96      1.44
    0    5   17      1.29     -0.61
    5    6   17      5.74     -3.66
    4    6   17     -4.75      0.61
    3    6   17     -0.71      3.11
    2    6   17     -0.18      7.92
    1    6   17     -3.19      0.42
    0    6   17      1.76      0.10
    6    7   17     -0.19     -1.30
    5    7   17     -1.14     -4.57
    4    7   17      3.85     -0.38
    3    7   17     -0.46     -1.20
    2    7   17      4.05      0.20
    1    7   17     -4.32      2.38
    0    7   17     -4.69     -0.33
    7    8   17     -2.93      1.80
    6    8   17      3.41     -2.70
    5    8   17      1.10      4.61
    4    8   17     -3.69      0.92
    3    8   17      1.49      0.73
    2    8   17     -0.60      0.27
    1    8   17     -1.61     -2.46
    0    8   17     -1.10     -0.25
    8    9   17     -1.61     -1.03
    7    9   17      2.62      0.57
    6    9   17     -2.04      3.40
    5    9   17      2.48     -2.57
    4    9   17     -2.67     -0.44
    3    9   17      2.52      0.73
    2    9   17     -1.66     -1.11
    1    9   17      5.26      1.71
    0    9   17     -2.04     -0.27
    9   10   17     -0.53     -0.94
    8   10   17      0.40      0.45
    7   10   17      3.20      4.32
    6   10   17     -2.77     -0.40
    5   10   17     -1.89     -0.06
    4   10   17     -2.13     -5.09
    3   10   17      0.25     -2.52
    2   10   17      2.70      2.84
    1   10   17     -0.70      0.08
    0   10   17      2.80     -0.06
   10   11   17     -2.03     -0.13
    9   11   17     -0.29      1.06
    8   11   17     -0.32      0.20
    7   11   17      0.18     -0.64
    6   11   17     -2.01     -1.92
    5   11   17      0.14     -1.65
    4   11   17      0.70      2.02
    3   11   17      0.73     -2.28
    2   11   17      2.88     -1.97
    1   11   17     -0.83     -2.61
    0   11   17      2.62     -0.20
   11   12   17      0.56     -3.93
   10   12   17      1.20      2.56
    9   12   17     -1.70      0.14
    8   12   17     -0.48      0.73
    7   12   17      0.28      1.89
    6   12   17     -0.55      5.80
    5   12   17     -1.16     -0.13
    4   12   17      0.69      0.21
    3   12   17      0.96     -0.39
    2   12   17     -3.28      1.99
    1   12   17      3.60     -0.91
    0   12   17     -0.01      0.08
   12   13   17      0.97     -1.01
   11   13   17      0.21      1.12
   10   13   17     -0.07      2.14
    9   13   17     -1.25      1.06
    8   13   17      0.85      1.25
    7   13   17      0.94      0.69
    6   13   17     -1.97     -3.01
    5   13   17     -0.53     -1.18
    4   13   17      1.85      0.28
    3   13   17     -0.33     -1.09
    2   13   17      1.36      2.30
    1   13   17     -3.20      0.43
    0   13   17     -0.36      0.14
   13   14   17      1.16      0.95
   12   14   17     -0.86      0.56
   11   14   17      1.27     -1.78
   10   14   17      0.65      0.66
    9   14   17     -0.52      1.07
    8   14   17      0.49     -3.22
    7   14   17     -0.50      2.00
    6   14   17     -0.42     -1.25
    5   14   17     -1.51      0.70
    4   14   17      1.85      1.62
    3   14   17     -1.25     -0.40
    2   14   17      0.41     -0.24
    1   14   17     -4.95     -1.71
    0   14   17      2.12     -0.10
   14   15   17     -2.61      0.56
   13   15   17     -1.70      1.76
   12   15   17     -0.69     -0.32
   11   15   17     -0.10      0.65
   10   15   17     -0.01     -1.63
    9   15   17     -0.99      0.81
    8   15   17     -1.17     -2.78
    7   15   17     -0.86     -0.89
    6   15   17     -2.43      1.60
    5   15   17     -1.40      1.47
    4   15   17      0.70     -0.23
    3   15   17      0.34      1.50
    2   15   17     -1.66      0.55
    1   15   17      2.85      0.06
    0   15   17     -1.65     -0.16
   15   16   17     -0.09     -1.72
   14   16   17     -0.86      0.30
   13   16   17      0.79      1.22
   12   16   17     -2.35     -1.41
   11   16   17      0.61      0.04
   10   16   17      1.05     -0.59
    9   16   17     -0.28     -2.28
    8   16   17     -0.89     -1.73
    7   16   17     -0.23      2.33
    6   16   17     -0.57     -1.82
    5   16   17      0.67     -1.03
    4   16   17     -0.58     -0.58
    3   16   17      2.36     -3.41
    2   16   17     -1.34     -2.40
    1   16   17     -1.47      0.91
    0   16   17      0.99      0.07
   14   17   17     -0.92      1.20
   12   17   17     -2.33      3.14
   10   17   17     -2.09     -0.04
    8   17   17     -0.76     -0.44
    6   17   17     -3.15      2.78
    4   17   17      0.38     -0.87
    2   17   17      4.28     -1.42
    0   17   17      4.32     -0.36
    0    0   18    -10.87     -0.27
    1    1   18      1.20      4.44
    0    1   18     -7.83      0.19
    2    2   18      8.53     -7.39
    1    2   18     -3.92     -1.40
    0    2   18     -4.76      0.03
    3    3   18     -0.18     -4.40
    2    3   18      0.02     -4.87
    1    3   18     -0.01     -3.49
    0    3   18     -4.45      0.34
    4    4   18      4.53     -3.29
    3    4   18      0.00      2.00
    2    4   18      5.98     -3.52
    1    4   18      1.41      3.45
    0    4   18     -2.56      0.13
    5    5   18     -0.59     -3.15
    4    5   18      3.09     -2.55
    3    5   18      2.85      4.50
    2    5   18      3.44      1.08
    1    5   18      0.84      2.02
    0    5   18     -5.66      0.06
    6    6   18     -2.65     -4.08
    5    6   18     -0.70      1.57
    4    6   18     -2.01     -0.68
    3    6   18     -1.92      0.32
    2    6   18     -2.14      3.23
    1    6   18     -1.08      0.51
    0    6   18      0.35     -0.02
    7    7   18      6.85     -0.06
    6    7   18     -5.01      0.46
    5    7   18      1.49      0.21
    4    7   18     -1.06      0.28
    3    7   18     -1.49     -0.89
    2    7   18      0.46      2.31
    1    7   18      1.19      3.63
    0    7   18     -6.84     -0.25
    8    8   18      5.87      1.20
    7    8   18     -0.91     -4.45
    6    8   18      1.30      2.60
    5    8   18     -7.09     -0.77
    4    8   18     -2.81     -0.07
    3    8   18     -0.21      2.69
    2    8   18     -2.71     -1.68
    1    8   18      0.87     -0.82
    0    8   18     -1.27     -0.57
    9    9   18     -2.24     -2.43
    8    9   18     -0.30      1.38
    7    9   18     -1.70     -1.20
    6    9   18     -0.29     -5.43
    5    9   18     -1.84      5.13
    4    9   18      5.32      1.78
    3    9   18     -4.06     -3.90
    2    9   18      2.76     -0.88
    1    9   18     -0.73     -3.39
    0    9   18     -2.67     -0.42
   10   10   18     -2.33     -2.25
    9   10   18     -0.38     -1.50
    8   10   18     -1.91      1.45
    7   10   18      3.53      0.27
    6   10   18      0.48      0.74
    5   10   18      2.96     -1.04
    4   10   18     -0.99     -3.44
    3   10   18     -2.03     -0.55
    2   10   18      1.56     -3.18
    1   10   18     -1.53      1.90
    0   10   18      4.67     -1.23
   11   11   18      1.71     -1.10
   10   11   18     -1.28     -1.45
    9   11   18      0.27      1.81
    8   11   18     -2.08      3.43
    7   11   18     -1.34     -0.65
    6   11   18     -0.77     -1.73
    5   11   18      1.95      0.99
    4   11   18      1.20     -0.52
    3   11   18      1.22      0.29
    2   11   18      1.61      1.40
    1   11   18      0.51     -1.49
    0   11   18      0.25     -0.24
   12   12   18     -1.96     -1.76
   11   12   18     -0.38      0.28
   10   12   18     -1.50      1.25
    9   12   18      0.77     -3.59
    8   12   18     -3.96      0.89
    7   12   18      1.52      0.22
    6   12   18      1.17     -4.06
    5   12   18      4.25     -0.65
    4   12   18      1.87     -0.62
    3   12   18     -2.23     -4.88
    2   12   18     -1.61     -4.66
    1   12   18     -2.19      0.41
    0   12   18     -0.96     -0.46
   13   13   18     -2.17     -2.90
   12   13   18      1.89     -0.56
   11   13   18      0.13      0.20
   10   13   18      0.00     -3.61
    9   13   18     -0.55      1.65
    8   13   18     -0.41      0.15
    7   13   18     -0.47     -1.55
    6   13   18     -0.90     -0.26
    5   13   18      1.22      4.08
    4   13   18     -0.56     -1.14
    3   13   18     -2.45      1.85
    2   13   18      2.59      0.06
    1   13   18      0.08     -0.97
    0   13   18      1.52     -0.22
   14   14   18      2.00     -0.99
   13   14   18      1.04      1.67
   12   14   18      2.71     -2.03
   11   14   18     -1.33      0.57
   10   14   18      0.28     -1.47
    9   14   18     -1.55     -1.45
    8   14   18      0.60     -0.87
    7   14   18     -0.97      1.33
    6   14   18      2.07     -0.23
    5   14   18     -0.87      0.87
    4   14   18      1.08      1.07
    3   14   18      0.25     -2.18
    2   14   18      0.31     -2.42
    1   14   18     -0.85      0.73
    0   14   18     -0.06      0.06
   15   15   18     -1.89      2.43
   14   15   18     -1.32      0.49
   13   15   18     -1.15      0.81
   12   15   18     -1.41      1.56
   11   15   18      1.33      0.32
   10   15   18     -0.75     -0.05
    9   15   18      2.61     -0.78
    8   15   18      2.25      1.34
    7   15   18      1.02     -1.23
    6   15   18      0.32     -3.18
    5   15   18     -0.39      0.07
    4   15   18      2.58     -0.91
    3   15   18     -0.96     -2.52
    2   15   18      1.96     -0.02
    1   15   18      2.24     -0.55
    0   15   18     -4.35     -0.27
   15   16   18      0.80     -0.87
   14   16   18     -1.20      0.03
   13   16   18      0.01      0.16
   12   16   18      1.43      0.46
   11   16   18      1.60      0.75
   10   16   18      1.22     -0.39
    9   16   18      1.04     -0.58
    8   16   18     -1.63      0.94
    7   16   18     -0.88     -1.81
    6   16   18     -0.37      0.97
    5   16   18     -0.85      0.12
    4   16   18      3.39      0.69
    3   16   18      2.20      1.05
    2   16   18      2.24     -0.06
    1   16   18      1.79      1.13
    0   16   18     -0.12     -0.08
   14   17   18     -0.19      0.02
   13   17   18     -0.14     -0.18
   12   17   18     -1.78      1.83
   11   17   18     -0.47     -0.77
   10   17   18     -2.46     -0.72
    9   17   18      0.23     -0.03
    8   17   18      0.64     -0.38
    7   17   18      0.67      0.19
    6   17   18     -1.37     -2.00
    5   17   18     -0.05      0.03
    4   17   18      0.16     -2.65
    3   17   18      0.39      0.01
    2   17   18      0.22     -0.37
    1   17   18      1.84      0.73
    0   17   18     -4.11      0.17
   12   18   18     -2.03     -0.27
   10   18   18     -2.06      2.10
    8   18   18     -3.16      3.24
    6   18   18     -0.19     -3.26
    4   18   18      2.50      0.64
    2   18   18     -2.31      0.74
    0   18   18     -4.15     -0.01
    0    1   19     -3.61      0.13
    1    2   19     -0.06     -5.66
    0    2   19      0.86     -0.27
    2    3   19     -1.28     -3.54
    1    3   19     -1.71     -1.55
    0    3   19     10.79      0.07
    3    4   19     -5.08      0.65
    2    4   19     -0.74     -2.59
    1    4   19      2.82     -1.44
    0    4   19     -1.92      0.04
    4    5   19     -2.59     -1.72
    3    5   19     -0.56     -1.41
    2    5   19     -2.16      3.35
    1    5   19     -2.12     -0.09
    0    5   19      0.63     -0.34
    5    6   19      3.31     -5.97
    4    6   19      0.76     -1.91
    3    6   19      0.91      2.29
    2    6   19      2.00      3.33
    1    6   19      0.39      1.94
    0    6   19      3.20      0.35
    6    7   19      0.30      1.51
    5    7   19      1.80     -0.47
    4    7   19      1.66     -2.21
    3    7   19      3.61      2.61
    2    7   19     -0.14      0.28
    1    7   19     -1.20      1.65
    0    7   19     -4.56      0.39
    7    8   19      0.15      3.55
    6    8   19      1.15     -1.28
    5    8   19     -0.65      3.47
    4    8   19     -0.34      1.13
    3    8   19     -0.90     -0.46
    2    8   19     -1.28     -0.82
    1    8   19      4.68     -3.30
    0    8   19     -2.54      0.36
    8    9   19      1.68      0.74
    7    9   19     -1.42     -0.36
    6    9   19      1.58      3.25
    5    9   19      0.53     -1.71
    4    9   19     -0.74     -0.96
    3    9   19      2.02      2.61
    2    9   19     -1.20     -0.70
    1    9   19      2.89      0.15
    0    9   19      0.91      1.06
    9   10   19      0.50     -2.19
    8   10   19      0.99      0.61
    7   10   19      4.10      0.12
    6   10   19     -0.40      0.21
    5   10   19     -1.16     -2.96
    4   10   19     -0.42     -2.95
    3   10   19     -2.54     -0.95
    2   10   19      1.14      2.70
    1   10   19      1.57      0.53
    0   10   19      0.32      0.11
   10   11   19     -1.33     -1.72
    9   11   19      0.24      1.81
    8   11   19     -0.92      1.64
    7   11   19      0.82     -1.81
    6   11   19      0.28     -2.29
    5   11   19     -0.92     -1.09
    4   11   19      0.74     -0.72
    3   11   19     -1.71      0.16
    2   11   19      2.01     -1.80
    1   11   19     -3.70     -2.41
    0   11   19      1.41      0.21
   11   12   19      0.91     -0.79
   10   12   19     -1.44      0.43
    9   12   19     -1.31      0.88
    8   12   19     -1.49     -2.39
    7   12   19      1.20     -1.26
    6   12   19      0.53      1.63
    5   12   19     -0.63     -0.61
    4   12   19      0.49     -2.55
    3   12   19     -1.53      2.82
    2   12   19     -1.56     -0.36
    1   12   19      1.10      0.52
    0   12   19      0.09      0.22
   12   13   19     -1.42     -0.52
   11   13   19     -1.26      0.33
   10   13   19     -1.45      0.45
    9   13   19     -2.51      1.17
    8   13   19     -0.75      2.40
    7   13   19      0.43      0.38
    6   13   19     -1.87      0.30
    5   13   19     -0.67      0.70
    4   13   19     -1.88     -2.07
    3   13   19      0.09      1.26
    2   13   19      0.93      1.03
    1   13   19     -3.26     -0.04
    0   13   19     -1.16      0.16
   13   14   19      0.23      1.34
   12   14   19     -2.29      0.09
   11   14   19      1.13      1.16
   10   14   19     -1.77      0.57
    9   14   19      0.09     -0.33
    8   14   19     -1.55     -0.26
    7   14   19      2.11     -2.09
    6   14   19     -0.05     -0.46
    5   14   19      1.68      0.52
    4   14   19      2.77     -0.78
    3   14   19      2.84      0.81
    2   14   19     -0.41     -1.42
    1   14   19     -0.42     -1.31
    0   14   19     -2.43     -0.19
   14   15   19     -0.30      0.34
   13   15   19      0.07     -0.59
   12   15   19      0.05     -0.99
   11   15   19      1.96     -1.51
   10   15   19     -0.11     -1.69
    9   15   19     -1.15      1.26
    8   15   19      1.05     -0.57
    7   15   19     -3.64     -0.67
    6   15   19      1.16      3.06
    5   15   19     -2.60      1.53
    4   15   19     -1.50      0.01
    3   15   19      0.70      1.98
    2   15   19     -0.54      0.56
    1   15   19      2.37     -1.89
    0   15   19      0.47      0.09
   13   16   19     -0.03      0.10
   12   16   19     -2.50     -0.69
   11   16   19      1.36     -0.49
   10   16   19      0.13     -0.86
    9   16   19     -0.91     -0.79
    8   16   19      0.87      0.98
    7   16   19      1.01     -0.28
    6   16   19      1.47     -0.57
    5   16   19      1.53      0.00
    4   16   19      1.04      0.01
    3   16   19      0.17     -1.64
    2   16   19     -0.89     -0.18
    1   16   19     -2.13     -2.37
    0   16   19     -1.33      0.01
   12   17   19     -0.59      0.23
   11   17   19      0.73     -2.36
   10   17   19     -2.26      0.92
    9   17   19      1.66     -0.24
    8   17   19      0.00      1.73
    7   17   19     -0.38     -1.30
    6   17   19      0.47      0.68
    5   17   19     -0.38      1.61
    4   17   19     -1.64      0.57
    3   17   19      0.60      2.86
    2   17   19     -0.17     -0.52
    1   17   19      0.60     -1.02
    0   17   19      0.19     -0.14
   11   18   19      0.17     -0.11
   10   18   19      0.17     -0.09
    9   18   19     -2.48      1.40
    8   18   19      1.43      0.61
    7   18   19     -1.28     -2.02
    6   18   19      0.81     -1.14
    5   18   19     -0.27      1.16
    4   18   19     -1.19     -0.99
    3   18   19     -1.60      2.62
    2   18   19      0.08      0.54
    1   18   19     -0.56     -1.09
    0   18   19      2.41     -0.02
    8   19   19      0.73      0.67
    6   19   19      3.17     -0.31
    4   19   19      0.72      0.65
    2   19   19      1.80      1.13
    0   19   19     -0.07     -0.17
    0    0   20      7.31     -0.08
    1    1   20      3.58      3.32
    0    1   20      3.23      0.06
    2    2   20     -0.35     -2.05
    1    2   20      0.50     -2.95
    0    2   20     -0.99      0.18
    3    3   20     -0.51     -1.40
    2    3   20     -0.82      0.20
    1    3   20     -1.92     -1.03
    0    3   20      4.12     -0.15
    4    4   20      1.69     -2.54
    3    4   20      0.98     -2.17
    2    4   20      1.66     -0.33
    1    4   20      0.45      1.21
    0    4   20     -0.62      0.11
    5    5   20     -1.85     -4.41
    4    5   20      1.50     -1.03
    3    5   20      1.78      2.21
    2    5   20      0.92      0.24
    1    5   20     -1.83      1.39
    0    5   20     -0.58     -0.08
    6    6   20     -3.18      0.77
    5    6   20      0.77      0.80
    4    6   20     -0.71     -1.44
    3    6   20     -0.67     -1.97
    2    6   20     -0.12     -0.37
    1    6   20     -3.34     -0.53
    0    6   20      1.12     -0.38
    7    7   20      2.87      1.71
    6    7   20     -1.89      0.98
    5    7   20      0.20     -1.07
    4    7   20      0.10     -2.01
    3    7   20      0.36     -0.51
    2    7   20      0.13     -1.26
    1    7   20     -0.77      2.59
    0    7   20      0.64     -0.15
    8    8   20      0.85     -0.39
    7    8   20      0.85     -1.34
    6    8   20     -2.59      3.09
    5    8   20     -2.04      0.05
    4    8   20     -0.75      0.45
    3    8   20      0.81      3.58
    2    8   20      0.55     -0.43
    1    8   20      0.42      0.15
    0    8   20      0.48      0.05
    9    9   20      3.28     -0.55
    8    9   20     -1.45      1.44
    7    9   20      0.59     -1.35
    6    9   20     -0.93      0.88
    5    9   20     -0.26      1.43
    4    9   20     -0.10      4.75
    3    9   20      1.73     -1.02
    2    9   20     -1.72      1.32
    1    9   20      0.67     -2.29
    0    9   20     -0.75     -0.27
   10   10   20     -0.49     -0.93
    9   10   20     -2.46     -0.36
    8   10   20      0.83     -0.69
    7   10   20      0.57     -1.01
    6   10   20     -0.37     -0.21
    5   10   20     -1.68     -2.72
    4   10   20     -0.05     -1.08
    3   10   20     -5.14      1.71
    2   10   20      2.66      0.54
    1   10   20     -0.95      1.29
    0   10   20      4.57     -0.19
   11   11   20     -0.85     -1.53
   10   11   20     -3.11     -2.33
    9   11   20      0.10      0.33
    8   11   20     -0.12      0.86
    7   11   20     -0.30     -0.46
    6   11   20      4.26     -0.20
    5   11   20     -1.64     -2.03
    4   11   20      0.20      0.24
    3   11   20     -0.77      0.99
    2   11   20      1.08     -0.50
    1   11   20     -1.61     -1.34
    0   11   20      4.69      0.16
   12   12   20     -1.06      2.10
   11   12   20     -1.44      0.83
   10   12   20     -1.37      0.71
    9   12   20     -1.87      0.06
    8   12   20     -0.08     -0.11
    7   12   20      2.06     -1.05
    6   12   20      2.00     -0.45
    5   12   20      2.99     -0.89
    4   12   20      1.03      0.22
    3   12   20     -1.14     -1.24
    2   12   20     -0.78     -2.22
    1   12   20      1.57     -1.08
    0   12   20      0.44     -0.70
   13   13   20      1.16     -0.89
   12   13   20      1.51      0.91
   11   13   20     -0.44     -0.36
   10   13   20     -2.92     -0.46
    9   13   20     -0.32     -1.82
    8   13   20     -0.90      0.11
    7   13   20      1.15      0.15
    6   13   20      0.85     -1.68
    5   13   20      1.13      1.91
    4   13   20     -1.37     -3.12
    3   13   20     -0.74      0.71
    2   13   20     -0.37     -3.59
    1   13   20     -0.09     -0.88
    0   13   20      0.81      0.13
   14   14   20      1.71     -0.24
   13   14   20      1.19      0.64
   12   14   20      0.52      0.60
   11   14   20     -0.25      0.50
   10   14   20     -0.68     -1.04
    9   14   20     -0.95      2.43
    8   14   20      1.11     -0.58
    7   14   20     -1.58      1.53
    6   14   20     -0.43      2.44
    5   14   20     -1.27     -0.03
    4   14   20     -1.24      0.84
    3   14   20     -1.00      0.63
    2   14   20     -0.30     -2.39
    1   14   20     -2.96      0.31
    0   14   20      1.47      0.07
   13   15   20      1.00     -0.38
   12   15   20      0.89     -1.59
   11   15   20     -0.39      0.05
   10   15   20     -0.45     -0.59
    9   15   20      1.37      0.66
    8   15   20     -0.44      0.72
    7   15   20     -1.28      0.24
    6   15   20      0.89     -1.59
    5   15   20     -1.11     -0.69
    4   15   20      0.48      1.25
    3   15   20      0.67     -1.15
    2   15   20     -2.71      1.64
    1   15   20      2.97      0.02
    0   15   20     -4.28      0.09
   12   16   20      0.99      0.46
   11   16   20      1.99      0.62
   10   16   20      1.14      0.45
    9   16   20      0.79      2.17
    8   16   20      0.16     -0.19
    7   16   20     -0.79     -0.24
    6   16   20     -0.71     -0.71
    5   16   20      0.16     -0.96
    4   16   20      0.52      1.42
    3   16   20      0.98     -0.56
    2   16   20     -1.61      0.76
    1   16   20      1.70      0.35
    0   16   20     -0.97      0.37
   11   17   20     -1.60     -1.96
   10   17   20     -0.21     -0.90
    9   17   20      0.54     -0.09
    8   17   20     -0.08     -0.64
    7   17   20      0.22      0.21
    6   17   20      1.93     -0.93
    5   17   20     -0.38     -0.33
    4   17   20      1.46     -0.99
    3   17   20      1.20      2.94
    2   17   20      1.28     -0.17
    1   17   20     -0.33      2.66
    0   17   20      3.17      0.74
    9   18   20     -0.88      0.11
    8   18   20      1.09      1.60
    7   18   20      0.97      0.20
    6   18   20      2.00     -2.56
    5   18   20      1.50     -0.03
    4   18   20      2.49     -0.28
    3   18   20     -0.53      0.43
    2   18   20     -2.00      0.04
    1   18   20      0.87      1.33
    0   18   20     -2.55      0.27
    7   19   20     -0.94     -2.10
    6   19   20      0.68      0.32
    5   19   20     -1.56     -0.41
    4   19   20      0.22      0.95
    3   19   20      1.35      1.25
    2   19   20     -1.36     -0.78
    1   19   20      0.52      0.49
    0   19   20      0.95      0.21
    2   20   20     -0.84     -1.89
    0   20   20     -0.83      0.13
    0    1   21      8.82     -0.13
    1    2   21      1.53      1.64
    0    2   21      0.88     -0.27
    2    3   21     -6.20      0.70
    1    3   21      2.75      0.13
    0    3   21      0.33      0.25
    3    4   21     -1.18     -1.08
    2    4   21     -0.90     -1.74
    1    4   21     -5.78     -1.73
    0    4   21      1.95      0.17
    4    5   21      5.91      0.76
    3    5   21     -2.08      1.09
    2    5   21     -0.14     -2.54
    1    5   21      0.20      0.05
    0    5   21      0.00     -0.31
    5    6   21      1.80     -0.64
    4    6   21      0.50     -2.68
    3    6   21      1.65      1.25
    2    6   21     -1.63     -0.14
    1    6   21     -1.31      0.69
    0    6   21      0.89      0.39
    6    7   21     -4.70      2.23
    5    7   21      2.26     -1.72
    4    7   21     -1.34     -0.35
    3    7   21      1.99     -1.76
    2    7   21     -1.56      0.51
    1    7   21     -1.21      1.21
    0    7   21      1.13      0.91
    7    8   21     -2.18      0.58
    6    8   21     -0.96      0.55
    5    8   21     -0.36      0.01
    4    8   21     -1.25      1.14
    3    8   21     -0.19     -2.76
    2    8   21     -0.55      0.39
    1    8   21      2.20      0.16
    0    8   21      1.23      0.25
    8    9   21      3.12     -1.76
    7    9   21     -2.24      1.78
    6    9   21      2.70      0.36
    5    9   21     -2.35     -2.30
    4    9   21      0.03     -1.09
    3    9   21     -2.20     -1.06
    2    9   21      0.21      0.66
    1    9   21      0.96      1.72
    0    9   21      5.16      2.92
    9   10   21     -0.17      2.12
    8   10   21      1.84     -0.44
    7   10   21      0.43      2.28
    6   10   21      1.40     -0.24
    5   10   21      1.40      0.08
    4   10   21     -1.60      0.01
    3   10   21      3.43     -2.40
    2   10   21      1.46      5.22
    1   10   21      1.75      2.35
    0   10   21      2.34      0.10
   10   11   21     -1.14      1.70
    9   11   21      1.54      2.43
    8   11   21      0.57     -1.86
    7   11   21      0.57      1.91
    6   11   21      2.91     -0.68
    5   11   21     -0.43     -0.13
    4   11   21      0.56      2.25
    3   11   21      1.25      1.19
    2   11   21     -1.30     -2.02
    1   11   21      1.71      1.63
    0   11   21     -3.84      1.03
   11   12   21      0.76      0.49
   10   12   21     -0.02      2.20
    9   12   21     -2.40      0.24
    8   12   21     -1.14     -1.72
    7   12   21     -1.58     -0.32
    6   12   21     -0.10     -3.11
    5   12   21      0.55      0.59
    4   12   21     -1.41     -2.80
    3   12   21      0.70     -0.21
    2   12   21     -0.98      0.90
    1   12   21     -2.50      0.00
    0   12   21     -0.70      0.36
   12   13   21      0.83     -0.28
   11   13   21     -1.58     -2.02
   10   13   21      0.47      0.58
    9   13   21     -0.06     -1.51
    8   13   21     -1.33     -1.28
    7   13   21      0.97      1.48
    6   13   21      0.95     -0.09
    5   13   21      0.28     -0.33
    4   13   21      0.16      0.20
    3   13   21      0.70      1.78
    2   13   21      0.47     -0.20
    1   13   21     -2.40      2.65
    0   13   21     -2.82     -0.22
   13   14   21     -0.32     -0.71
   12   14   21     -0.97     -0.66
   11   14   21     -0.57      0.05
   10   14   21      0.54      1.06
    9   14   21     -0.32     -0.52
    8   14   21     -1.02      0.77
    7   14   21     -0.82     -2.44
    6   14   21     -1.75     -0.53
    5   14   21     -0.45     -1.32
    4   14   21      0.24     -0.10
    3   14   21     -0.53     -0.69
    2   14   21      0.52     -1.02
    1   14   21     -2.15     -1.07
    0   14   21     -0.42     -0.10
   12   15   21     -0.03     -0.62
   11   15   21      1.22     -0.55
   10   15   21      0.06      1.33
    9   15   21     -0.34     -1.24
    8   15   21     -0.84     -0.97
    7   15   21     -1.10      1.00
    6   15   21      1.88      0.78
    5   15   21     -1.54      0.51
    4   15   21     -0.26      2.30
    3   15   21     -2.37     -0.54
    2   15   21      0.23      1.44
    1   15   21      0.17     -1.66
    0   15   21      1.76      0.11
   10   16   21      1.27     -0.29
    9   16   21     -0.66      1.09
    8   16   21      0.29      1.77
    7   16   21      1.48      1.48
    6   16   21      0.15      3.65
    5   16   21     -0.12     -0.34
    4   16   21     -0.35      3.29
    3   16   21     -3.67     -1.54
    2   16   21      0.98      0.50
    1   16   21     -2.35     -1.63
    0   16   21      0.76     -0.12
    9   17   21      1.22      0.13
    8   17   21     -0.40      0.65
    7   17   21      1.02      1.05
    6   17   21      0.13     -0.50
    5   17   21      0.59      1.56
    4   17   21     -1.15     -0.42
    3   17   21      0.66      0.95
    2   17   21     -0.87      0.32
    1   17   21      1.56     -1.25
    0   17   21     -1.88      0.00
    6   18   21      0.26      0.38
    5   18   21      2.76     -0.07
    4   18   21     -1.01      0.13
    3   18   21     -0.54     -0.78
    2   18   21      0.31     -0.18
    1   18   21      1.32     -1.07
    0   18   21      0.63      0.06
    3   19   21      0.34      0.23
    2   19   21      1.47      0.52
    1   19   21     -0.51      0.17
    0   19   21     -0.02     -0.08
    0    0   22      4.21      0.37
    1    1   22     -0.30      4.49
    0    1   22      4.11     -0.08
    2    2   22      0.82      1.65
    1    2   22      1.04     -1.16
    0    2   22     -0.40      0.20
    3    3   22      1.63     -2.30
    2    3   22      0.02      0.03
    1    3   22      1.00      0.15
    0    3   22      3.54     -0.36
    4    4   22     -3.91      2.39
    3    4   22      1.63      0.53
    2    4   22      1.32      0.36
    1    4   22      0.04      3.19
    0    4   22      1.27      0.05
    5    5   22     -4.93      1.27
    4    5   22     -0.37     -1.41
    3    5   22     -1.74     -0.05
    2    5   22     -0.33      0.82
    1    5   22     -1.00     -2.57
    0    5   22     -4.05      0.05
    6    6   22      1.42      2.28
    5    6   22      2.04      1.34
    4    6   22     -0.86      1.85
    3    6   22      3.31     -0.57
    2    6   22      0.12     -2.64
    1    6   22     -1.30      1.09
    0    6   22     -1.81     -0.38
    7    7   22     -0.42      1.13
    6    7   22      0.96     -0.33
    5    7   22     -0.01     -0.28
    4    7   22      0.59     -2.01
    3    7   22     -0.63     -1.16
    2    7   22      1.36     -0.27
    1    7   22     -0.47     -0.17
    0    7   22      0.30     -0.32
    8    8   22     -2.70     -0.57
    7    8   22      0.54      0.55
    6    8   22     -0.44      0.48
    5    8   22     -0.67      0.12
    4    8   22      1.19     -0.58
    3    8   22      0.32      0.96
    2    8   22      2.85      0.56
    1    8   22     -0.98     -0.81
    0    8   22      1.23      0.15
    9    9   22     -0.85     -2.61
    8    9   22      1.06      0.89
    7    9   22     -1.48     -1.91
    6    9   22     -0.17      0.53
    5    9   22      0.39      1.06
    4    9   22     -1.31      2.06
    3    9   22      0.61     -0.12
    2    9   22     -0.68     -1.39
    1    9   22      2.62     -0.84
    0    9   22      0.84     -0.74
   10   10   22      0.86     -0.08
    9   10   22      0.30     -0.55
    8   10   22      0.49     -1.01
    7   10   22      0.50      1.31
    6   10   22     -0.42     -0.21
    5   10   22     -3.20      1.09
    4   10   22     -1.50     -1.10
    3   10   22     -3.15      1.45
    2   10   22     -0.36      1.38
    1   10   22      1.45     -0.39
    0   10   22      1.63      0.02
   11   11   22     -0.92      0.67
   10   11   22     -0.03     -0.37
    9   11   22     -0.57      0.33
    8   11   22      1.54     -0.30
    7   11   22      1.55      2.61
    6   11   22     -0.58     -1.64
    5   11   22     -0.44      0.77
    4   11   22     -0.53     -1.31
    3   11   22     -1.15     -0.03
    2   11   22      1.38     -2.52
    1   11   22      1.35     -1.12
    0   11   22      2.82     -0.16
   12   12   22      0.83     -0.87
   11   12   22      0.39      0.38
   10   12   22      1.31     -0.19
    9   12   22      1.76      0.70
    8   12   22      1.10      0.46
    7   12   22      0.87     -0.12
    6   12   22      1.40      0.00
    5   12   22      0.89      2.58
    4   12   22      0.51     -0.32
    3   12   22      1.31      1.40
    2   12   22     -1.31      0.05
    1   12   22      1.16     -1.46
    0   12   22     -0.09     -0.36
   12   13   22      0.01      1.60
   11   13   22      1.31     -0.28
   10   13   22     -0.79      2.67
    9   13   22     -0.95     -2.13
    8   13   22     -0.99      0.68
    7   13   22      0.64      1.57
    6   13   22     -2.60     -1.08
    5   13   22      0.91      0.97
    4   13   22     -0.28     -1.32
    3   13   22     -0.88     -0.23
    2   13   22      1.26     -2.98
    1   13   22      0.71     -0.58
    0   13   22      0.82      0.21
   11   14   22      0.18      0.03
   10   14   22     -0.15     -0.49
    9   14   22      1.75      0.13
    8   14   22     -1.23      0.14
    7   14   22      1.47     -0.30
    6   14   22     -1.13     -0.15
    5   14   22      0.33      0.27
    4   14   22     -0.47     -0.96
    3   14   22      0.50      0.38
    2   14   22     -0.26      0.42
    1   14   22     -3.32     -1.01
    0   14   22      0.75      0.07
   10   15   22      0.98      0.56
    9   15   22     -1.20     -0.70
    8   15   22      0.25     -0.21
    7   15   22     -3.24      0.88
    6   15   22     -0.74      0.01
    5   15   22     -1.65     -0.12
    4   15   22     -0.56      0.87
    3   15   22     -1.13      0.11
    2   15   22     -0.31     -0.15
    1   15   22     -0.47      1.30
    0   15   22      0.73      0.11
    8   16   22      0.21     -1.04
    7   16   22      0.12     -0.01
    6   16   22     -1.24     -1.86
    5   16   22      0.74     -0.34
    4   16   22     -0.71     -2.10
    3   16   22      0.26     -2.34
    2   16   22     -0.67      1.10
    1   16   22     -0.72     -0.99
    0   16   22      0.92      0.13
    6   17   22     -0.69      1.37
    5   17   22     -0.66     -0.56
    4   17   22     -1.47      0.58
    3   17   22      0.37     -0.25
    2   17   22     -0.67     -0.57
    1   17   22     -0.44      1.66
    0   17   22      1.77      0.27
    2   18   22     -1.08     -0.52
    1   18   22     -0.31      1.02
    0   18   22      1.38      0.08
    0    1   23      3.06     -0.01
    1    2   23      3.29     -0.35
    0    2   23     -3.70     -0.19
    2    3   23     -0.98      0.14
    1    3   23     -3.55     -1.30
    0    3   23     -1.48      0.17
    3    4   23     -1.07     -0.01
    2    4   23      0.71     -1.17
    1    4   23     -1.67     -1.75
    0    4   23     -0.21      0.09
    4    5   23      0.66      1.97
    3    5   23     -1.22      0.80
    2    5   23     -1.97     -1.62
    1    5   23     -1.42     -1.59
    0    5   23     -2.10     -0.24
    5    6   23     -0.63      0.13
    4    6   23      0.62      0.84
    3    6   23     -1.24      1.34
    2    6   23      0.25      2.07
    1    6   23      1.53      0.67
    0    6   23     -0.21      0.51
    6    7   23     -1.03     -0.03
    5    7   23      1.13      0.55
    4    7   23     -1.63     -0.83
    3    7   23      0.05     -2.04
    2    7   23     -1.31      0.46
    1    7   23     -0.51      0.04
    0    7   23     -0.02     -0.08
    7    8   23      1.92     -1.23
    6    8   23      1.95      0.49
    5    8   23     -0.78      1.53
    4    8   23      0.38     -0.14
    3    8   23     -0.60     -0.71
    2    8   23     -0.48     -0.99
    1    8   23      2.12      1.37
    0    8   23     -1.09      0.14
    8    9   23      2.25     -1.38
    7    9   23     -0.14     -0.90
    6    9   23      0.74     -0.51
    5    9   23     -0.71     -0.37
    4    9   23     -0.80     -2.43
    3    9   23     -2.45     -0.82
    2    9   23      0.17      0.53
    1    9   23      2.21      0.73
    0    9   23      1.07      0.37
    9   10   23     -1.76      2.17
    8   10   23      0.95     -0.24
    7   10   23     -0.45      2.05
    6   10   23      1.70     -0.23
    5   10   23     -0.67      1.85
    4   10   23      1.13     -2.14
    3   10   23      0.77     -1.93
    2   10   23      1.07      0.04
    1   10   23     -1.05      2.32
    0   10   23     -0.24      0.12
   10   11   23     -1.66      0.55
    9   11   23      0.10      0.06
    8   11   23     -0.28     -0.42
    7   11   23     -4.29     -0.61
    6   11   23      0.20     -0.15
    5   11   23     -0.85      1.94
    4   11   23      2.15      1.23
    3   11   23     -0.61     -0.48
    2   11   23      0.97     -0.59
    1   11   23     -0.55      0.01
    0   11   23     -2.66      0.08
   11   12   23      0.72      0.40
   10   12   23      2.51      0.53
    9   12   23     -0.64      1.86
    8   12   23     -0.82     -0.04
    7   12   23     -1.79     -0.22
    6   12   23      1.02      1.03
    5   12   23      0.75      0.09
    4   12   23      2.02      0.18
    3   12   23      0.39     -1.67
    2   12   23     -0.13     -0.60
    1   12   23     -0.97     -0.63
    0   12   23     -0.38      0.36
   10   13   23      0.56     -1.14
    9   13   23      0.91     -2.18
    8   13   23      0.35     -0.53
    7   13   23     -1.67     -0.64
    6   13   23      0.23     -1.22
    5   13   23      1.90      0.13
    4   13   23      1.22     -0.15
    3   13   23      0.68     -1.97
    2   13   23      0.07      0.54
    1   13   23     -0.26      0.48
    0   13   23     -4.32     -0.06
    9   14   23      2.78      0.95
    8   14   23     -0.01     -0.89
    7   14   23      0.25     -1.47
    6   14   23      0.47      0.58
    5   14   23      0.38     -0.56
    4   14   23      0.45      0.99
    3   14   23      0.85      1.61
    2   14   23     -0.35     -1.14
    1   14   23     -0.98      1.28
    0   14   23     -0.46     -0.01
    7   15   23     -0.29      1.41
    6   15   23     -0.88     -1.04
    5   15   23      0.92      0.97
    4   15   23     -1.48     -0.18
    3   15   23     -0.25     -2.57
    2   15   23     -0.88     -0.22
    1   15   23      2.60     -1.88
    0   15   23     -2.82      0.05
    5   16   23     -0.58      0.15
    4   16   23     -1.98      1.71
    3   16   23      0.55      0.67
    2   16   23     -0.55      0.20
    1   16   23     -0.08      0.64
    0   16   23     -1.55     -0.30
    0    0   24     -0.49     -1.01
    1    1   24     -1.15      0.95
    0    1   24     -0.11     -0.04
    2    2   24      2.65     -1.71
    1    2   24     -0.45     -0.76
    0    2   24      0.85     -0.18
    3    3   24     -1.28     -1.85
    2    3   24      1.80     -1.11
    1    3   24      0.99     -1.25
    0    3   24     -0.16     -0.15
    4    4   24     -5.89     -0.42
    3    4   24     -0.69      0.37
    2    4   24      1.48      1.57
    1    4   24     -1.42      1.90
    0    4   24      5.71      0.07
    5    5   24     -3.10      1.09
    4    5   24      2.99      0.60
    3    5   24     -3.91      2.19
    2    5   24      2.88     -0.48
    1    5   24      0.99     -0.89
    0    5   24     -1.91     -0.08
    6    6   24      1.60     -1.70
    5    6   24      0.82      0.40
    4    6   24     -1.30     -0.77
    3    6   24      3.81     -0.66
    2    6   24      0.89     -0.32
    1    6   24      0.45     -0.32
    0    6   24      2.48     -0.06
    7    7   24      0.72     -0.04
    6    7   24      2.16      1.11
    5    7   24      2.13     -0.13
    4    7   24     -0.07      2.50
    3    7   24      0.41     -1.04
    2    7   24     -0.94      0.91
    1    7   24      0.72     -1.96
    0    7   24     -0.87     -0.21
    8    8   24     -0.04     -0.59
    7    8   24     -0.63      0.92
    6    8   24      1.35     -0.72
    5    8   24      0.23     -0.94
    4    8   24      0.63     -0.27
    3    8   24      1.97      0.91
    2    8   24      0.46     -1.60
    1    8   24      3.09     -1.22
    0    8   24     -1.44     -0.30
    9    9   24     -1.90      0.32
    8    9   24      3.11      0.42
    7    9   24     -1.86     -2.20
    6    9   24      2.59     -1.16
    5    9   24     -0.33      1.77
    4    9   24     -1.14      0.37
    3    9   24     -1.50      3.52
    2    9   24     -3.07     -1.37
    1    9   24     -1.85      0.12
    0    9   24     -0.69     -0.34
   10   10   24     -0.28      1.31
    9   10   24     -0.54      2.36
    8   10   24     -0.43      0.05
    7   10   24      0.11      4.95
    6   10   24     -0.84     -0.70
    5   10   24     -0.47      0.61
    4   10   24     -2.77      0.39
    3   10   24     -0.30      0.19
    2   10   24     -0.51      0.72
    1   10   24      1.35     -0.97
    0   10   24      2.94     -0.46
   10   11   24      1.02     -0.52
    9   11   24      0.39      1.50
    8   11   24     -0.35      0.40
    7   11   24      1.07      0.11
    6   11   24     -2.13      0.31
    5   11   24      0.04     -2.50
    4   11   24     -0.76     -0.43
    3   11   24      0.05      1.57
    2   11   24     -0.71     -1.92
    1   11   24      0.93      0.72
    0   11   24      0.03     -0.17
    9   12   24     -0.60     -0.05
    8   12   24      0.73      1.77
    7   12   24     -2.08      0.74
    6   12   24     -0.18      0.65
    5   12   24     -1.62      2.13
    4   12   24     -0.65      0.11
    3   12   24     -0.37     -0.44
    2   12   24      0.84      0.83
    1   12   24     -0.80     -2.26
    0   12   24      4.33     -0.05
    8   13   24     -0.46     -0.65
    7   13   24      0.67     -0.02
    6   13   24     -0.93      1.70
    5   13   24     -0.39     -2.75
    4   13   24      1.35      0.14
    3   13   24      0.84     -0.55
    2   13   24      0.75     -2.83
    1   13   24      1.62      0.67
    0   13   24     -0.56     -0.10
    6   14   24     -1.38     -0.50
    5   14   24     -1.00      0.20
    4   14   24     -1.38     -0.92
    3   14   24      0.58     -0.18
    2   14   24     -0.38      1.65
    1   14   24     -0.48     -1.31
    0   14   24      0.94      0.02
    3   15   24     -1.00      0.52
    2   15   24      1.23     -1.21
    1   15   24     -0.96      1.48
    0   15   24      0.23     -0.08
    0    1   25     -2.47      0.36
    1    2   25     -0.33     -1.04
    0    2   25      0.56      0.06
    2    3   25      0.66     -1.13
    1    3   25     -1.00     -2.32
    0    3   25      0.50      0.11
    3    4   25     -0.79      1.10
    2    4   25      0.25     -2.28
    1    4   25      1.48      1.23
    0    4   25     -1.12      0.00
    4    5   25     -1.04     -0.62
    3    5   25      0.72     -1.08
    2    5   25     -0.23     -0.01
    1    5   25      1.25     -3.35
    0    5   25      4.00     -0.11
    5    6   25      0.58     -2.62
    4    6   25     -1.66      2.07
    3    6   25     -2.22      0.88
    2    6   25     -0.13      1.28
    1    6   25      1.43      2.18
    0    6   25     -2.52      0.09
    6    7   25      2.25      0.89
    5    7   25     -2.42      2.18
    4    7   25      0.59      0.14
    3    7   25     -0.36     -0.47
    2    7   25     -0.81      0.96
    1    7   25      0.52     -1.21
    0    7   25      1.48     -0.08
    7    8   25     -0.46     -0.68
    6    8   25     -0.36      1.75
    5    8   25     -2.55      1.25
    4    8   25     -0.21      0.90
    3    8   25     -1.61     -0.01
    2    8   25     -1.02     -0.08
    1    8   25      0.28      0.05
    0    8   25     -5.01     -0.09
    8    9   25     -0.71      0.59
    7    9   25      1.86     -2.09
    6    9   25      1.11     -0.11
    5    9   25      0.98     -2.08
    4    9   25      0.14      0.27
    3    9   25      0.23      0.80
    2    9   25     -2.42      2.54
    1    9   25      2.28      0.62
    0    9   25     -2.03     -0.40
    9   10   25      0.07      1.14
    8   10   25     -1.24      0.80
    7   10   25      1.54     -0.96
    6   10   25     -1.11     -0.09
    5   10   25      0.23     -1.75
    4   10   25      0.15     -2.17
    3   10   25     -0.27     -0.86
    2   10   25      0.29      1.29
    1   10   25     -0.31      1.10
    0   10   25     -1.16      0.00
    8   11   25     -2.40      0.83
    7   11   25      1.25     -1.32
    6   11   25     -0.59     -1.41
    5   11   25      1.97      0.79
    4   11   25      2.34      0.43
    3   11   25     -0.05     -0.47
    2   11   25      1.00      2.13
    1   11   25     -1.04     -0.33
    0   11   25      1.00     -0.28
    6   12   25     -0.05      2.03
    5   12   25      0.88     -1.35
    4   12   25      0.01     -0.15
    3   12   25     -0.39     -1.71
    2   12   25     -0.01     -0.91
    1   12   25      2.56     -1.54
    0   12   25      1.61      0.13
    4   13   25      0.61      0.38
    3   13   25      0.53     -0.97
    2   13   25     -0.33      1.58
    1   13   25     -0.36      0.27
    0   13   25     -0.46     -0.02
    0    0   26     -1.19     -1.71
    1    1   26      0.69      1.48
    0    1   26     -0.77      0.00
    2    2   26     -2.58     -0.05
    1    2   26      1.16     -1.21
    0    2   26     -0.84     -0.39
    3    3   26     -0.65     -1.96
    2    3   26      2.34      0.32
    1    3   26      1.27     -0.79
    0    3   26      3.17      0.01
    4    4   26      0.44     -0.19
    3    4   26     -1.13     -0.98
    2    4   26     -1.80      0.87
    1    4   26      1.59      1.41
    0    4   26      0.82      0.03
    5    5   26      2.20     -2.15
    4    5   26      2.25      2.07
    3    5   26     -0.57      0.02
    2    5   26      1.60      1.52
    1    5   26      0.92     -1.06
    0    5   26      2.44      0.01
    6    6   26     -1.44      0.59
    5    6   26      0.01      1.23
    4    6   26      1.85      0.78
    3    6   26      1.05     -0.19
    2    6   26      1.40      0.73
    1    6   26     -1.79      0.92
    0    6   26      2.21      0.16
    7    7   26      0.37      2.34
    6    7   26     -0.61     -1.45
    5    7   26      2.82     -0.38
    4    7   26      1.04      0.79
    3    7   26      1.06     -2.07
    2    7   26      0.41     -0.21
    1    7   26      1.99     -1.39
    0    7   26      2.08      0.09
    8    8   26      0.54     -1.32
    7    8   26      0.11      1.61
    6    8   26      0.16      0.06
    5    8   26     -0.39      0.26
    4    8   26      0.91      1.04
    3    8   26      1.56      1.60
    2    8   26     -1.29     -0.89
    1    8   26     -0.15      0.63
    0    8   26     -3.55      0.20
    7    9   26     -1.19     -0.39
    6    9   26     -1.24     -2.31
    5    9   26      0.56      0.18
    4    9   26     -1.47     -0.30
    3    9   26     -0.98      0.59
    2    9   26     -0.06      0.09
    1    9   26     -0.88      0.00
    0    9   26      3.03      0.00
    6   10   26      0.12     -1.65
    5   10   26      0.48     -1.84
    4   10   26     -1.18      0.22
    3   10   26     -0.81      0.26
    2   10   26      0.39      0.97
    1   10   26     -0.60      1.23
    0   10   26      0.91      0.09
    3   11   26     -0.42      1.92
    2   11   26     -0.63      1.74
    1   11   26     -0.46      1.43
    0   11   26      1.64      0.03
    4   11   26     -3.28      0.26
    0    1   27     -3.92      0.79
    1    2   27     -0.41      0.77
    0    2   27      3.00      0.10
    2    3   27      0.83      0.56
    1    3   27     -0.94     -1.31
    0    3   27      1.72      0.03
    3    4   27     -0.52     -0.11
    2    4   27     -0.30      1.22
    1    4   27     -0.20     -0.68
    0    4   27     -0.53     -0.04
    4    5   27     -2.03      0.49
    3    5   27     -0.92     -0.19
    2    5   27      0.94     -0.08
    1    5   27     -0.99     -0.11
    0    5   27      2.15     -0.18
    5    6   27      0.75     -0.35
    4    6   27     -2.33     -0.53
    3    6   27      0.86     -0.57
    2    6   27     -0.09      4.18
    1    6   27     -1.31     -0.90
    0    6   27     -1.07     -0.02
    5    7   27     -0.70     -1.11
    4    7   27     -1.95      0.34
    3    7   27      0.86     -1.08
    2    7   27     -0.30      0.09
    1    7   27     -0.36     -0.01
    0    7   27      1.21     -0.01
    4    8   27      0.71     -0.35
    3    8   27      2.87     -0.99
    2    8   27      0.93      0.03
    1    8   27      2.18     -1.30
    0    8   27     -2.30     -0.05
    1    9   27     -0.79     -0.42
    0    9   27      0.91      0.07
    0    0   28      0.28     -0.32
    1    1   28      0.38      2.52
    0    1   28      1.90     -0.09
    2    2   28      1.14     -0.28
    1    2   28     -1.50     -0.24
    0    2   28      2.92      0.01
    3    3   28     -1.22      1.42
    2    3   28      2.19     -1.68
    1    3   28     -0.90      1.66
    0    3   28      2.43     -0.13
    3    4   28     -0.14      0.83
    2    4   28     -1.04     -0.94
    1    4   28      1.33      2.06
    0    4   28     -2.17      0.03
    1    5   28     -2.17     -0.02
    0    5   28     -0.02      0.02
    0    0    2    182.52     -0.14
    0    1    2     45.78      0.01
    1    1    2     77.74     31.14
    0    2    2    -71.69      0.12
    2    2    2    -39.75     54.10
    0    0    4   -151.53      0.34
    2    2    4     50.49     -2.57
    0    1    5     35.67     -0.24
    0    3    5     38.85     -0.49
    0    3    6     17.62     -0.01
   14   16   19      1.07      1.32
   13   17   19     -0.35     -1.07
   10   19   19     -2.83      0.48
   14   15   20     -0.83     -1.73
   13   16   20      0.00     -0.13
   10   18   20     -0.12      1.10
    8   19   20     -1.51     -0.56
    4   20   20      0.71      0.01
   11   16   21     -1.19     -0.17
    7   18   21      2.43      0.68
    4   19   21     -0.18     -0.46
   13   13   22      0.90      0.84
   12   14   22     -0.59      0.11
    9   16   22      0.24      0.11
    7   17   22     -0.26      1.59
    3   18   22     -1.00      0.09
    4   18   22     -0.69     -1.64
   11   13   23      1.84     -1.19
   10   14   23      0.99     -1.45
    8   15   23     -0.73     -1.61
    6   16   23     -0.41      2.35
    0   17   23     -0.16      0.01
    1   17   23      0.84     -1.08
    2   17   23      1.22     -2.09
   11   11   24      0.26      0.54
   10   12   24      0.88      0.24
    7   14   24      0.77     -0.29
    4   15   24      2.36     -0.78
    7   12   25     -0.37     -1.12
    5   13   25      0.56      1.22
    0   14   25      1.55      0.09
    1   14   25      0.69     -0.81
    2   14   25      0.81     -0.50
    8    9   26     -0.80      0.73
    7   10   26      1.15      2.10
    5   11   26     -1.05     -1.73
    0   12   26      2.98      0.01
    1   12   26      0.69      0.05
    2   12   26      2.61     -0.20
    6    7   27      0.35      0.63
    5    8   27      1.06      0.62
    2    9   27     -1.16      1.61
    3    9   27      0.20      0.33
    4    4   28      3.22     -1.02
    2    5   28     -1.28      0.47
    3    5   28      0.54      0.53
    4    5   28     -0.45     -0.23
    0    6   28     -1.90      0.02
    1    6   28     -0.20      2.79
    2    6   28      0.35     -1.72
    0    0    0      0.00      0.00
# SQUEEZE RESULTS (Version = 270519)
# Note: Data are Listed for all Voids in the P1 Unit Cell
# i.e. Centre of Gravity, Solvent Accessible Volume,
# Recovered number of Electrons in the Void and
# Details about the Squeezed Material
loop_
  _platon_squeeze_void_nr
  _platon_squeeze_void_average_x
  _platon_squeeze_void_average_y
  _platon_squeeze_void_average_z
  _platon_squeeze_void_volume
  _platon_squeeze_void_count_electrons
  _platon_squeeze_void_content
   1 -0.062 -0.046 -0.045      6055       993 ' '
# Missing Reflections Below sin(th)/lambda = 0.25
loop_
  _platon_missing_refln_index_h
  _platon_missing_refln_index_k
  _platon_missing_refln_index_l
  _platon_missing_refln_theta
    0    0    2     1.904
    0    1    2     2.128
    1    1    2     2.332
    0    2    2     2.693
    2    2    2     3.299
    0    0    4     3.809
    2    2    4     4.667
    0    1    5     4.858
    0    3    5     5.558
    0    3    6     6.397
_platon_squeeze_void_probe_radius                  1.20
_platon_squeeze_details
)
TITL pcn-250_beforeactP -4 3 n     R = 0.06
CELL   21.9389   21.9389   21.9389     90.00     90.00     90.00
SPGR P-43n
# Solvent Accessible Volume =      6046
# Electrons Found in S.A.V. =       980
# Note: Atoms in Void are Labelled as Cxxx and Qxxx for all Others
C101 0.804 0.334 0.006 !       2.97 eA-3
C102 0.146 0.849 0.151 !       2.95 eA-3
C103 0.132 0.869 0.868 !       2.60 eA-3
C104 0.285 0.642 0.510 !       2.32 eA-3
Q105 0.138 0.565 0.864 !       2.05 eA-3
C106 0.422 0.765 0.919 !       1.97 eA-3
C107 0.353 0.059 0.358 !       1.35 eA-3
C108 0.304 0.009 0.581 !       1.25 eA-3
C109 0.436 0.642 0.360 !       1.24 eA-3
C110 0.670 0.625 0.474 !       1.13 eA-3
C111 0.640 0.536 0.694 !       1.11 eA-3
C112 0.023 0.104 0.572 !       0.92 eA-3
Q113 0.366 0.947 0.682 !       0.91 eA-3
C114 0.984 0.127 0.837 !       0.91 eA-3
C115 0.488 0.939 0.402 !       0.89 eA-3
Q116 0.074 0.703 0.463 !       0.84 eA-3
C117 0.587 0.377 0.000 !       0.84 eA-3
C118 0.838 0.895 0.462 !       0.79 eA-3
C119 0.453 0.150 0.908 !       0.73 eA-3
C120 0.034 0.437 0.640 !       0.73 eA-3
C121 0.311 0.069 0.543 !       0.68 eA-3
C122 0.638 0.507 0.584 !       0.66 eA-3
Q123 0.435 0.081 0.825 !       0.66 eA-3
Q124 0.371 0.680 0.568 !       0.64 eA-3
Q125 0.373 0.334 0.673 !       0.59 eA-3
C126 0.452 0.375 0.485 !       0.57 eA-3
C127 0.016 0.146 0.384 !       0.56 eA-3
C128 0.009 0.491 0.264 !       0.54 eA-3
Q129 0.927 0.664 0.569 !       0.53 eA-3
Q130 0.313 0.457 0.102 !       0.52 eA-3
)
;
_shelx_fab_checksum              81260
_platon_squeeze_special_details
;
A solvent mask was calculated and 993 electrons were
found in a volume of 6055\%A^3 in 1 void per unit cell.
This is consistent with the presence of 
6[C3H7NO(N,N-dimethylformamide] per Formula Unit 
which account for 960 electrons 
per unit cell.
;
_platon_squeeze_void_probe_radius 1.20
_olex2_submission_original_sample_id PCN-250_BeforeActivation
_olex2_submission_special_instructions 'No special instructions were received'
loop_
_space_group_symop_operation_xyz
'x, y, z'
'y+1/2, -x+1/2, -z+1/2'
'-x, -y, z'
'-y+1/2, x+1/2, -z+1/2'
'-x+1/2, z+1/2, -y+1/2'
'x, -y, -z'
'-x+1/2, -z+1/2, y+1/2'
'-z+1/2, -y+1/2, x+1/2'
'-x, y, -z'
'z+1/2, -y+1/2, -x+1/2'
'z, x, y'
'y, z, x'
'-y, -z, x'
'z, -x, -y'
'-y, z, -x'
'-z, -x, y'
'-z, x, -y'
'y, -z, -x'
'-y+1/2, -x+1/2, z+1/2'
'y+1/2, x+1/2, z+1/2'
'x+1/2, -z+1/2, -y+1/2'
'x+1/2, z+1/2, y+1/2'
'-z+1/2, y+1/2, -x+1/2'
'z+1/2, y+1/2, x+1/2'
loop_
_atom_site_label
_atom_site_type_symbol
_atom_site_fract_x
_atom_site_fract_y
_atom_site_fract_z
_atom_site_U_iso_or_equiv
_atom_site_adp_type
_atom_site_occupancy
_atom_site_site_symmetry_order
_atom_site_calc_flag
_atom_site_refinement_flags_posn
_atom_site_refinement_flags_adp
_atom_site_refinement_flags_occupancy
Fe1 Fe 0.73995(2) 0.31990(2) 0.19632(2) 0.01694(12) Uani 1 1 d . . .
O1 O 0.74063(8) 0.25937(8) 0.25937(8) 0.0152(5) Uani 1 3 d S T P
O4 O 1.10775(8) 0.25549(10) 0.24900(9) 0.0298(5) Uani 1 1 d . . .
O5 O 1.14940(8) 0.29618(11) 0.16591(9) 0.0326(5) Uani 1 1 d . . .
O3 O 0.87494(9) 0.27366(10) 0.26235(9) 0.0307(5) Uani 1 1 d . . .
O2 O 0.82956(8) 0.31301(11) 0.18083(10) 0.0342(5) Uani 1 1 d . . .
C1 C 0.87515(11) 0.29305(13) 0.20907(13) 0.0228(5) Uani 1 1 d . . .
C2 C 1.10522(11) 0.27917(12) 0.19751(13) 0.0222(5) Uani 1 1 d . . .
C3 C 1.04322(12) 0.28752(15) 0.16891(13) 0.0283(6) Uani 1 1 d . . .
C4 C 1.04051(13) 0.2963(2) 0.10686(14) 0.0452(9) Uani 1 1 d . . .
H4 H 1.076878 0.297894 0.083413 0.054 Uiso 1 1 calc R U .
C6 C 0.93141(13) 0.3034(2) 0.11272(15) 0.0481(10) Uani 1 1 d . . .
H6 H 0.893258 0.310081 0.093371 0.058 Uiso 1 1 calc R U .
C8 C 0.99015(12) 0.28463(14) 0.20294(13) 0.0267(6) Uani 1 1 d . . .
H8 H 0.992064 0.276205 0.245374 0.032 Uiso 1 1 calc R U .
C7 C 0.93393(12) 0.29410(15) 0.17492(13) 0.0290(6) Uani 1 1 d . . .
C5 C 0.98406(14) 0.3029(2) 0.07879(15) 0.0565(13) Uani 1 1 d . . .
O6 O 0.73803(12) 0.38496(10) 0.12948(11) 0.0375(7) Uani 0.970(6) 1 d . . P
H6A H 0.758949 0.424265 0.128673 0.056 Uiso 0.970(6) 1 d R U P
H6B H 0.716360 0.384660 0.090498 0.056 Uiso 0.970(6) 1 d R U P
N1 N 0.97671(12) 0.3071(2) 0.01396(13) 0.0719(13) Uani 1 1 d . . .
loop_
_atom_site_aniso_label
_atom_site_aniso_U_11
_atom_site_aniso_U_22
_atom_site_aniso_U_33
_atom_site_aniso_U_23
_atom_site_aniso_U_13
_atom_site_aniso_U_12
Fe1 0.01237(17) 0.01837(19) 0.02009(19) 0.00169(13) 0.00031(13) 0.00100(13)
O1 0.0152(5) 0.0152(5) 0.0152(5) 0.0012(6) -0.0012(6) -0.0012(6)
O4 0.0165(9) 0.0433(12) 0.0296(11) 0.0048(9) -0.0002(7) 0.0008(8)
O5 0.0139(9) 0.0505(13) 0.0333(11) 0.0088(10) -0.0039(8) 0.0000(9)
O3 0.0159(9) 0.0488(13) 0.0274(10) 0.0058(10) -0.0002(8) -0.0007(8)
O2 0.0149(9) 0.0538(14) 0.0340(11) 0.0142(10) 0.0038(8) 0.0049(9)
C1 0.0121(11) 0.0304(14) 0.0260(14) -0.0049(11) 0.0025(10) 0.0012(10)
C2 0.0120(11) 0.0278(13) 0.0269(13) -0.0050(11) -0.0024(10) 0.0017(9)
C3 0.0122(12) 0.0469(18) 0.0260(14) -0.0035(12) -0.0037(10) 0.0013(11)
C4 0.0141(14) 0.095(3) 0.0262(15) 0.0002(17) 0.0033(11) 0.0041(16)
C6 0.0127(13) 0.104(3) 0.0274(15) -0.0007(19) -0.0010(11) 0.0062(16)
C8 0.0168(12) 0.0393(16) 0.0240(14) -0.0048(12) -0.0041(11) 0.0005(11)
C7 0.0117(11) 0.0479(18) 0.0274(14) -0.0042(13) 0.0009(10) 0.0026(11)
C5 0.0161(14) 0.130(4) 0.0238(16) 0.007(2) -0.0021(12) 0.0058(19)
O6 0.0378(13) 0.0368(13) 0.0379(13) 0.0219(9) -0.0091(10) -0.0031(10)
N1 0.0191(13) 0.175(4) 0.0213(13) 0.000(2) 0.0000(10) 0.004(2)
loop_
_atom_type_symbol
_atom_type_description
_atom_type_scat_dispersion_real
_atom_type_scat_dispersion_imag
_atom_type_scat_source
C C 0.0037 0.0017 'International Tables Vol C Tables 4.2.6.8 and 6.1.1.4'
H H 0.0000 0.0000 'International Tables Vol C Tables 4.2.6.8 and 6.1.1.4'
Fe Fe 0.3621 0.8896 'International Tables Vol C Tables 4.2.6.8 and 6.1.1.4'
N N 0.0070 0.0034 'International Tables Vol C Tables 4.2.6.8 and 6.1.1.4'
O O 0.0123 0.0065 'International Tables Vol C Tables 4.2.6.8 and 6.1.1.4'
loop_
_geom_angle_atom_site_label_1
_geom_angle_atom_site_label_2
_geom_angle_atom_site_label_3
_geom_angle
_geom_angle_site_symmetry_1
_geom_angle_site_symmetry_3
O1 Fe1 O4 96.57(8) . 2_565
O1 Fe1 O5 93.19(9) . 21_455
O1 Fe1 O3 97.23(8) . 15_656
O1 Fe1 O2 93.59(9) . .
O1 Fe1 O6 179.16(12) . .
O4 Fe1 O3 166.13(7) 2_565 15_656
O4 Fe1 O6 83.17(9) 2_565 .
O5 Fe1 O4 89.80(9) 21_455 2_565
O5 Fe1 O3 90.79(9) 21_455 15_656
O5 Fe1 O6 86.02(10) 21_455 .
O3 Fe1 O6 83.05(9) 15_656 .
O2 Fe1 O4 89.69(10) . 2_565
O2 Fe1 O5 173.22(8) . 21_455
O2 Fe1 O3 88.10(9) . 15_656
O2 Fe1 O6 87.21(9) . .
Fe1 O1 Fe1 119.985(4) . 15_656
Fe1 O1 Fe1 119.985(4) 16_665 15_656
Fe1 O1 Fe1 119.985(4) . 16_665
C2 O4 Fe1 130.17(17) . 4_645
C2 O5 Fe1 134.67(18) . 21
C1 O3 Fe1 129.58(17) . 16_665
C1 O2 Fe1 136.50(18) . .
O3 C1 O2 125.5(2) . .
O3 C1 C7 118.7(2) . .
O2 C1 C7 115.8(3) . .
O4 C2 O5 126.4(2) . .
O4 C2 C3 117.9(2) . .
O5 C2 C3 115.6(2) . .
C4 C3 C2 117.9(2) . .
C4 C3 C8 120.2(2) . .
C8 C3 C2 121.9(2) . .
C3 C4 C5 119.4(3) . .
C5 C6 C7 120.0(3) . .
C3 C8 C7 120.0(3) . .
C6 C7 C1 117.6(2) . .
C6 C7 C8 119.6(3) . .
C8 C7 C1 122.8(3) . .
C4 C5 N1 123.1(3) . .
C6 C5 C4 120.6(3) . .
C6 C5 N1 116.2(3) . .
N1 N1 C5 114.4(3) 9_755 .
loop_
_geom_bond_atom_site_label_1
_geom_bond_atom_site_label_2
_geom_bond_distance
_geom_bond_site_symmetry_2
Fe1 O1 1.9177(3) .
Fe1 O4 2.019(2) 2_565
Fe1 O5 2.0176(19) 21_455
Fe1 O3 2.031(2) 15_656
Fe1 O2 2.0007(18) .
Fe1 O6 2.0467(19) .
O4 C2 1.244(3) .
O5 C2 1.249(4) .
O3 C1 1.244(3) .
O2 C1 1.255(3) .
C1 C7 1.492(4) .
C2 C3 1.509(3) .
C3 C4 1.376(4) .
C3 C8 1.385(4) .
C4 C5 1.391(4) .
C6 C7 1.381(4) .
C6 C5 1.374(4) .
C8 C7 1.394(4) .
C5 N1 1.434(4) .
N1 N1 1.192(5) 9_755
loop_
_platon_squeeze_void_nr
_platon_squeeze_void_average_x
_platon_squeeze_void_average_y
_platon_squeeze_void_average_z
_platon_squeeze_void_volume
_platon_squeeze_void_count_electrons
_platon_squeeze_void_content
1 -0.062 -0.046 -0.045 6055 993 '24 C3H7NO'
loop_
_twin_individual_id
_twin_individual_mass_fraction_refined
1 0.99276
2 0.00724
