#------------------------------------------------------------------------------
#$Date: 2020-01-24 03:55:24 +0200 (Fri, 24 Jan 2020) $
#$Revision: 247171 $
#$URL: file:///home/coder/svn-repositories/cod/cif/7/12/58/7125864.cif $
#------------------------------------------------------------------------------
#
# This file is available in the Crystallography Open Database (COD),
# http://www.crystallography.net/
#
# All data on this site have been placed in the public domain by the
# contributors.
#
data_7125864
loop_
_publ_author_name
'Ma, Xue'
'Zhang, Yanhao'
'Gao, Yu'
'Li, Xinglin'
'Wang, Cuijie'
'Yuan, Hang'
'Yu, Ajuan'
'Zhang, Shusheng'
'Cui, Yuanyuan'
_publ_section_title
;
 Revelation of the chiral recognition of alanine and leucine in an
 l-phenylalanine-based metal-organic framework.
;
_journal_issue                   7
_journal_name_full
'Chemical communications (Cambridge, England)'
_journal_page_first              1034
_journal_page_last               1037
_journal_paper_doi               10.1039/c9cc05912a
_journal_volume                  56
_journal_year                    2020
_chemical_absolute_configuration ad
_chemical_formula_sum            'C42 H38 N6 O4 Zn2'
_chemical_formula_weight         821.52
_space_group_crystal_system      monoclinic
_space_group_IT_number           5
_space_group_name_Hall           'C 2y'
_space_group_name_H-M_alt        'C 1 2 1'
_atom_sites_solution_hydrogens   mixed
_audit_creation_method           SHELXL-2018/3
_audit_update_record
;
2019-12-12 deposited with the CCDC.	2019-12-19 downloaded from the CCDC.
;
_cell_angle_alpha                90
_cell_angle_beta                 99.109(6)
_cell_angle_gamma                90
_cell_formula_units_Z            4
_cell_length_a                   20.4932(17)
_cell_length_b                   25.8736(11)
_cell_length_c                   9.6520(4)
_cell_measurement_reflns_used    6705
_cell_measurement_temperature    293(2)
_cell_measurement_theta_max      29.0410
_cell_measurement_theta_min      3.1390
_cell_volume                     5053.3(5)
_computing_structure_refinement  'SHELXL-2018/3 (Sheldrick, 2018)'
_computing_structure_solution    'SHELXT 2014/5 (Sheldrick, 2014)'
_diffrn_ambient_temperature      293(2)
_diffrn_measured_fraction_theta_full 0.999
_diffrn_measured_fraction_theta_max 0.903
_diffrn_measurement_device_type  'RIGKUA SUPERNOVA'
_diffrn_radiation_type           MoK\a
_diffrn_radiation_wavelength     0.71073
_diffrn_reflns_av_R_equivalents  0.0429
_diffrn_reflns_av_unetI/netI     0.0635
_diffrn_reflns_Laue_measured_fraction_full 0.999
_diffrn_reflns_Laue_measured_fraction_max 0.903
_diffrn_reflns_limit_h_max       28
_diffrn_reflns_limit_h_min       -28
_diffrn_reflns_limit_k_max       34
_diffrn_reflns_limit_k_min       -34
_diffrn_reflns_limit_l_max       13
_diffrn_reflns_limit_l_min       -12
_diffrn_reflns_number            28483
_diffrn_reflns_point_group_measured_fraction_full 0.994
_diffrn_reflns_point_group_measured_fraction_max 0.853
_diffrn_reflns_theta_full        25.242
_diffrn_reflns_theta_max         29.774
_diffrn_reflns_theta_min         2.013
_exptl_absorpt_coefficient_mu    0.987
_exptl_crystal_density_diffrn    1.080
_exptl_crystal_description       block
_exptl_crystal_F_000             1696
_exptl_crystal_size_max          0.200
_exptl_crystal_size_mid          0.200
_exptl_crystal_size_min          0.100
_refine_diff_density_max         0.847
_refine_diff_density_min         -0.408
_refine_diff_density_rms         0.069
_refine_ls_abs_structure_details
;
 Refined as an inversion twin.
;
_refine_ls_abs_structure_Flack   0.19(2)
_refine_ls_extinction_method     none
_refine_ls_goodness_of_fit_ref   1.086
_refine_ls_hydrogen_treatment    constr
_refine_ls_matrix_type           full
_refine_ls_number_parameters     513
_refine_ls_number_reflns         12354
_refine_ls_number_restraints     829
_refine_ls_restrained_S_all      1.094
_refine_ls_R_factor_all          0.0869
_refine_ls_R_factor_gt           0.0539
_refine_ls_shift/su_max          0.032
_refine_ls_shift/su_mean         0.003
_refine_ls_structure_factor_coef Fsqd
_refine_ls_weighting_details
'w=1/[\s^2^(Fo^2^)+(0.1000P)^2^] where P=(Fo^2^+2Fc^2^)/3'
_refine_ls_weighting_scheme      calc
_refine_ls_wR_factor_gt          0.1599
_refine_ls_wR_factor_ref         0.1808
_reflns_Friedel_coverage         0.852
_reflns_Friedel_fraction_full    0.989
_reflns_Friedel_fraction_max     0.802
_reflns_number_gt                7732
_reflns_number_total             12354
_reflns_threshold_expression     'I > 2\s(I)'
_cod_data_source_file            c9cc05912a2.cif
_cod_data_source_block           20180205e2-1_c_sq
_cod_original_sg_symbol_H-M      'C 2'
_cod_database_code               7125864
_shelx_shelxl_version_number     2018/3
_shelx_space_group_comment
;
The symmetry employed for this shelxl refinement is uniquely defined
by the following loop, which should always be used as a source of
symmetry information in preference to the above space-group names.
They are only intended as comments.
;
_shelx_estimated_absorpt_t_min   0.827
_shelx_estimated_absorpt_t_max   0.908
_shelx_res_file
;
TITL 20180205E2-1_c.res in C2
    20180205e2-1_c_sq.res
    created by SHELXL-2018/3 at 17:02:49 on 28-Oct-2019
REM Old TITL 20180205e2-1_a.res in C2/c
REM SHELXT solution in C2
REM R1 0.332,  Rweak 0.007,  Alpha 0.043,  Orientation as input
REM Flack x =  0.321 ( 0.011 ) from Parsons' quotients
REM Formula found by SHELXT:  C59 N18 O38 Zn4
CELL  0.71073  20.4932  25.8736   9.6520   90.000   99.109   90.000
ZERR    4  0.0017   0.0011   0.0004    0.000    0.006    0.000
LATT -7
SYMM -X, Y, -Z
SFAC C H N O ZN
UNIT 168 152 24 16 8
LIST 4! automatically inserted. Change 6 to 4 for CHECKCIF!!
SIZE 0.1 0.2 0.2
L.S. 5 0  150
BOND $H
ACTA
FMAP 2
plan 200
SIMU 0.01 0.02 2.5
PLAN 2
ABIN
TWIN
WGHT    0.100000
BASF   0.18629
FVAR       0.22744   0.86817
ZN1   5    0.810380    0.606731    0.624669    11.00000    0.11408    0.02967 =
         0.02062    0.00289    0.00901    0.00434
ZN2   5   10.814269   10.543674   10.128322    11.00000    0.12074    0.02804 =
         0.02135   -0.00247    0.01577   -0.00955
RESI 1
N1    3    0.803300    0.472809    0.028897    11.00000    0.11517    0.03128 =
         0.03599   -0.00660    0.00605   -0.01235
C1    1    0.759608    0.468159   -0.087314    11.00000    0.13269    0.03415 =
         0.04110   -0.00941   -0.00028   -0.00065
AFIX  43
H1    2    0.736797    0.497419   -0.124041    11.00000   -1.20000
AFIX   0
N2    3    0.699764    0.175756   -0.518303    11.00000    0.10156    0.02869 =
         0.02869   -0.00429    0.02034   -0.00927
C2    1    0.746203    0.420124   -0.158188    11.00000    0.13098    0.02493 =
         0.04245   -0.00681    0.01294   -0.01404
AFIX  43
H2    2    0.712091    0.417279   -0.233775    11.00000   -1.20000
AFIX   0
C3    1    0.782478    0.380448   -0.115286    11.00000    0.11640    0.03245 =
         0.04292   -0.01241    0.01137   -0.01083
C4    1    0.832176    0.386004    0.004917    11.00000    0.12032    0.03367 =
         0.06925   -0.01398   -0.00060   -0.00681
AFIX  43
H4    2    0.860503    0.358527    0.032666    11.00000   -1.20000
AFIX   0
C5    1    0.838766    0.429357    0.077550    11.00000    0.11929    0.04009 =
         0.05321   -0.01269    0.00693   -0.00966
AFIX  43
H5    2    0.867547    0.430670    0.162263    11.00000   -1.20000
AFIX   0
C6    1    0.773687    0.327682   -0.184371    11.00000    0.11828    0.02702 =
         0.04268   -0.01413    0.01915   -0.00838
AFIX  43
H6    2    0.799866    0.300574   -0.144085    11.00000   -1.20000
AFIX   0
C7    1    0.730860    0.318294   -0.298526    11.00000    0.11633    0.03362 =
         0.04165   -0.00276    0.00953   -0.00599
AFIX  43
H7    2    0.704717    0.345939   -0.335395    11.00000   -1.20000
AFIX   0
C8    1    0.720307    0.270805   -0.371078    11.00000    0.10564    0.03447 =
         0.03831   -0.00892    0.02263   -0.01287
C9    1    0.678793    0.268513   -0.497069    11.00000    0.11503    0.03854 =
         0.05595   -0.01588   -0.00281   -0.00258
AFIX  43
H9    2    0.658089    0.298101   -0.537330    11.00000   -1.20000
AFIX   0
C10   1    0.667918    0.218343   -0.566486    11.00000    0.11077    0.04360 =
         0.04891   -0.01250    0.00186   -0.00324
AFIX  43
H10   2    0.637228    0.216170   -0.648289    11.00000   -1.20000
AFIX   0
C11   1    0.741363    0.179906   -0.395624    11.00000    0.12320    0.03511 =
         0.04200   -0.00406    0.00078   -0.00192
AFIX  43
H11   2    0.764405    0.150282   -0.362499    11.00000   -1.20000
AFIX   0
C12   1    0.752374    0.221529   -0.318932    11.00000    0.11726    0.04090 =
         0.03567   -0.00307    0.00343   -0.00629
AFIX  43
H12   2    0.779973    0.220327   -0.232676    11.00000   -1.20000
AFIX   0
RESI 0
RESI 2
N1    3    0.713426    0.593172    0.641835    11.00000    0.11426    0.04811 =
         0.02607   -0.00053    0.01377   -0.00134
C1    1    0.678922    0.626429    0.707030    11.00000    0.11978    0.06451 =
         0.04018   -0.00935    0.00581   -0.00450
AFIX  43
H1    2    0.698612    0.657476    0.739206    11.00000   -1.20000
AFIX   0
N2    3    0.286265    0.555984    0.856626    11.00000    0.09920    0.04975 =
         0.03934    0.00346    0.00976    0.01748
C2    1    0.616084    0.616719    0.728295    11.00000    0.12171    0.06274 =
         0.04068   -0.01835    0.01520    0.00485
AFIX  43
H2    2    0.595279    0.641817    0.774736    11.00000   -1.20000
AFIX   0
C3    1    0.582330    0.574457    0.688165    11.00000    0.11319    0.07675 =
         0.03251   -0.01104   -0.00004   -0.00706
C4    1    0.620307    0.535766    0.620219    11.00000    0.11192    0.06258 =
         0.05339   -0.01571    0.02168   -0.01304
AFIX  43
H4    2    0.603473    0.502975    0.596894    11.00000   -1.20000
AFIX   0
C5    1    0.678428    0.549792    0.594609    11.00000    0.13293    0.06014 =
         0.04702   -0.00930    0.01639   -0.00862
AFIX  43
H5    2    0.698406    0.527783    0.537693    11.00000   -1.20000
AFIX   0
C6    1    0.514799    0.557814    0.709587    11.00000    0.13980    0.07013 =
         0.06349   -0.01718    0.01400   -0.01190
AFIX  43
H6    2    0.496408    0.527145    0.671184    11.00000   -1.20000
AFIX   0
C7    1    0.482546    0.587678    0.783817    11.00000    0.11697    0.06876 =
         0.05214   -0.01803    0.00452   -0.00896
AFIX  43
H7    2    0.503622    0.617540    0.821298    11.00000   -1.20000
AFIX   0
C8    1    0.412620    0.577369    0.814045    11.00000    0.10262    0.08666 =
         0.05768    0.00500    0.01447   -0.00432
C9    1    0.381563    0.606534    0.882447    11.00000    0.10218    0.07015 =
         0.05775   -0.00236    0.01188    0.00081
AFIX  43
H9    2    0.403683    0.635386    0.923820    11.00000   -1.20000
AFIX   0
C10   1    0.317906    0.599666    0.901654    11.00000    0.10115    0.06490 =
         0.04177   -0.00066    0.00829    0.00168
AFIX  43
H10   2    0.296437    0.625056    0.945680    11.00000   -1.20000
AFIX   0
C11   1    0.316664    0.520531    0.791569    11.00000    0.10342    0.05642 =
         0.04561   -0.00726    0.01998    0.00603
AFIX  43
H11   2    0.293616    0.490486    0.762314    11.00000   -1.20000
AFIX   0
C12   1    0.382028    0.525487    0.763758    11.00000    0.10570    0.07984 =
         0.05965   -0.00804    0.01849    0.01631
AFIX  43
H12A  2    0.403816    0.500197    0.720075    11.00000   -1.20000
AFIX   0
RESI 0
RESI 3

O1    4    0.800619    0.564956    0.429852    11.00000    0.13468    0.03698 =
         0.02212    0.00255    0.01093    0.01262
N1    3    0.890718    0.560248    0.660941    11.00000    0.14646    0.06631 =
         0.03299   -0.00197   -0.00268    0.03285
AFIX   3
H1A   2    0.923245    0.565703    0.727327    11.00000   -1.20000
AFIX   0
C1    1    0.888810    0.517420    0.566034    11.00000    0.13846    0.05135 =
         0.03107    0.00166    0.01375    0.01867
AFIX  13
H1    2    0.933578    0.509250    0.549129    11.00000   -1.20000
AFIX   0
O2    4    0.857001    0.510431    0.316089    11.00000    0.12407    0.03720 =
         0.02749   -0.00258    0.01427    0.00189
C2    1    0.845212    0.532195    0.427888    11.00000    0.12650    0.02538 =
         0.02907    0.00358    0.01753    0.00883
C3    1    0.859009    0.470584    0.631169    11.00000    0.16216    0.06498 =
         0.06545    0.03793    0.02705    0.01420
AFIX  23
H3A   2    0.886620    0.462196    0.719465    11.00000   -1.20000
H3AB  2    0.815684    0.479954    0.651521    11.00000   -1.20000
AFIX  66
C4    1    0.852252    0.422766    0.538295    11.00000    0.19051    0.07233 =
         0.09122    0.03453    0.03513    0.01697
C5    1    0.909142    0.395336    0.524132    11.00000    0.20998    0.07961 =
         0.11634   -0.00309    0.03054    0.01537
AFIX  43
H5    2    0.949940    0.406261    0.571174    11.00000   -1.20000
AFIX  65

C6    1    0.905055    0.351576    0.439659    11.00000    0.21036    0.09671 =
         0.13104    0.02550    0.02886    0.02069
AFIX  43
H6    2    0.943118    0.333223    0.430184    11.00000   -1.20000
AFIX  65

C7    1    0.844078    0.335246    0.369349    11.00000    0.21196    0.09373 =
         0.11369    0.02112    0.02255    0.01088
AFIX  43
H7    2    0.841344    0.305968    0.312831    11.00000   -1.20000
AFIX  65

C8    1    0.787187    0.362676    0.383511    11.00000    0.21714    0.10808 =
         0.11801    0.03351    0.02921   -0.00374
AFIX  43
H8    2    0.746390    0.351750    0.336469    11.00000   -1.20000
AFIX  65

C9    1    0.791273    0.406436    0.467984    11.00000    0.20550    0.07728 =
         0.09814    0.02581    0.02995    0.00659
AFIX  43
H9    2    0.753209    0.424788    0.477459    11.00000   -1.20000
AFIX   0
RESI 0
REM #####
RESI 4
O1    4    0.837033    0.645906    0.811334    11.00000    0.12364    0.03631 =
         0.01724   -0.00018    0.01219   -0.01747
C1    1    0.833470    0.621589    0.923168    11.00000    0.11038    0.03325 =
         0.01774   -0.00263    0.01083   -0.00944
N1    3    0.874986    0.608134    1.171752    11.00000    0.12637    0.06796 =
         0.02314    0.01519   -0.00814   -0.03351
AFIX   3
H1    2    0.904668    0.611149    1.244986    11.00000   -1.20000
AFIX   0
O2    4    0.806401    0.578985    0.928168    11.00000    0.11830    0.03560 =
         0.02086    0.00119    0.00337   -0.01370
C2    1    0.860810    0.648309    1.060824    11.00000    0.10955    0.03939 =
         0.01763   -0.00073    0.00079   -0.02206
AFIX  13
H2    2    0.826229    0.671009    1.085944    11.00000   -1.20000
AFIX   0
same_4 c3 C4a > C9a
C3    1    0.920519    0.681130    1.049598    11.00000    0.13396    0.07102 =
         0.04210    0.01167   -0.00012   -0.03025
part -1 21.000
AFIX  23
H3A   2    0.912344    0.700023    0.961757    21.00000   -1.20000
H3B   2    0.957904    0.658462    1.045899    21.00000   -1.20000
AFIX  23
part -2 -21.000
H3C   2    0.938659    0.666676    0.971125   -21.00000   -1.20000
H3D   2    0.951963    0.672703    1.132583   -21.00000   -1.20000
AFIX  66
part 0
part -1 21.000
C4    1    0.939907    0.720945    1.172475    21.00000    0.15571    0.09202 =
         0.07609    0.00103    0.00574   -0.00748
C5    1    0.981282    0.708316    1.296243    21.00000    0.16564    0.10712 =
         0.08344   -0.01206   -0.00370   -0.00167
AFIX  43
H5    2    0.997756    0.674903    1.310063    21.00000   -1.20000
AFIX  65
C6    1    0.998034    0.745626    1.399355    21.00000    0.17295    0.09113 =
         0.08746   -0.01036   -0.00248   -0.01503
AFIX  43
H6    2    1.025717    0.737177    1.482164    21.00000   -1.20000
AFIX  65
C7    1    0.973412    0.795566    1.378700    21.00000    0.17468    0.10035 =
         0.09379   -0.01816    0.00617   -0.00299
AFIX  43
H7    2    0.984620    0.820529    1.447689    21.00000   -1.20000
AFIX  65
C8    1    0.932037    0.808196    1.254932    21.00000    0.17100    0.09656 =
         0.10526   -0.01009    0.00391   -0.00648
AFIX  43
H8    2    0.915563    0.841609    1.241113    21.00000   -1.20000
AFIX  65
C9    1    0.915284    0.770886    1.151819    21.00000    0.16408    0.08887 =
         0.09165   -0.00010    0.00452   -0.00518
AFIX  43
H9    2    0.887601    0.779336    1.069010    21.00000   -1.20000
AFIX   0
flat_4 C3 C4a > C9a
part -2 -21.000

C4A   1   10.926682   10.742202   11.032523   -21.00000    0.15880    0.08822 =
         0.08664    0.00249    0.00208   -0.00886
C5A   1    0.986864    0.765277    1.090282   -21.00000    0.16544    0.09558 =
         0.09241   -0.00483    0.00079   -0.00596
AFIX  43
H5A   2    1.019298    0.745390    1.143829   -21.00000   -1.20000
AFIX   0
C6A   1    0.998687    0.816644    1.069144   -21.00000    0.16520    0.09413 =
         0.09572   -0.00449    0.00205   -0.00758
AFIX  43
H6A   2    1.041338    0.829048    1.097014   -21.00000   -1.20000
AFIX   0
C7A   1    0.950112    0.851541    1.007878   -21.00000    0.16635    0.09726 =
         0.09446   -0.00825    0.00105   -0.00516
AFIX  43
H7A   2    0.958109    0.886506    0.995804   -21.00000   -1.20000
AFIX   0
C8A   1    0.888367    0.828310    0.966795   -21.00000    0.16472    0.09607 =
         0.09574   -0.00360    0.00140   -0.00597
AFIX  43
H8A   2    0.851855    0.849540    0.940869   -21.00000   -1.20000
AFIX   0
C9A   1    0.878875    0.774770    0.962812   -21.00000    0.16604    0.09567 =
         0.09462   -0.00485   -0.00113   -0.00670
AFIX  43
H9A   2    0.840222    0.760988    0.913039   -21.00000   -1.20000
part 0

RESI 0
REM #####
AFIX   0
HKLF 4




REM  20180205E2-1_c.res in C2
REM wR2 = 0.180773, GooF = S = 1.08582, Restrained GooF = 1.09401 for all data
REM R1 = 0.053932 for 7732 Fo > 4sig(Fo) and 0.086939 for all 12354 data
REM 513 parameters refined using 829 restraints

END

WGHT      0.0990      0.4215

REM Highest difference peak  0.847,  deepest hole -0.408,  1-sigma level  0.069
Q1    1   0.8480  0.5318  0.1479  11.00000  0.05    0.65
Q2    1   0.8463  0.6182  0.6494  11.00000  0.05    0.59
;
_shelx_res_checksum              82543
_shelx_fab_file
;
    6   34    0      0.46      0.03
    8   34    0      0.60      1.66
    3   33    0     -1.10      1.69
    5   33    0      0.97      2.32
    7   33    0      0.49     -0.38
    9   33    0      1.34     -0.61
    0   32    0      1.43     -1.67
    2   32    0      0.34     -1.24
    4   32    0      1.55     -2.10
    6   32    0      0.48      0.39
    8   32    0     -1.69     -0.90
   10   32    0     -0.32     -0.14
    1   31    0      0.06     -0.80
    3   31    0     -0.91      1.27
    5   31    0      0.25      0.59
    7   31    0      2.12      3.10
   11   31    0     -0.45      0.25
    0   30    0      1.71      0.39
    2   30    0      0.59      1.77
    4   30    0     -3.36      1.47
    6   30    0     -2.97     -0.94
    8   30    0     -1.50     -1.44
   10   30    0     -1.55      0.15
   12   30    0     -0.24      0.74
    1   29    0      3.13     -1.30
    3   29    0      1.47     -0.24
    5   29    0      1.29      4.59
    7   29    0     -0.47      0.55
    9   29    0     -0.34      2.72
   11   29    0      1.90      1.63
   13   29    0     -0.38      0.50
    0   28    0     -0.65      3.83
    2   28    0     -1.42     -1.16
    4   28    0      1.12      2.46
    6   28    0     -0.06      3.44
    8   28    0     -1.72      2.59
   10   28    0     -0.85      0.80
   12   28    0      1.08     -0.76
   14   28    0      3.78      0.71
    1   27    0     -0.25      3.54
    3   27    0     -0.32     -2.04
    5   27    0     -1.69     -5.45
    7   27    0      1.88     -0.24
    9   27    0      0.78     -1.76
   11   27    0     -2.24      0.53
   13   27    0      0.78      0.14
    0   26    0     -0.21      0.63
    2   26    0      2.23      6.50
    4   26    0     -3.07      0.88
    6   26    0     -1.59      2.16
    8   26    0      1.55     -1.57
   10   26    0      0.70     -1.29
   12   26    0     -0.91      4.03
   14   26    0     -3.00      3.59
    1   25    0     -0.32     -3.31
    3   25    0      0.24      0.96
    5   25    0     -3.09      4.12
    7   25    0     -7.19     -0.03
    9   25    0     -4.06     -1.11
   11   25    0      0.37     -0.20
   13   25    0      0.32      4.45
   15   25    0     -1.15      4.40
   17   25    0     -1.54      0.94
    0   24    0      0.69      8.05
    2   24    0     -1.98     -1.07
    4   24    0      2.31      2.65
    6   24    0     -1.12     -1.67
    8   24    0     -0.09      0.40
   10   24    0      0.92      1.31
   12   24    0      0.43     -2.48
   14   24    0      1.22     -1.51
   16   24    0      0.68     -2.61
   18   24    0      0.54     -1.08
    1   23    0      0.41      0.74
    3   23    0     -4.90     -4.54
    5   23    0     -3.23     -6.40
    7   23    0      2.48     -3.46
    9   23    0      3.64      1.88
   11   23    0     -2.27      1.99
   13   23    0     -4.77     -1.41
   15   23    0     -3.93     -0.92
   17   23    0     -1.46      1.58
   19   23    0     -3.78      4.57
    0   22    0     -4.56     -5.49
    2   22    0     -2.07      3.08
    4   22    0     -6.03     -4.68
    6   22    0      1.03     -2.70
    8   22    0      1.87     -2.92
   10   22    0     -1.11     -2.98
   12   22    0     -3.51      1.12
   14   22    0     -5.23     -0.72
   16   22    0     -0.85     -1.83
   18   22    0      0.19     -1.51
   20   22    0     -4.18     -2.68
   22   22    0     -1.34     -1.17
    1   21    0     -6.01     -0.88
    3   21    0      2.08     -2.17
    5   21    0      1.77     -6.64
    7   21    0      3.58     -0.07
    9   21    0     -0.12     -2.79
   11   21    0      1.51     -0.35
   13   21    0      1.25      2.43
   15   21    0     -0.24      1.14
   17   21    0     -1.13      0.55
   19   21    0     -3.31     -3.05
   21   21    0     -0.35     -1.73
    0   20    0     -2.03     -0.19
    4   20    0      4.90     -2.70
    6   20    0     -1.52      4.27
    8   20    0     -0.19      7.71
   10   20    0     -1.94      3.94
   12   20    0     -1.63     -1.91
   14   20    0      1.01     -3.86
   16   20    0     -0.70     -2.54
   18   20    0     -2.66     -1.28
   20   20    0     -0.55     -3.60
   22   20    0      1.13     -2.43
    1   19    0      2.68      0.14
    3   19    0      3.75     -6.69
    5   19    0      3.50     -0.45
    7   19    0     -5.53     -5.12
    9   19    0      0.84      0.13
   11   19    0      0.14     -2.71
   13   19    0      2.07     -2.54
   15   19    0      4.20     -3.80
   17   19    0      2.57     -0.02
   19   19    0      3.89      0.21
   21   19    0      1.86     -2.85
    0   18    0      0.96     -5.35
    2   18    0      3.29      1.68
    4   18    0     11.66     -1.00
    6   18    0      9.65     -3.38
    8   18    0      1.42      0.18
   10   18    0      3.58     -0.17
   12   18    0     -2.28      0.83
   14   18    0     -4.33     -1.02
   16   18    0     -2.20     -2.48
   18   18    0      2.18     -1.89
   20   18    0      6.72     -0.19
   22   18    0      1.80      1.87
    1   17    0      7.55    -14.85
    3   17    0      6.71      1.04
    5   17    0      1.64     -9.20
    7   17    0     -1.37      3.46
    9   17    0     -5.47      1.57
   11   17    0     -1.27      0.95
   13   17    0     -1.26     -1.95
   15   17    0      0.01      1.87
   17   17    0     -1.06      0.47
   19   17    0     -0.96      0.22
   21   17    0      0.63      2.14
   23   17    0     -0.19     -1.15
    0   16    0      2.83    -12.03
    2   16    0      5.78     -2.56
    4   16    0      0.13      1.57
    6   16    0     -0.63     -3.27
    8   16    0      2.22     -4.57
   10   16    0      1.39     -1.70
   12   16    0      5.12     -3.51
   14   16    0      6.21     -0.47
   16   16    0      6.28      1.39
   18   16    0      2.70      0.90
   20   16    0      0.85      1.82
   22   16    0      2.50     -2.21
    1   15    0     -2.00     12.92
    3   15    0     11.35      8.97
    5   15    0     15.40     19.42
    7   15    0      4.47     -3.31
    9   15    0     -3.79      2.82
   11   15    0     -3.47      3.06
   13   15    0     -1.52      3.19
   15   15    0      1.04     -0.36
   17   15    0     -1.20     -1.72
   19   15    0     -3.12      0.78
   21   15    0     -4.57      0.53
   23   15    0     -0.15      1.56
    0   14    0      8.43     12.26
    2   14    0      4.23      3.63
    4   14    0     10.78     15.86
    6   14    0      7.19      9.16
    8   14    0     -7.15     -1.74
   10   14    0     -3.34      0.88
   12   14    0     -0.69     -0.10
   14   14    0      1.35     -1.00
   16   14    0     -1.19     -1.66
   18   14    0     -1.17     -1.53
   20   14    0      0.84     -1.27
   22   14    0      2.67     -0.34
    1   13    0     41.53     -3.47
    3   13    0      3.08     13.64
    5   13    0      0.22      0.17
    7   13    0      4.71     -0.76
    9   13    0      4.61     -8.61
   11   13    0      1.45      0.64
   13   13    0      2.28      2.30
   15   13    0     -1.25      4.50
   17   13    0      0.04      3.48
   19   13    0      0.17      0.80
   21   13    0      2.19      1.08
   23   13    0      1.00      0.62
    0   12    0     10.40    -14.43
    2   12    0    -15.86     20.46
    4   12    0    -39.98     21.42
    6   12    0    -17.13     17.12
    8   12    0      7.88      5.88
   10   12    0     -2.13     -5.67
   12   12    0     -4.09     -2.41
   14   12    0     -6.15     -3.60
   16   12    0     -0.88     -0.94
   18   12    0      1.89      0.18
   20   12    0      0.29      0.90
   22   12    0     -1.39      0.35
   24   12    0      0.55      3.28
    1   11    0     -2.41      6.94
    3   11    0     -4.69     -9.51
    7   11    0      3.34      2.69
    9   11    0      0.71      2.59
   11   11    0     -0.15      0.12
   13   11    0      1.30     -0.04
   15   11    0      5.49     -1.20
   17   11    0      3.52     -3.05
   19   11    0      1.30     -1.24
   21   11    0     -0.28     -1.45
   23   11    0      1.06      1.50
    0   10    0    -18.66    115.11
    2   10    0     -2.05     34.05
    4   10    0     -0.02     -3.28
    6   10    0      1.26     -1.68
    8   10    0     -2.50     -3.40
   10   10    0      2.75     -0.71
   12   10    0     -3.09     -4.41
   14   10    0      0.28      2.89
   16   10    0     -2.19      1.73
   18   10    0     -2.59     -0.65
   20   10    0     -0.13     -0.52
   22   10    0      1.55      0.95
   24   10    0     -2.81      1.82
    1    9    0     -6.99     32.89
    3    9    0    -23.15    -20.42
    5    9    0     -9.53    -14.91
    7    9    0    -20.38      9.55
    9    9    0     -3.13     12.42
   11    9    0     -1.95      0.86
   13    9    0      1.50     -4.10
   15    9    0      0.01     -3.67
   17    9    0     -0.61     -1.78
   19    9    0     -0.79     -2.24
   21    9    0      1.66      0.88
   23    9    0      0.70      0.05
   25    9    0     -7.10      0.22
    0    8    0     33.13    -23.37
    2    8    0      2.73      9.16
    4    8    0      4.87    -13.42
    6    8    0    -12.04    -15.41
    8    8    0      1.55     -5.01
   10    8    0      4.42     -5.87
   12    8    0      8.24      4.02
   14    8    0      2.91      3.46
   16    8    0      2.57      5.75
   18    8    0      2.58      2.68
   20    8    0      0.43      1.43
   22    8    0      0.35      0.89
   24    8    0      0.17     -1.10
   26    8    0     -2.75     -0.56
    1    7    0   -122.98    -34.41
    3    7    0    -27.31      6.47
    5    7    0    -13.04     -8.29
    7    7    0     10.23    -11.22
    9    7    0      1.80    -10.78
   11    7    0      1.63     -2.25
   13    7    0     -4.00     -0.98
   15    7    0     -3.76     -1.25
   17    7    0      0.08     -4.69
   19    7    0      0.98     -3.18
   21    7    0     -2.17     -0.33
   23    7    0     -4.72      2.18
   25    7    0     -1.68     -0.81
   27    7    0     -2.33     -1.38
    0    6    0   -145.04     40.13
    2    6    0    -29.17     -3.80
    4    6    0      6.67      1.90
    6    6    0     14.09      9.50
    8    6    0     -7.77     12.07
   10    6    0     -6.07     12.51
   12    6    0     -3.74      0.30
   14    6    0     -0.16      2.79
   16    6    0      0.37     -0.11
   18    6    0      1.86      1.19
   20    6    0      0.71      1.38
   22    6    0     -1.08      1.70
   24    6    0     -1.55     -0.02
   26    6    0      3.59     -3.96
    1    5    0     15.25     18.75
    3    5    0      6.72    -56.85
    5    5    0     29.27    -36.99
    9    5    0      1.62      2.06
   11    5    0     -2.92     -4.38
   13    5    0      2.22     -2.51
   15    5    0      1.08     -1.26
   17    5    0      2.69      0.28
   19    5    0      2.00     -1.00
   21    5    0     -0.83     -1.11
   23    5    0      0.75     -1.61
   25    5    0      1.81     -0.85
   27    5    0      5.51     -1.27
    0    4    0    102.56    -62.40
    2    4    0     -2.58     -7.23
    4    4    0     10.55     17.30
    6    4    0    -17.63     16.32
    8    4    0     -0.05     10.89
   10    4    0      0.38      3.79
   12    4    0      1.50      3.87
   14    4    0     -1.24     -1.15
   16    4    0     -1.18      2.82
   18    4    0      3.65      3.76
   20    4    0      1.65      2.20
   22    4    0      0.60     -0.77
   24    4    0      0.63     -3.23
   26    4    0     -1.06     -0.75
    3    3    0     18.16    -52.73
    5    3    0      6.62    -12.99
    7    3    0      3.66    -14.84
    9    3    0     -6.78    -17.79
   11    3    0     -0.18     -1.42
   13    3    0      1.62     -0.38
   15    3    0      1.10     -1.57
   17    3    0      0.93      1.85
   19    3    0     -0.20      1.48
   21    3    0      0.78     -2.94
   23    3    0     -0.51     -2.79
   25    3    0     -1.52     -2.88
   27    3    0     -1.35      3.51
    4    2    0     51.89     61.33
    6    2    0     46.79     19.09
    8    2    0      4.72     -3.13
   10    2    0     -1.39     -8.83
   12    2    0     -0.02     -2.34
   14    2    0     -1.63      3.32
   16    2    0     -1.05      1.75
   18    2    0     -4.33      4.56
   20    2    0     -1.52     -0.18
   22    2    0     -1.02      1.46
   24    2    0     -2.86      0.94
   26    2    0     -0.89      2.34
    3    1    0    -86.95     -2.67
    5    1    0    -61.08      3.55
    7    1    0    -21.14      2.76
    9    1    0     -4.53     14.46
   11    1    0     -4.19     -2.45
   13    1    0     -6.49      1.04
   15    1    0     -2.55     -2.10
   17    1    0     -3.95      1.63
   19    1    0     -1.68      2.38
   21    1    0     -0.46      3.42
   23    1    0      0.80      0.93
   25    1    0      2.03     -1.14
   27    1    0     -1.54     -1.01
    2    0    0    243.10      1.78
    4    0    0     55.39      2.99
    6    0    0     10.13      1.19
    8    0    0     21.82      0.75
   10    0    0     19.14      0.35
   12    0    0     10.50     -0.05
   14    0    0      9.08      0.04
   16    0    0      2.49      0.00
   18    0    0     -1.61     -0.97
   20    0    0     -0.12     -0.33
   22    0    0      0.66     -0.66
   24    0    0      7.65     -1.80
   26    0    0      3.50     -2.39
   28    2    0      1.00      2.69
    7    5    0      0.02    -17.17
    5   11    0    -15.82      0.91
   24   14    0      0.11     -1.53
   24   16    0      5.64     -0.66
   24   18    0     -1.75     -0.59
   23   19    0     -2.01     -1.76
    2   20    0      0.79     -9.32
   16   26    0     -3.62      1.43
   15   27    0      0.37      0.68
    9   31    0      1.59      0.45
   -6   34    1     -1.79      0.75
    6   34    1     -2.04      0.29
   -9   33    1     -0.24     -1.81
   -7   33    1      0.04     -1.07
   -5   33    1     -0.54      2.74
   -3   33    1     -0.87      2.72
    3   33    1     -0.14      1.91
    5   33    1      0.25      1.99
    7   33    1      0.59      0.04
    9   33    1     -0.10     -0.32
  -10   32    1     -2.41     -0.78
   -8   32    1     -4.22      0.82
   -6   32    1     -3.73      1.49
   -4   32    1     -0.16     -0.87
   -2   32    1     -1.40     -0.02
    0   32    1      2.14     -1.59
    2   32    1      3.69     -0.24
    4   32    1      3.43     -1.19
    6   32    1      2.47     -1.23
    8   32    1      0.66      0.08
   10   32    1     -0.66      2.06
  -11   31    1     -0.87     -0.37
   -9   31    1      0.54      2.09
   -7   31    1      0.11      3.77
   -5   31    1     -0.14     -1.53
   -3   31    1     -0.01     -0.26
   -1   31    1     -0.75     -0.86
    1   31    1     -0.91     -0.27
    3   31    1      0.87      1.27
    5   31    1     -1.51     -2.78
    7   31    1     -2.06     -0.14
    9   31    1     -1.70      0.83
  -12   30    1      1.60     -0.69
  -10   30    1      3.08     -2.05
   -8   30    1      2.38     -1.85
   -6   30    1     -0.34     -2.99
   -4   30    1     -2.94     -0.53
   -2   30    1      0.55      0.18
    0   30    1     -1.17     -1.15
    2   30    1      0.54      0.52
    4   30    1      0.39      0.21
    6   30    1     -1.89      0.19
    8   30    1      0.07      1.23
   10   30    1      0.30     -1.44
  -13   29    1     -1.12      1.93
  -11   29    1      0.58      1.78
   -9   29    1     -0.65      0.90
   -7   29    1     -1.65     -1.21
   -5   29    1      0.08      2.48
   -3   29    1      2.12      1.50
   -1   29    1      3.16      0.05
    1   29    1      1.11      0.78
    3   29    1     -0.51      2.46
    5   29    1     -0.05      5.67
    9   29    1     -2.03     -0.63
   11   29    1      0.61     -1.59
  -14   28    1      3.21     -0.85
  -12   28    1      0.91     -0.90
  -10   28    1     -0.72     -0.82
   -8   28    1     -1.28     -2.67
   -6   28    1     -0.59     -1.54
   -4   28    1      1.44     -0.45
   -2   28    1     -3.00     -1.17
    0   28    1     -1.70      0.87
    2   28    1     -2.34     -1.63
    4   28    1      0.39      1.69
    6   28    1      3.28     -2.82
    8   28    1     -0.07     -4.13
   10   28    1      1.41     -2.15
   12   28    1      0.71     -0.83
  -15   27    1      1.07      2.27
  -13   27    1     -0.11     -0.06
  -11   27    1     -0.15      1.48
   -9   27    1      1.21      1.60
   -7   27    1      2.53      0.74
   -5   27    1      2.89     -3.54
   -3   27    1      3.54     -1.24
   -1   27    1      1.13      2.34
    1   27    1      3.13      0.69
    3   27    1      1.37      1.18
    5   27    1      1.93     -2.54
    7   27    1      1.95      1.95
    9   27    1      0.99      0.29
   11   27    1     -1.77      1.04
   13   27    1     -0.40      0.77
  -16   26    1     -0.23      0.60
  -14   26    1      0.33      1.91
  -12   26    1     -0.11     -0.71
  -10   26    1     -0.99     -3.19
   -8   26    1     -3.47      0.87
   -6   26    1     -4.78     -1.19
   -4   26    1     -5.10     -1.84
   -2   26    1     -0.51      2.84
    0   26    1      0.20     -1.37
    2   26    1      2.13      3.49
    4   26    1     -2.92     -3.58
    6   26    1     -2.50      0.05
    8   26    1      1.75     -0.31
   10   26    1      0.21     -1.44
   12   26    1     -0.98      1.02
   14   26    1     -1.48     -1.88
  -15   25    1     -0.80      1.64
  -13   25    1     -0.16      3.18
  -11   25    1      1.49      1.25
   -9   25    1      2.65      1.84
   -7   25    1      2.84      1.33
   -5   25    1      3.04      1.05
   -3   25    1      0.11      2.01
   -1   25    1      1.59     -3.73
    1   25    1      1.09     -0.28
    3   25    1      3.28     -0.41
    5   25    1     -0.72      2.57
    7   25    1      0.52     -0.97
    9   25    1      2.65      0.95
   11   25    1      3.05     -0.04
   13   25    1     -0.32      0.58
   15   25    1      0.25      1.68
   17   25    1      1.68      0.76
  -18   24    1     -1.17      0.83
  -16   24    1      0.69     -0.08
  -14   24    1      0.19     -1.15
  -12   24    1     -2.97      0.48
  -10   24    1     -1.79      4.69
   -8   24    1     -1.61     -0.77
   -6   24    1      2.07      1.96
   -4   24    1      4.12      6.86
   -2   24    1      0.34     -1.51
    0   24    1      0.77      0.51
    2   24    1     -1.51     -3.24
    4   24    1      2.02      6.53
    6   24    1     -1.61      3.37
    8   24    1     -1.73      5.00
   10   24    1      1.75      3.63
   12   24    1     -0.36     -2.74
   14   24    1     -0.65     -0.64
   16   24    1      1.61     -1.45
   18   24    1     -1.24      1.52
  -19   23    1      1.39      2.43
  -17   23    1      2.77      0.97
  -15   23    1      0.45      3.32
  -13   23    1     -0.25     -0.93
  -11   23    1     -0.23      1.53
   -9   23    1     -0.21     -2.05
   -7   23    1     -1.85     -8.25
   -5   23    1      2.21     -1.74
   -3   23    1      2.30     -0.88
   -1   23    1      1.28      4.31
    1   23    1      1.28      0.37
    3   23    1     -3.32     -0.49
    5   23    1      1.32     -7.90
    7   23    1     -2.10     -4.19
    9   23    1     -0.98     -1.14
   11   23    1     -1.60     -0.81
   13   23    1     -2.74     -1.71
   15   23    1     -1.86     -0.30
   17   23    1     -2.32      2.42
   19   23    1     -3.82      1.28
   21   23    1     -2.25     -0.51
  -22   22    1      0.36      0.52
  -20   22    1     -2.72      2.12
  -18   22    1      2.87     -0.46
  -16   22    1      0.00      0.30
  -14   22    1     -2.19     -0.58
  -12   22    1     -0.26     -1.54
  -10   22    1      0.91     -0.77
   -8   22    1      4.41      2.57
   -6   22    1      2.96      0.05
   -4   22    1     -2.08     -2.78
   -2   22    1     -3.74      3.27
    0   22    1     -0.66     -0.94
    2   22    1      0.77      8.65
    4   22    1      1.11     -0.67
    6   22    1      6.66      0.26
    8   22    1      1.86      1.83
   10   22    1      0.13      3.64
   12   22    1      0.18      4.58
   14   22    1     -1.63      1.03
   16   22    1     -2.30      2.18
   18   22    1     -3.00      0.88
   20   22    1     -1.99      0.53
  -21   21    1     -2.98     -2.14
  -19   21    1     -2.09      0.51
  -17   21    1     -1.03      1.81
  -15   21    1     -1.91      0.43
  -13   21    1     -0.84      0.55
  -11   21    1     -2.74     -0.96
   -9   21    1     -4.56      1.12
   -7   21    1      1.51      5.73
   -5   21    1     -4.25     -1.12
   -3   21    1     -2.32      2.29
   -1   21    1      3.79     -4.60
    1   21    1      3.10      1.38
    3   21    1      3.46      2.37
    5   21    1     -1.01      2.39
    7   21    1     -2.55     -2.73
    9   21    1     -7.88     -3.93
   11   21    1     -1.29     -3.36
   13   21    1      2.01     -4.34
   15   21    1     -0.61     -2.14
   17   21    1     -3.22     -2.69
   19   21    1     -2.27     -2.69
   21   21    1      1.90     -0.33
  -22   20    1     -0.42     -1.53
  -20   20    1      0.75     -2.71
  -18   20    1     -0.05      1.29
  -16   20    1     -0.79     -0.29
  -14   20    1      1.08     -0.22
  -12   20    1      0.59     -3.82
  -10   20    1     -2.63     -4.07
   -8   20    1     -0.47     -4.01
   -6   20    1      3.57      2.91
   -4   20    1      2.12      7.41
   -2   20    1      6.83     -2.19
    0   20    1      2.25      2.47
    2   20    1     -1.03     -4.04
    4   20    1      2.14      6.84
    6   20    1      1.40      3.74
    8   20    1      1.55     -0.46
   10   20    1     -0.46      1.60
   12   20    1      2.88     -1.79
   14   20    1      2.46     -1.50
   16   20    1     -1.57     -2.11
   18   20    1     -1.60     -4.70
   20   20    1      1.62     -3.07
  -23   19    1     -3.11      2.76
  -21   19    1     -0.83     -1.16
  -19   19    1     -1.20     -0.97
  -17   19    1     -1.12      0.44
  -15   19    1     -0.85      1.47
  -13   19    1     -0.51      2.59
  -11   19    1     -3.68      1.63
   -9   19    1     -2.70      3.00
   -7   19    1     -4.27     -0.76
   -5   19    1      1.48     11.22
   -3   19    1     -1.84     -0.93
   -1   19    1     -2.09      5.76
    1   19    1     -3.06     -0.38
    3   19    1     -4.23     -0.41
    5   19    1      3.51      6.20
    7   19    1      3.50      0.13
    9   19    1      3.96      0.99
   11   19    1     -0.34      1.88
   13   19    1      0.62      1.02
   15   19    1      0.67     -0.75
   17   19    1      1.08     -1.12
   19   19    1      0.63     -1.11
   21   19    1     -2.04      0.46
  -22   18    1      3.05      2.64
  -20   18    1     -0.30      0.03
  -18   18    1     -3.00     -2.28
  -16   18    1     -1.48     -2.24
  -14   18    1     -0.91     -4.40
  -12   18    1      1.33     -3.51
  -10   18    1      3.33     -4.43
   -8   18    1      1.59     -2.32
   -6   18    1     -3.63     -0.52
   -4   18    1     -1.76     -3.78
   -2   18    1     -1.49      1.84
    0   18    1      9.58     -0.10
    2   18    1     -0.07      1.13
    4   18    1     -8.02     -1.05
    6   18    1     -3.58     -0.95
    8   18    1     -2.74     -5.90
   10   18    1     -1.13     -6.08
   12   18    1     -1.66      0.33
   14   18    1     -0.35     -0.95
   16   18    1      2.66     -4.26
   18   18    1      4.02     -5.18
   20   18    1      1.68     -3.28
   22   18    1     -1.58      1.30
  -23   17    1      2.92     -2.17
  -21   17    1      2.92      0.00
  -19   17    1     -0.36      0.67
  -17   17    1     -0.52      1.31
  -15   17    1     -0.57      1.61
  -13   17    1      1.55     -0.24
  -11   17    1      4.88      1.38
   -9   17    1      1.90     -3.12
   -7   17    1     -2.90      2.99
   -5   17    1    -18.57    -12.54
   -3   17    1    -13.55      3.63
   -1   17    1     -1.08      3.35
    1   17    1      2.23      8.17
    3   17    1     -8.97      5.08
    5   17    1    -11.52     -3.99
    7   17    1      1.95      1.39
    9   17    1      1.37     -3.36
   11   17    1      1.49      2.83
   13   17    1      3.53      5.34
   15   17    1      3.40      4.10
   17   17    1      3.81      1.35
   19   17    1      2.24      1.00
   21   17    1     -0.69      3.24
  -22   16    1     -3.91     -2.09
  -20   16    1     -0.58     -0.61
  -18   16    1      2.23     -1.35
  -16   16    1      0.03     -2.78
  -14   16    1     -0.34     -2.34
  -12   16    1      2.71     -2.41
  -10   16    1      2.78     -1.17
   -8   16    1      6.48      1.99
   -6   16    1      1.94     -2.77
   -4   16    1     -7.64     -4.77
   -2   16    1      2.69      2.13
    0   16    1     -4.63      5.05
    2   16    1     -0.86      1.65
    4   16    1     -9.57     -1.19
    6   16    1     -4.30      5.68
    8   16    1      8.42      5.82
   10   16    1     -0.53      0.83
   12   16    1     -1.75     -1.46
   14   16    1     -1.73     -1.83
   16   16    1     -1.23     -0.31
   18   16    1      1.74      0.44
   20   16    1     -0.13      0.75
   22   16    1      0.89     -4.42
  -23   15    1     -2.57      0.23
  -21   15    1     -2.61     -1.80
  -19   15    1      2.78     -2.34
  -17   15    1      3.31     -0.79
  -15   15    1      4.25      0.66
  -13   15    1      3.28      4.37
  -11   15    1     -2.24     -1.22
   -9   15    1     -6.87      0.21
   -7   15    1     -5.18    -10.57
   -5   15    1      1.79     -1.33
   -3   15    1      3.97     -9.28
   -1   15    1     -6.93     14.11
    1   15    1     -7.40      3.08
    3   15    1      5.92    -16.71
    5   15    1     -2.34     -3.11
    7   15    1     -4.24     -0.41
    9   15    1      1.84      1.69
   11   15    1      2.88     -4.14
   13   15    1      3.77     -1.35
   15   15    1      3.41     -1.14
   17   15    1      1.74      0.12
   19   15    1      1.00      1.28
   21   15    1     -0.79     -2.44
  -24   14    1     -0.71      0.92
  -22   14    1      2.49      2.55
  -20   14    1      1.44      0.13
  -18   14    1     -0.63      1.63
  -16   14    1     -1.62      2.38
  -14   14    1      1.86      4.22
  -12   14    1      3.12      3.30
  -10   14    1      5.49     -0.32
   -8   14    1      2.96     -4.19
   -6   14    1      9.88     -4.73
   -4   14    1     18.88     -8.18
   -2   14    1     -7.32     -5.09
    0   14    1    -15.44     15.59
    2   14    1     -4.72     -5.82
    4   14    1     14.40    -14.43
    6   14    1      6.24     -6.56
    8   14    1     -5.86      3.46
   10   14    1     -0.66      2.88
   12   14    1     -7.72      1.99
   14   14    1     -6.42      5.12
   16   14    1     -4.22      2.28
   18   14    1     -0.61      2.38
   20   14    1      3.35     -0.64
   22   14    1      2.27      2.02
  -23   13    1      0.23      0.49
  -21   13    1      2.82     -0.05
  -19   13    1      0.33     -1.41
  -17   13    1      0.16     -3.47
  -15   13    1     -1.99     -4.75
  -13   13    1     -0.11     -1.54
  -11   13    1     -0.53      6.69
   -9   13    1      2.03      8.27
   -7   13    1     -1.41     14.36
   -5   13    1      7.44    -13.29
   -3   13    1     -1.70    -11.17
   -1   13    1    -13.19    -19.82
    1   13    1     -9.03      3.59
    3   13    1     -8.10      5.04
    5   13    1     -0.15    -15.83
    7   13    1     -6.17     -0.51
    9   13    1     -0.86      3.50
   11   13    1      1.56      1.64
   13   13    1      0.51     -0.55
   15   13    1      1.73     -1.57
   17   13    1      2.53     -0.08
   19   13    1      1.62     -0.77
   21   13    1      1.05      0.27
   23   13    1      1.84     -1.48
  -24   12    1      0.77     -2.39
  -22   12    1     -0.71     -2.48
  -20   12    1      1.07      0.06
  -18   12    1     -0.09      1.03
  -16   12    1     -1.07      1.48
  -14   12    1     -5.70      2.16
  -12   12    1     -2.41      2.79
  -10   12    1     -0.97     -4.73
   -8   12    1      0.34     -5.14
   -6   12    1     -7.81    -13.96
   -4   12    1    -10.19    -12.45
   -2   12    1     -1.72     -1.49
    0   12    1      0.26    -26.22
    2   12    1      6.24     10.03
    4   12    1     -5.31      0.50
    6   12    1    -13.13     -9.75
    8   12    1     -2.36     -4.48
   10   12    1     -0.50     -1.49
   12   12    1      5.46      4.68
   14   12    1      0.19      1.49
   16   12    1      2.31      2.46
   18   12    1      1.87      2.20
   20   12    1     -0.19      1.01
   22   12    1      0.42     -1.36
   24   12    1      1.57     -1.19
  -25   11    1      2.26     -0.02
  -23   11    1     -2.28     -2.43
  -21   11    1     -1.06     -0.14
  -19   11    1      1.50      0.91
  -17   11    1      0.84     -0.58
  -15   11    1     -0.16      2.83
  -13   11    1     -5.72      8.79
  -11   11    1      2.55      7.86
   -9   11    1      4.48      6.39
   -7   11    1     17.71     -4.45
   -5   11    1     13.11     13.99
   -3   11    1     18.36     14.85
   -1   11    1     -3.61      5.29
    1   11    1    -11.99    -23.44
    3   11    1     27.53     -2.65
    5   11    1     23.98      9.78
    7   11    1     16.67     -0.13
    9   11    1      3.81     -2.06
   11   11    1      1.16     -0.68
   13   11    1     -1.55     -2.74
   15   11    1     -2.67     -1.25
   17   11    1     -0.92     -0.38
   19   11    1     -1.37      2.25
   21   11    1     -0.01      0.58
   23   11    1     -0.38      3.08
  -24   10    1     -0.93     -2.54
  -22   10    1     -0.33     -2.41
  -20   10    1     -0.33      0.17
  -18   10    1      2.30      1.06
  -16   10    1      2.48     -0.43
  -14   10    1      2.35     -1.51
  -12   10    1     -3.94     -4.22
  -10   10    1     -7.15      3.42
   -8   10    1    -13.06      1.96
   -6   10    1     11.19      6.53
   -4   10    1     21.62     10.58
   -2   10    1      2.23    -20.00
    0   10    1    -37.72     -5.04
    2   10    1    -28.07    -28.08
    4   10    1      9.13     -2.07
    6   10    1      9.85     -0.31
    8   10    1    -10.16     -3.51
   10   10    1     -5.62      2.59
   12   10    1     -5.70     -6.66
   14   10    1      1.34     -2.41
   16   10    1      0.42     -1.10
   18   10    1     -1.22      0.02
   20   10    1      0.01     -0.23
   22   10    1      0.17     -0.84
   24   10    1     -0.91      2.48
  -23    9    1      6.81      3.34
  -21    9    1      2.38      2.81
  -19    9    1      0.73      1.04
  -17    9    1      1.88      1.21
  -15    9    1      0.34     -3.64
  -13    9    1      0.43     -5.78
  -11    9    1     -9.11     -2.95
   -9    9    1     -4.22     -1.47
   -7    9    1      2.18      3.85
   -5    9    1     42.77     -6.92
   -3    9    1     24.62    -17.49
   -1    9    1     28.97    -32.22
    1    9    1     32.56      8.12
    3    9    1      3.84      3.91
    5    9    1     16.39     -6.20
    7    9    1     -3.98    -13.30
    9    9    1     -5.36      1.17
   11    9    1     -5.54      1.04
   13    9    1     -2.93      2.46
   15    9    1     -0.18      0.53
   17    9    1     -2.97      1.60
   19    9    1     -1.95     -0.15
   21    9    1      0.22      1.59
   23    9    1      0.42      0.51
   25    9    1     -4.50      2.10
  -26    8    1     -2.22      1.56
  -24    8    1      2.90     -0.19
  -22    8    1      1.49      0.66
  -20    8    1      0.77     -0.66
  -18    8    1     -1.57      1.34
  -16    8    1     -3.38      0.30
  -14    8    1     -5.86     -2.82
  -12    8    1     -2.79      2.38
  -10    8    1     -2.26     -1.47
   -8    8    1      2.26     11.16
   -6    8    1    -13.66     37.55
   -4    8    1    -23.03     45.89
   -2    8    1    -28.47     41.30
    0    8    1     34.07    -14.31
    2    8    1      9.85     44.36
    4    8    1    -13.26     44.58
    6    8    1      0.71     19.08
    8    8    1     14.75      8.91
   10    8    1      7.52     -2.11
   12    8    1      4.72      5.98
   14    8    1     -1.77     -0.72
   16    8    1     -1.21      0.50
   18    8    1      0.50      0.52
   20    8    1      1.11     -0.29
   22    8    1      0.22      1.77
   24    8    1     -3.04     -1.24
   26    8    1     -5.46      4.62
  -27    7    1     -1.02     -0.91
  -25    7    1      2.40      1.13
  -23    7    1     -1.96      0.09
  -21    7    1     -0.57     -0.60
  -19    7    1     -0.63      0.92
  -17    7    1      1.33     -0.71
  -15    7    1      4.14     -3.08
  -13    7    1     -1.47     -3.73
  -11    7    1      2.38     -8.50
   -9    7    1     -3.77    -18.74
   -7    7    1      3.02    -20.17
   -5    7    1    -32.20     -0.60
   -3    7    1      3.07    -18.04
   -1    7    1     25.52    -67.96
    1    7    1     12.88   -108.38
    3    7    1      2.85    -17.35
    5    7    1    -15.03      1.86
    7    7    1      3.79      3.09
    9    7    1     -9.80    -12.48
   11    7    1     -5.57     -1.86
   13    7    1      0.17     -1.20
   15    7    1     -0.43     -1.33
   17    7    1      0.34     -1.74
   19    7    1      0.52     -1.31
   21    7    1      0.05      0.14
   23    7    1     -0.53     -0.02
   25    7    1      0.60     -3.30
  -26    6    1      0.37      0.17
  -24    6    1     -1.54      1.60
  -22    6    1     -0.60     -0.41
  -20    6    1     -0.18      0.67
  -18    6    1     -3.35      2.61
  -16    6    1     -1.51      3.52
  -14    6    1     -2.94      5.00
  -12    6    1     -2.12     -1.87
  -10    6    1      4.07      1.27
   -8    6    1     -1.28      5.93
   -6    6    1     -3.17     21.60
   -4    6    1    -13.50     56.91
   -2    6    1     62.89     52.27
    0    6    1     18.68     85.40
    2    6    1     13.84     38.46
    4    6    1     13.43     40.38
    6    6    1     31.81     28.93
    8    6    1     17.47      2.37
   10    6    1      9.09      3.86
   12    6    1      4.67     -2.84
   14    6    1      3.84      3.30
   16    6    1      1.24     -0.03
   18    6    1      0.78     -1.61
   20    6    1      2.17     -0.62
   22    6    1      0.17      0.71
   24    6    1      1.23      1.74
   26    6    1     -1.65     -3.69
  -27    5    1     -2.11     -1.45
  -25    5    1     -3.36     -0.14
  -23    5    1     -0.14      0.93
  -21    5    1      0.28      0.88
  -19    5    1     -0.06     -2.04
  -17    5    1     -0.04     -3.37
  -15    5    1      3.50     -5.01
  -13    5    1      3.58     -5.71
  -11    5    1      2.46      0.87
   -9    5    1      7.48     10.67
   -7    5    1    -15.54      1.60
   -5    5    1    -19.79    -41.01
   -1    5    1     -9.35    -18.04
    1    5    1    -22.29     16.74
    5    5    1    -38.63    -23.43
    7    5    1    -19.23     -7.90
    9    5    1     -0.89      8.22
   11    5    1     -4.66     -8.37
   13    5    1     -8.15     -9.62
   15    5    1     -2.57     -5.86
   17    5    1     -2.35     -1.55
   19    5    1     -0.80      0.92
   21    5    1     -1.97     -0.56
   23    5    1     -0.91     -2.22
   25    5    1     -0.85     -2.58
   27    5    1     -3.35     -4.35
  -28    4    1      0.89     -0.36
  -26    4    1     -1.87      2.20
  -24    4    1      2.50      2.63
  -22    4    1      0.98      1.46
  -20    4    1     -0.50      1.58
  -18    4    1     -0.98      0.78
  -16    4    1      1.83      5.17
  -14    4    1      7.08     -0.47
  -12    4    1     -0.91      0.59
  -10    4    1     -7.38     -1.59
   -8    4    1     -7.10     -0.84
   -6    4    1     -3.00      2.19
   -4    4    1     34.47    -12.55
   -2    4    1     18.70     63.65
    0    4    1    145.89     64.67
    2    4    1     56.00     17.84
    6    4    1    -27.38      4.33
    8    4    1     -2.05     10.80
   10    4    1      7.38     -0.06
   12    4    1      4.19      3.67
   14    4    1      3.88     -0.20
   16    4    1      3.79      0.78
   18    4    1      1.52      1.13
   20    4    1     -0.52      1.89
   22    4    1     -1.38      0.16
   24    4    1      0.74      1.50
   26    4    1      1.54      1.09
  -27    3    1     -1.65      1.08
  -25    3    1      0.92      4.93
  -23    3    1      1.31      1.88
  -21    3    1      0.96     -0.07
  -19    3    1     -0.34     -1.79
  -17    3    1     -2.08     -2.05
  -15    3    1      0.14      2.44
  -13    3    1      3.27     -1.06
  -11    3    1      6.45      0.81
   -9    3    1      7.97    -12.51
   -7    3    1     13.29    -15.10
   -5    3    1    -16.79     -9.41
   -3    3    1    -43.59      6.95
   -1    3    1   -100.62     52.27
    1    3    1    -50.23     -9.07
    3    3    1      3.60     28.59
    5    3    1    -25.18     -0.05
    7    3    1     -7.87     23.04
    9    3    1    -10.25      0.52
   11    3    1     -7.33     13.71
   13    3    1     -5.09      9.54
   15    3    1     -4.34      6.09
   17    3    1     -1.65      0.82
   19    3    1     -1.18      1.11
   21    3    1     -0.28     -0.87
   23    3    1     -2.76      0.36
   25    3    1     -0.28      0.94
   27    3    1      2.95     -0.83
  -28    2    1     -1.09     -3.20
  -26    2    1      1.96     -4.42
  -24    2    1     -0.98     -1.33
  -22    2    1      0.16     -0.68
  -20    2    1      0.79      0.55
  -18    2    1      0.24     -1.87
  -16    2    1     -1.25     -0.19
  -14    2    1     -3.20      1.94
  -12    2    1      0.20     -4.18
  -10    2    1     -5.33     -0.74
   -8    2    1     -7.23     -3.37
   -6    2    1      3.05    -18.10
   -4    2    1     -3.13    -33.34
   -2    2    1     32.05    -72.64
    0    2    1    -80.00    -25.39
    2    2    1     76.68    -13.28
    4    2    1     81.24    -29.61
    6    2    1     40.21    -13.12
    8    2    1      8.50     -2.04
   10    2    1      2.13      0.38
   12    2    1     12.45     -5.36
   14    2    1      9.53     -5.26
   16    2    1      5.82     -3.10
   18    2    1      1.95     -1.03
   20    2    1      2.57      2.41
   22    2    1      1.91     -0.05
   24    2    1     -1.56     -1.33
   26    2    1      1.89     -2.76
  -27    1    1      2.95     -3.92
  -25    1    1     -1.01     -1.95
  -23    1    1     -1.50      1.82
  -21    1    1     -1.77      1.36
  -19    1    1     -0.37     -1.94
  -17    1    1      0.48     -1.38
  -15    1    1     -3.43      4.64
  -13    1    1     -1.26      5.48
  -11    1    1      0.44     -2.77
   -9    1    1      4.14     10.28
   -7    1    1      2.94     13.12
   -5    1    1     11.03     14.40
   -3    1    1      3.53      0.69
   -1    1    1    -23.78     -3.75
    1    1    1    -54.35    102.69
    3    1    1    -26.54    -12.58
    5    1    1     -2.91    -17.95
    7    1    1    -18.82    -21.53
    9    1    1    -13.48      4.33
   11    1    1    -11.16     -7.05
   13    1    1     -5.35     -3.98
   15    1    1     -3.03     -0.09
   17    1    1     -2.58      0.80
   19    1    1     -2.76     -2.13
   21    1    1     -1.70     -0.63
   23    1    1      0.85     -4.06
   25    1    1     -0.69      0.13
  -28    0    1      1.36      0.24
  -26    0    1     -4.86      1.32
  -24    0    1     -4.57      1.62
  -22    0    1     -0.52      1.17
  -20    0    1      1.04      0.14
  -18    0    1      5.30     -0.48
  -16    0    1      0.44     -1.61
  -14    0    1      2.75     -0.43
  -12    0    1      3.45      0.42
  -10    0    1      4.21      0.68
   -8    0    1      1.85      0.40
   -6    0    1      2.40      1.38
   -4    0    1     53.00     -2.39
   -2    0    1     27.41     -2.74
    2    0    1    -50.32      2.43
    4    0    1    -16.26      0.74
    6    0    1     -8.79     -0.44
    8    0    1      9.21     -0.48
   10    0    1     15.76     -1.80
   12    0    1      0.17     -2.19
   14    0    1     -0.47     -0.68
   16    0    1     -1.24      0.21
   18    0    1      2.65     -0.33
   20    0    1     -2.16     -0.48
   22    0    1      0.19      0.05
   24    0    1      0.81     -0.48
   26    0    1     -1.46      0.08
    4    4    1    -12.76    -16.54
   -3    5    1    -53.39    -54.74
    3    5    1    -80.19    -74.01
   27    7    1     -2.94     -2.59
  -25    9    1      2.26      1.90
   24   14    1      0.45      1.84
   23   15    1     -1.08      0.71
   24   16    1      1.59     -2.76
   23   17    1      0.56     -0.87
   22   20    1      2.60     -2.59
  -17   25    1     -5.30      0.97
  -18   26    1      1.48     -2.77
   16   26    1     -2.00     -0.26
  -17   27    1      4.24      2.29
   15   27    1     -0.76      0.18
  -16   28    1      5.70      2.07
   14   28    1     -0.22      3.29
  -15   29    1      0.71     -2.32
    7   29    1     -0.98      0.50
   13   29    1     -2.18      1.40
  -14   30    1      1.22     -1.06
   12   30    1      1.33      0.30
  -13   31    1     -0.02     -1.33
   11   31    1     -3.08     -0.53
  -12   32    1      0.21     -1.06
  -11   33    1     -0.30     -1.97
   -1   33    1     -1.68      4.28
    1   33    1     -0.10      3.30
   -8   34    1      0.34      1.46
   -6   34    2     -1.36      0.39
    6   34    2      2.12     -1.28
   -9   33    2      0.33      0.90
   -7   33    2     -0.66      1.17
    3   33    2     -1.87      1.17
    5   33    2      1.54      0.06
    7   33    2      1.51     -0.58
  -10   32    2     -0.78     -1.69
   -8   32    2     -2.20     -3.61
    0   32    2     -0.30     -0.12
    2   32    2     -1.01     -0.82
    4   32    2      0.48     -2.21
    6   32    2      0.60      1.06
    8   32    2     -1.03      0.71
  -11   31    2      0.68      1.26
   -9   31    2     -0.45      0.91
   -7   31    2     -0.89      0.88
   -5   31    2      2.17     -0.03
   -3   31    2     -0.16      0.44
   -1   31    2      0.77      1.67
    1   31    2     -0.02      2.44
    3   31    2      0.19      1.35
    5   31    2     -1.55      1.64
  -12   30    2      4.54      0.48
   -8   30    2     -1.60     -3.31
   -6   30    2     -1.27     -1.76
   -4   30    2     -3.81      1.29
   -2   30    2     -1.80      1.06
    0   30    2     -0.38      0.30
    2   30    2      1.28      0.95
    4   30    2     -0.57      0.50
    6   30    2     -2.28      1.21
    8   30    2      0.47      1.52
   10   30    2     -0.20      1.18
  -13   29    2     -0.09      0.90
  -11   29    2      1.38      0.14
   -9   29    2      0.56     -0.98
   -7   29    2      3.12     -1.95
   -5   29    2      1.29      1.62
   -3   29    2      0.71      0.95
   -1   29    2      0.19     -1.73
    1   29    2      0.80     -1.18
    3   29    2      1.03     -0.73
    5   29    2      1.04      1.15
    7   29    2      0.54     -2.86
    9   29    2      1.81      0.71
   11   29    2      1.70      1.91
  -14   28    2     -1.22     -0.42
  -12   28    2     -1.94      0.19
  -10   28    2     -1.09      0.37
   -8   28    2      0.86     -1.53
   -6   28    2     -1.03      1.11
   -4   28    2     -1.23      2.24
   -2   28    2     -1.85     -0.36
    0   28    2     -1.01      1.36
    2   28    2     -2.64     -1.47
    4   28    2     -1.09      0.20
    6   28    2      0.60     -2.29
    8   28    2     -1.72     -2.28
   10   28    2      2.58      0.78
   12   28    2      0.07     -1.08
  -15   27    2     -0.59      0.55
  -13   27    2     -1.20     -0.61
  -11   27    2     -1.71      0.50
   -9   27    2      2.84     -2.28
   -7   27    2      1.88     -2.85
   -5   27    2      0.32     -3.78
   -3   27    2      0.05     -4.61
   -1   27    2     -0.08      0.49
    1   27    2     -0.06      0.74
    3   27    2     -1.86     -0.47
    5   27    2      1.37     -3.57
    7   27    2      0.08      1.44
    9   27    2     -1.71     -0.56
   11   27    2     -2.84     -0.68
   13   27    2     -0.67     -1.01
  -14   26    2      1.65      1.32
  -12   26    2      0.98      1.39
  -10   26    2      1.57     -0.75
   -8   26    2      2.89      1.73
   -6   26    2      0.26      0.37
   -4   26    2     -3.00     -3.54
   -2   26    2     -2.08     -1.00
    0   26    2     -0.61     -1.36
    2   26    2      1.97      0.58
    4   26    2      2.23     -3.98
    6   26    2      1.33      2.04
    8   26    2      1.85      2.29
   10   26    2     -4.33     -1.02
   12   26    2     -1.11     -0.17
   14   26    2      1.55     -3.34
  -15   25    2      1.20     -1.95
  -13   25    2      1.37      1.11
  -11   25    2      3.28      0.02
   -9   25    2      0.68      1.44
   -7   25    2      1.51      0.89
   -5   25    2     -0.79     -2.55
   -3   25    2      0.58     -2.37
   -1   25    2      3.17     -2.53
    1   25    2     -0.06      1.95
    3   25    2      2.64      0.67
    5   25    2     -3.13      7.25
    7   25    2     -1.30      2.45
    9   25    2     -1.16      1.83
   11   25    2      0.17      0.62
   13   25    2      2.98      0.43
   15   25    2     -0.38      2.25
   17   25    2     -0.63     -0.06
  -18   24    2     -3.53     -2.12
  -16   24    2      1.69      0.60
  -14   24    2     -0.48      0.38
  -12   24    2      0.07     -1.28
  -10   24    2      2.98      0.59
   -8   24    2      2.19     -0.29
   -6   24    2      4.15      1.72
   -4   24    2      3.68      2.52
   -2   24    2      4.66     -3.81
    0   24    2      0.10     -0.98
    2   24    2      0.41     -5.11
    4   24    2      2.31      2.50
    6   24    2      1.06     -1.11
    8   24    2     -0.69     -3.03
   10   24    2      2.49     -0.37
   12   24    2      1.94     -1.54
   14   24    2      1.20      3.19
   16   24    2      2.96     -0.71
   18   24    2     -0.86     -2.36
  -19   23    2     -4.53     -2.07
  -17   23    2     -0.86     -1.09
  -15   23    2     -0.35      0.14
  -13   23    2     -1.33     -3.29
  -11   23    2     -1.68      1.73
   -9   23    2      2.35      2.07
   -7   23    2     -0.57      0.62
   -5   23    2      1.49      1.04
   -3   23    2      1.18     -2.45
   -1   23    2     -2.17      1.10
    1   23    2      0.87     -1.60
    3   23    2     -2.56      2.07
    5   23    2      0.19     -0.41
    7   23    2     -4.19      3.50
    9   23    2     -2.13      1.37
   11   23    2     -0.72      0.69
   13   23    2     -0.90      2.60
   15   23    2      1.64      1.41
   17   23    2      0.07      0.06
   19   23    2     -0.63     -1.05
  -20   22    2     -3.96      0.43
  -18   22    2      1.19      0.13
  -16   22    2     -0.75      0.63
  -14   22    2      0.57     -1.20
  -12   22    2     -0.43      1.17
  -10   22    2     -1.53      1.35
   -8   22    2      1.71      2.85
   -6   22    2     -1.31      0.45
   -4   22    2      4.13     -2.98
   -2   22    2      4.12      5.01
    0   22    2      8.99     -1.18
    2   22    2      4.53      1.02
    4   22    2     -2.53     -6.91
    6   22    2     -4.36     -2.32
    8   22    2     -0.49     -1.47
   10   22    2     -1.66     -3.68
   12   22    2     -1.43      1.57
   14   22    2     -1.29      0.27
   16   22    2     -2.47      0.24
   18   22    2      1.66     -1.42
   20   22    2     -0.29     -3.08
  -21   21    2      0.11     -1.18
  -19   21    2      1.50     -1.69
  -17   21    2     -0.98      0.14
  -15   21    2      0.62      0.13
  -13   21    2      4.24      4.50
  -11   21    2      3.26      3.32
   -9   21    2     -1.49      1.96
   -7   21    2      1.36      1.16
   -5   21    2     -3.02     -6.34
   -3   21    2     -0.03      1.58
   -1   21    2      1.29      2.20
    1   21    2     -2.81      3.94
    3   21    2      1.86     -0.69
    5   21    2     -5.46     -1.49
    7   21    2      1.24     -5.08
    9   21    2      1.75     -5.55
   11   21    2      0.14     -1.36
   13   21    2     -0.42      1.67
   15   21    2     -2.44      2.27
   17   21    2      2.74      2.10
   19   21    2      4.31      0.84
  -22   20    2     -1.21     -2.37
  -20   20    2      2.04     -4.55
  -18   20    2     -2.41     -1.10
  -16   20    2     -2.31     -0.62
  -14   20    2     -0.91      1.22
  -12   20    2     -1.77      1.17
  -10   20    2     -3.09      3.29
   -8   20    2     -1.79      3.98
   -6   20    2      7.50      1.08
   -4   20    2      5.20     -0.84
   -2   20    2      6.54     -6.33
    0   20    2     -7.93      1.09
    2   20    2      1.67     -1.25
    4   20    2      5.71      5.95
    6   20    2     -0.07      1.79
    8   20    2     -1.21      0.01
   10   20    2     -0.88     -0.10
   12   20    2     -2.55     -0.98
   14   20    2     -4.39      0.44
   16   20    2     -1.44     -1.05
   18   20    2     -0.29     -0.13
   20   20    2     -0.69      0.37
  -23   19    2     -3.89     -3.87
  -21   19    2      0.77     -4.19
  -19   19    2      2.04     -0.89
  -17   19    2      3.58      2.31
  -15   19    2      3.34      1.84
  -13   19    2     -0.71     -0.23
  -11   19    2     -4.50     -1.57
   -9   19    2     -2.75      0.89
   -7   19    2     -5.69      0.56
   -5   19    2      5.10     10.07
   -3   19    2      4.42      5.32
   -1   19    2     -3.17     11.00
    1   19    2      0.60      5.50
    3   19    2      2.68     -0.31
    5   19    2      4.38     -5.33
    7   19    2     -3.69     -2.28
    9   19    2      3.05      1.81
   11   19    2      4.89     -1.69
   13   19    2      1.93     -0.62
   15   19    2      1.68     -2.22
   17   19    2      0.49     -0.71
   19   19    2      1.01      2.03
   21   19    2      3.75      1.37
  -22   18    2      2.32      2.44
  -20   18    2      1.39      1.47
  -18   18    2      0.05     -1.37
  -16   18    2     -1.25     -0.89
  -14   18    2     -4.07      0.04
  -12   18    2     -3.10      1.20
  -10   18    2      3.68     -1.78
   -8   18    2      2.66     -1.45
   -6   18    2     -3.20      0.51
   -4   18    2      6.37     -0.30
   -2   18    2     -5.68     -0.16
    0   18    2      9.68     -7.64
    2   18    2      2.75     -1.20
    4   18    2      2.41     -8.48
    6   18    2      4.60     -8.95
    8   18    2      2.64      0.55
   10   18    2      3.43      1.76
   12   18    2     -2.56      1.24
   14   18    2     -3.18     -0.84
   16   18    2     -1.43     -0.56
   18   18    2     -0.92      1.88
   20   18    2      3.19      0.70
  -23   17    2      1.03     -0.78
  -21   17    2      1.28      2.26
  -19   17    2      0.96     -0.57
  -17   17    2      0.58     -4.08
  -15   17    2      2.00     -2.56
  -13   17    2     -0.07     -0.48
  -11   17    2     -0.63      2.79
   -9   17    2     -4.83      1.69
   -7   17    2     -5.79      7.80
   -5   17    2     -6.90      1.31
   -3   17    2     -6.85     11.89
   -1   17    2     -3.55     -5.25
    1   17    2     -2.51     -0.21
    3   17    2     -8.68     12.06
    5   17    2     -7.77      0.94
    7   17    2     -2.53     -1.74
    9   17    2     -3.96     -0.17
   11   17    2     -0.44      0.78
   13   17    2     -0.47     -3.96
   15   17    2      1.66     -2.64
   17   17    2     -0.79      0.52
   19   17    2     -2.44      0.15
   21   17    2     -3.74     -0.83
  -24   16    2      5.63     -1.81
  -22   16    2      1.64     -0.63
  -20   16    2      2.68      1.89
  -18   16    2     -0.15      0.59
  -16   16    2     -1.65      0.53
  -14   16    2     -0.02      0.22
  -12   16    2     -0.93     -2.11
  -10   16    2     -5.08     -2.46
   -8   16    2     -3.63     -5.71
   -6   16    2      5.49     -3.74
   -4   16    2     -2.48      7.20
   -2   16    2      9.33      5.89
    0   16    2     -7.65     -3.57
    2   16    2      3.45     -2.15
    4   16    2      8.73      1.34
    6   16    2      8.94     -3.10
    8   16    2      4.88     -5.12
   10   16    2     -0.81      1.93
   12   16    2      1.16      1.88
   14   16    2      0.35      0.55
   16   16    2      1.22      1.78
   18   16    2      2.06      0.46
   20   16    2     -0.09      0.22
   22   16    2      3.60     -2.81
  -23   15    2      0.41     -1.34
  -21   15    2     -1.16      0.04
  -19   15    2      2.63      0.76
  -17   15    2      1.94      1.18
  -15   15    2      2.53      0.14
  -13   15    2      1.60     -1.00
  -11   15    2      0.21     -1.29
   -9   15    2     -0.47      1.84
   -7   15    2      4.81     -6.76
   -5   15    2      3.37     10.11
   -3   15    2      0.01     -3.08
   -1   15    2     -5.56      9.20
    1   15    2    -12.61      6.17
    3   15    2      4.16     -2.85
    5   15    2     11.58      8.68
    7   15    2      4.92      1.99
    9   15    2     -0.93      0.17
   11   15    2     -2.47      0.61
   13   15    2      0.02     -0.40
   15   15    2     -1.62     -0.11
   17   15    2     -1.29     -1.36
   19   15    2     -2.38      0.16
   21   15    2      0.45     -0.35
  -24   14    2      0.09      1.05
  -22   14    2     -1.41     -0.12
  -20   14    2     -3.55      0.30
  -18   14    2     -1.62      0.40
  -16   14    2     -1.42      0.03
  -14   14    2     -3.08     -2.44
  -12   14    2     -5.92     -5.08
  -10   14    2     -4.80     -3.24
   -8   14    2     -7.03     -1.10
   -6   14    2    -12.64      2.59
   -4   14    2     -6.52     -5.73
   -2   14    2    -13.46    -22.14
    0   14    2     12.99     -2.22
    2   14    2      0.51     -0.64
    4   14    2      2.84      5.71
    6   14    2      4.79      5.22
    8   14    2     -3.77     -1.73
   10   14    2      0.84     -3.57
   12   14    2      0.31     -3.78
   14   14    2      3.88     -1.12
   16   14    2      2.58     -0.20
   18   14    2      0.34     -1.06
   20   14    2      2.69     -1.04
   22   14    2      1.80      2.36
  -23   13    2      1.95      4.55
  -21   13    2      0.00      0.32
  -19   13    2     -3.05      0.93
  -17   13    2      1.65      0.60
  -15   13    2      2.29      3.99
  -13   13    2      4.62      4.35
  -11   13    2      3.65      3.85
   -9   13    2      7.04     -3.29
   -7   13    2     -4.40      4.73
   -5   13    2     -6.65     -7.28
   -3   13    2     -6.57      4.99
   -1   13    2     10.89    -11.34
    1   13    2     26.21      0.63
    3   13    2     -1.72     12.05
    5   13    2     -0.07     -2.78
    7   13    2      1.35     -6.91
    9   13    2      1.62     -2.66
   11   13    2      3.54     -0.05
   13   13    2      1.96      1.57
   15   13    2      3.07     -0.66
   17   13    2      0.17     -0.22
   19   13    2      0.49     -0.52
   21   13    2      1.25      4.15
  -24   12    2     -0.44      3.33
  -22   12    2     -0.23      0.12
  -20   12    2     -1.47     -0.97
  -18   12    2     -2.67     -1.27
  -16   12    2     -2.93     -1.45
  -14   12    2     -3.66     -0.50
  -12   12    2      2.12     -1.42
  -10   12    2      2.84     -7.41
   -8   12    2      0.82     -7.78
   -6   12    2    -12.25     -3.42
   -4   12    2    -22.36      0.61
   -2   12    2      0.82     14.18
    0   12    2    -12.61    -15.85
    2   12    2    -10.98      4.13
    4   12    2    -18.11     10.04
    6   12    2     -3.83      7.91
    8   12    2     11.29      5.38
   10   12    2     -0.73      1.55
   12   12    2     -1.56      2.98
   14   12    2     -5.64      0.44
   16   12    2     -2.97     -0.46
   18   12    2      1.22      0.69
   20   12    2      0.14      0.91
   22   12    2     -0.58      0.03
  -23   11    2     -1.94     -3.23
  -21   11    2      1.33     -1.31
  -19   11    2      4.45     -2.19
  -17   11    2      4.39     -0.41
  -15   11    2      5.98     -0.07
  -13   11    2      1.84      0.45
  -11   11    2      1.11     -0.91
   -9   11    2     -4.42     -0.20
   -7   11    2     10.03    -11.64
   -5   11    2      3.17     -0.36
   -3   11    2     21.99     -9.85
   -1   11    2     23.17     11.68
    1   11    2    -13.10     -5.54
    3   11    2     -5.12     -8.30
    5   11    2    -11.96      9.08
    7   11    2      6.29     11.25
   11   11    2     -2.08      2.33
   13   11    2      3.23     -0.97
   15   11    2      0.54      0.21
   17   11    2      1.03     -0.96
   19   11    2      1.10      0.90
   21   11    2     -0.31      0.33
   23   11    2     -1.48      3.55
  -24   10    2     -1.04     -0.97
  -22   10    2      1.07     -0.55
  -20   10    2      1.21     -2.48
  -18   10    2     -0.63     -2.22
  -16   10    2     -3.80      0.93
  -14   10    2     -2.11     -1.74
  -12   10    2     -4.06     -3.62
  -10   10    2      2.00     -1.23
   -8   10    2      9.54    -10.20
   -6   10    2     17.14    -24.94
   -4   10    2     10.11    -14.82
   -2   10    2      0.31     -1.20
    0   10    2     10.20     57.32
    2   10    2     -5.65     18.18
    4   10    2      5.01      5.44
    6   10    2      9.09     12.93
    8   10    2      2.96      4.50
   10   10    2     -0.51      7.57
   12   10    2     -7.11      5.23
   14   10    2     -0.80      5.56
   16   10    2     -0.16      4.07
   18   10    2     -1.00      0.87
   20   10    2      0.49     -0.63
   22   10    2     -0.01      0.32
   24   10    2      1.36      5.99
  -25    9    2     -2.70     -0.61
  -23    9    2      1.61      1.09
  -21    9    2     -0.66     -0.80
  -19    9    2      0.96     -2.91
  -17    9    2      1.81     -3.53
  -15    9    2      0.80     -2.79
  -13    9    2      1.88      0.49
  -11    9    2     -1.55     12.76
   -9    9    2      9.16     17.55
   -7    9    2     -1.52     11.00
   -5    9    2      8.30    -33.12
   -3    9    2    -20.88    -29.47
   -1    9    2    -16.24    -21.14
    1    9    2     17.08      6.11
    3    9    2     -9.01    -18.49
    5    9    2      1.63     -8.66
    7    9    2    -11.71      2.85
    9    9    2     -4.90      7.35
   11    9    2      1.71     -8.77
   13    9    2     -1.16     -7.97
   15    9    2      3.14     -6.94
   17    9    2     -0.40     -1.41
   19    9    2     -3.22      1.63
   21    9    2     -2.30      1.53
   23    9    2     -2.00     -0.26
   25    9    2     -0.85      1.41
  -26    8    2      2.04      0.51
  -24    8    2      0.74      1.85
  -22    8    2     -0.09     -0.97
  -20    8    2      0.86     -0.17
  -18    8    2      0.30      0.08
  -16    8    2     -1.52      1.87
  -14    8    2     -1.82      2.17
  -12    8    2     -2.83     -3.86
  -10    8    2     -6.46     -7.03
   -8    8    2     -7.36      7.38
   -4    8    2      8.04      5.32
   -2    8    2     -1.95     28.44
    0    8    2     -3.19     -9.45
    2    8    2      8.57     -4.93
    4    8    2    -13.98    -13.03
    8    8    2    -10.87     13.50
   10    8    2      1.79     -0.33
   12    8    2      6.06      1.97
   14    8    2      2.00      2.58
   16    8    2      1.35      1.32
   18    8    2     -0.10      0.21
   20    8    2     -0.65      0.90
   22    8    2     -1.27      0.44
   24    8    2     -3.08      0.19
  -27    7    2      1.33     -3.28
  -25    7    2      0.02      2.87
  -23    7    2     -3.38      3.60
  -21    7    2      2.31      2.50
  -19    7    2      3.09      4.03
  -17    7    2      1.38      1.08
  -15    7    2      1.49      4.15
  -13    7    2      4.24      1.12
  -11    7    2      8.88     -6.85
   -9    7    2     10.32     -4.57
   -7    7    2     32.04      3.56
   -3    7    2     36.36     10.56
   -1    7    2    -20.03     25.62
    1    7    2    -54.00    -18.18
    3    7    2      3.29     -1.66
    5    7    2    -13.74     -8.13
    7    7    2     -5.55      1.74
    9    7    2     -5.19    -10.81
   11    7    2    -10.76     -2.46
   13    7    2     -5.83     -2.78
   15    7    2     -5.47      0.11
   17    7    2     -0.50     -3.02
   19    7    2      0.77     -2.38
   21    7    2     -1.19      0.62
   23    7    2     -2.43     -0.37
   25    7    2     -2.92      2.13
  -26    6    2      0.30     -4.35
  -24    6    2     -0.93     -2.57
  -22    6    2      3.20     -0.03
  -20    6    2      3.26      1.03
  -18    6    2      4.28      1.73
  -16    6    2      1.64     -2.29
  -14    6    2     -0.49      0.18
  -12    6    2     -0.36     -0.78
  -10    6    2    -11.07      2.82
   -8    6    2    -14.82     -3.61
   -6    6    2     -3.64    -16.38
   -4    6    2     17.29      5.88
   -2    6    2     27.07    -22.23
    0    6    2    -40.21     25.25
    2    6    2    -30.15     17.83
    4    6    2      3.44     21.08
    6    6    2    -11.20     16.87
    8    6    2     -1.97     -0.02
   10    6    2     -0.07      9.30
   12    6    2      3.13      1.28
   14    6    2      3.80      1.08
   16    6    2      2.27      0.56
   18    6    2      1.97     -1.80
   20    6    2     -1.04     -1.02
   22    6    2     -0.46     -2.02
   24    6    2     -1.77     -0.93
   26    6    2     -3.76     -2.13
  -27    5    2      1.29      3.48
  -25    5    2     -1.80     -2.73
  -23    5    2      3.16     -1.40
  -21    5    2      0.40      2.09
  -19    5    2      0.25      1.62
  -17    5    2      4.16      1.77
  -15    5    2      1.29     -2.33
  -13    5    2      5.23      2.05
  -11    5    2      5.09      2.25
   -9    5    2      3.76      1.15
   -7    5    2     -3.06     -8.79
   -5    5    2     26.45    -29.00
   -3    5    2     20.65    -13.78
   -1    5    2     18.88    -52.09
    1    5    2     33.08      5.30
    3    5    2     20.53    -19.72
    7    5    2     -5.74    -30.09
    9    5    2     -6.49     -3.33
   11    5    2     -2.92     -5.12
   13    5    2     -3.17     -0.48
   15    5    2     -1.06      1.80
   17    5    2      0.11      3.23
   19    5    2     -2.14      0.67
   21    5    2     -1.43     -1.13
   23    5    2      0.46     -0.54
   25    5    2     -3.26     -2.01
  -28    4    2      3.18      4.15
  -26    4    2     -0.37      1.97
  -24    4    2     -2.71     -1.50
  -22    4    2     -1.39     -0.22
  -20    4    2     -0.98      0.43
  -18    4    2      0.24      0.43
  -16    4    2     -1.15      2.30
  -14    4    2     -3.16     -0.12
  -12    4    2     -3.62      4.34
  -10    4    2     -2.41      3.10
   -8    4    2     -7.15     18.15
   -6    4    2    -16.00     43.66
   -4    4    2    -30.07     47.04
   -2    4    2    -74.15     56.94
    0    4    2    -11.31    -37.03
    2    4    2      2.63    -22.46
    6    4    2      0.91     -9.87
    8    4    2      1.06      7.67
   10    4    2     10.67     -0.29
   12    4    2      4.25     -0.61
   14    4    2      1.65     -2.58
   16    4    2      0.90     -1.31
   18    4    2      3.47      0.92
   20    4    2      1.81     -2.36
   22    4    2      2.44     -0.44
   24    4    2     -1.11     -1.89
   26    4    2     -2.64     -1.84
  -27    3    2      2.62     -0.30
  -25    3    2      3.77      0.37
  -23    3    2     -1.11      1.81
  -21    3    2     -2.14      0.59
  -19    3    2     -3.42      1.40
  -17    3    2     -1.65      3.09
  -15    3    2      1.98      4.62
  -13    3    2     -2.65      2.81
  -11    3    2     -4.34      1.81
   -9    3    2      2.61     -6.29
   -7    3    2     14.07      1.09
   -5    3    2     -4.21     27.95
   -3    3    2     -8.04     18.94
   -1    3    2    -13.86    -12.26
    1    3    2     -5.35   -123.06
    5    3    2    -21.79    -35.22
    7    3    2     -9.02     -0.81
    9    3    2    -11.20     -6.18
   11    3    2     -7.04     -0.56
   13    3    2     -1.01     -1.39
   15    3    2     -1.61     -2.59
   17    3    2     -3.50     -0.28
   19    3    2     -3.06     -0.58
   21    3    2     -2.38     -2.38
   23    3    2     -0.47     -0.69
   25    3    2      1.10     -4.73
  -26    2    2     -0.09      1.20
  -24    2    2      1.48      0.32
  -22    2    2     -1.02      1.99
  -20    2    2     -1.98      0.05
  -18    2    2     -4.04      4.62
  -16    2    2     -0.64      3.88
  -14    2    2      1.57      3.92
  -12    2    2      2.97     -2.12
  -10    2    2      3.63     -4.57
   -8    2    2      5.40      1.93
   -6    2    2      6.35     15.05
   -4    2    2     19.72     50.69
   -2    2    2     86.08     25.57
    0    2    2     40.00     51.68
    6    2    2      5.36     -0.74
    8    2    2      9.96    -11.03
   10    2    2     -1.41     -3.04
   12    2    2      7.22      0.80
   14    2    2      3.70      2.99
   16    2    2      3.41      1.55
   18    2    2      0.71      0.47
   20    2    2      4.03     -0.23
   22    2    2      0.74      1.86
   24    2    2      1.60     -0.21
   26    2    2      1.31     -1.86
  -27    1    2     -2.69      0.92
  -25    1    2      0.08     -2.73
  -23    1    2      0.37     -0.18
  -21    1    2     -0.11      1.70
  -19    1    2     -0.08     -0.42
  -17    1    2     -3.97      0.20
  -15    1    2     -6.55     -3.07
  -13    1    2     -5.74      2.77
  -11    1    2      2.11     -2.73
   -9    1    2      0.66      5.16
   -7    1    2    -13.31    -10.56
   -5    1    2    -37.22    -49.70
   -3    1    2    -59.27    -83.54
   -1    1    2    -32.14   -113.24
    1    1    2    -23.45     44.59
    3    1    2    -23.86     -2.47
    5    1    2      9.07      2.13
    7    1    2      9.29    -18.73
    9    1    2      0.64      0.60
   11    1    2     -3.28     -5.99
   13    1    2     -5.84     -3.86
   15    1    2     -4.10     -0.24
   17    1    2     -2.74      1.35
   19    1    2     -0.47     -1.37
   21    1    2      0.15      0.11
   23    1    2     -1.17     -2.19
   25    1    2      1.88     -2.15
  -26    0    2     -0.78      0.08
  -24    0    2      0.55      0.26
  -22    0    2     -0.21      0.32
  -20    0    2      2.46     -0.31
  -18    0    2      1.75     -0.38
  -16    0    2      0.17     -0.26
  -14    0    2      0.07      0.24
  -12    0    2     -1.90      0.48
  -10    0    2     -7.21     -0.22
   -8    0    2    -16.94     -0.99
   -6    0    2     -6.13     -4.98
   -4    0    2      1.22    -13.70
   -2    0    2      8.17    -10.33
    0    0    2    108.30     -6.83
    2    0    2     51.95     -2.03
    4    0    2     24.66     -2.14
    6    0    2     28.04     -2.23
    8    0    2      4.48     -0.36
   10    0    2     14.79     -0.57
   12    0    2      6.36     -0.86
   14    0    2      6.90      0.08
   16    0    2      2.14      0.03
   18    0    2      2.38     -0.47
   20    0    2      0.71     -0.05
   22    0    2      0.96      0.61
   24    0    2      2.83      0.02
    2    2    2     30.81     61.37
    4    2    2     18.07     28.56
    3    3    2     -0.22    -34.81
    4    4    2    -12.54     -1.95
    5    5    2     23.12    -12.13
   -5    7    2     24.62     29.50
   -6    8    2     -6.71     25.89
    6    8    2    -21.32     -3.29
  -25   11    2     -0.78     -2.39
    9   11    2      4.24     -0.74
   24   12    2      0.21     -3.11
   23   13    2      3.99      2.51
   24   14    2     -0.68      2.19
   23   15    2     -0.20      1.39
   23   17    2      0.41     -2.46
   22   18    2      1.86     -0.12
  -19   25    2     -1.81      1.47
  -17   25    2     -2.25     -1.11
  -18   26    2      0.96      6.01
  -16   26    2     -0.42      2.26
  -17   27    2      1.40      3.79
  -16   28    2      2.00      1.70
  -15   29    2     -0.05     -2.59
  -14   30    2      3.07      0.97
  -10   30    2      1.49     -2.43
  -13   31    2      1.05     -1.00
    7   31    2     -1.79      4.23
   -6   32    2     -1.83     -2.94
   -4   32    2     -0.03     -2.43
   -2   32    2     -2.61     -0.71
   -5   33    2     -0.62      2.22
   -3   33    2      0.30      1.70
   -1   33    2     -0.79      1.02
    1   33    2     -0.16      1.16
    6   34    3      2.41     -0.17
   -9   33    3      0.95      3.60
   -7   33    3      1.54     -0.63
   -5   33    3      1.12     -1.17
    3   33    3      0.03      0.67
    5   33    3      1.36      1.27
    7   33    3     -0.79     -0.47
  -10   32    3      0.71      0.41
   -8   32    3     -1.46      0.13
   -6   32    3     -3.85      0.14
   -4   32    3     -3.16      0.95
    0   32    3      0.91     -0.20
    2   32    3     -0.32      0.45
    4   32    3      0.75      2.84
    6   32    3     -0.54      1.06
    8   32    3     -0.86     -1.82
  -11   31    3     -3.13     -0.08
   -9   31    3     -0.39     -2.00
   -7   31    3      1.38      1.89
   -5   31    3      1.76      0.36
   -3   31    3      0.59      1.22
   -1   31    3      1.21      1.37
    1   31    3     -2.26      0.47
    3   31    3     -1.87      4.67
    5   31    3     -4.00      3.44
    7   31    3     -2.49      1.77
    9   31    3     -2.43      0.53
  -10   30    3     -3.08     -0.84
   -8   30    3      0.29     -0.18
   -6   30    3      1.54      1.48
   -4   30    3     -1.03     -1.18
   -2   30    3      1.08     -0.65
    0   30    3      1.45     -1.90
    2   30    3      2.67      0.59
    4   30    3      0.72      0.25
    6   30    3     -0.39     -1.07
    8   30    3      2.69      0.87
   10   30    3     -0.44      2.42
  -11   29    3      0.38      0.39
   -9   29    3     -0.47      2.59
   -7   29    3      0.84      0.56
   -5   29    3      0.00      0.95
   -3   29    3      0.67      0.73
   -1   29    3     -0.72     -0.23
    1   29    3     -0.97      0.83
    3   29    3     -3.66     -0.74
    5   29    3     -3.01     -1.56
    7   29    3     -0.73     -1.84
    9   29    3      0.48      2.74
   11   29    3      2.12      3.41
  -10   28    3      0.76     -1.16
   -8   28    3     -1.88     -0.33
   -6   28    3     -4.16     -2.39
   -4   28    3     -0.13      1.02
   -2   28    3     -0.66      0.88
    0   28    3     -0.78      1.66
    2   28    3     -2.99     -1.60
    4   28    3     -2.05     -0.97
    6   28    3      2.99     -1.92
    8   28    3     -1.01     -0.34
   10   28    3      1.90     -0.23
   12   28    3     -0.55     -0.83
  -13   27    3     -1.36     -1.30
  -11   27    3     -1.53     -0.63
   -9   27    3      0.72      1.63
   -7   27    3     -2.82      2.95
   -5   27    3     -0.75     -0.72
   -3   27    3      1.66     -1.44
   -1   27    3      1.62      1.09
    1   27    3      1.21     -0.94
    3   27    3     -1.12      0.63
    5   27    3      2.76     -0.34
    7   27    3      0.26      1.84
    9   27    3     -4.03     -0.74
   11   27    3     -5.17     -1.33
  -14   26    3      3.16     -1.54
  -12   26    3      0.30     -2.16
  -10   26    3     -2.30     -2.33
   -8   26    3     -2.24     -0.03
   -6   26    3     -1.87      1.24
   -4   26    3     -2.26     -1.03
   -2   26    3     -1.18      2.40
    0   26    3      1.17     -0.61
    2   26    3      1.72     -0.30
    4   26    3      0.85     -3.41
    6   26    3     -2.07     -2.03
    8   26    3      0.70     -3.03
   10   26    3     -4.86     -2.57
   12   26    3     -2.81      0.12
   14   26    3     -0.36     -0.47
  -15   25    3     -2.08      1.32
  -13   25    3     -0.28      0.78
  -11   25    3      2.37     -1.36
   -9   25    3     -1.30     -2.16
   -7   25    3      2.50     -4.89
   -5   25    3      2.33     -3.41
   -3   25    3     -1.21      1.69
   -1   25    3     -1.17      0.21
    1   25    3     -0.55      0.40
    3   25    3      4.51     -1.24
    5   25    3     -2.16      2.99
    7   25    3     -0.37      0.57
    9   25    3     -0.12      0.49
   11   25    3     -2.39      1.09
   13   25    3     -2.24      1.39
   15   25    3     -2.66      0.46
  -16   24    3      4.04     -0.40
  -14   24    3     -2.03      0.37
  -12   24    3     -1.37      0.62
  -10   24    3     -0.73      2.53
   -8   24    3     -2.65      0.14
   -6   24    3      2.87     -2.33
   -4   24    3      2.90      1.86
   -2   24    3      1.29     -1.87
    0   24    3     -1.81     -0.91
    2   24    3      1.76     -2.15
    4   24    3      2.63      2.62
    6   24    3      4.87      0.72
    8   24    3      2.00     -0.86
   10   24    3      4.86     -2.65
   12   24    3      2.19     -3.39
   14   24    3     -0.71      0.65
   16   24    3     -0.09     -2.54
   18   24    3     -2.68     -0.46
  -17   23    3      2.19     -2.06
  -15   23    3      2.51     -1.60
  -13   23    3      2.36     -2.98
  -11   23    3      1.39     -0.18
   -9   23    3      3.10     -2.67
   -7   23    3     -1.60     -3.21
   -5   23    3      0.51      1.09
   -3   23    3      0.44      1.50
   -1   23    3     -1.78      1.84
    1   23    3      0.62      0.70
    3   23    3     -6.67      1.07
    5   23    3      0.86     -4.32
    7   23    3     -1.58     -1.07
    9   23    3     -0.23     -0.24
   11   23    3      2.63     -3.02
   13   23    3     -0.64     -2.01
   15   23    3     -0.11     -1.30
   17   23    3     -2.08     -2.17
   19   23    3      0.31      0.07
  -20   22    3      0.77      1.98
  -18   22    3      4.39      0.07
  -16   22    3     -1.78     -3.03
  -14   22    3      0.48     -4.53
  -12   22    3     -1.29     -2.48
  -10   22    3     -1.42     -1.85
   -8   22    3      2.23     -0.62
   -6   22    3     -2.04      3.40
   -4   22    3     -1.09      1.50
   -2   22    3     -4.53      1.15
    0   22    3      4.24     -3.71
    2   22    3      0.33      0.37
    4   22    3      1.09     -3.59
    6   22    3      1.33     -0.80
    8   22    3      1.58      1.46
   10   22    3     -0.05     -0.43
   12   22    3     -1.09     -1.50
   14   22    3     -1.55     -3.32
   16   22    3     -1.53     -0.64
   18   22    3      0.80     -0.33
  -21   21    3     -0.44     -3.20
  -19   21    3      5.47      1.60
  -17   21    3      4.24      0.29
  -15   21    3      2.76      0.83
  -13   21    3      2.88      1.40
  -11   21    3     -0.25     -1.50
   -9   21    3     -3.24     -1.73
   -7   21    3      3.60     -1.66
   -5   21    3      0.07     -3.12
   -3   21    3     -2.14     -0.23
   -1   21    3      2.09      0.22
    1   21    3     -0.92      1.57
    3   21    3      3.05      1.73
    5   21    3     -4.09      5.51
    7   21    3     -0.11      3.63
    9   21    3     -0.94      1.21
   11   21    3      0.09      1.98
   13   21    3      1.32      0.13
   15   21    3     -0.08      0.11
   17   21    3      1.42      1.44
   19   21    3     -1.86     -0.44
  -22   20    3     -3.24     -4.38
  -20   20    3      0.83     -0.07
  -18   20    3      1.76      2.15
  -16   20    3      2.59      1.66
  -14   20    3      0.56      4.87
  -12   20    3      1.38      0.25
  -10   20    3      0.26     -1.06
   -8   20    3      1.39     -0.37
   -6   20    3      6.11     -0.01
   -4   20    3     -6.25      1.99
   -2   20    3     -0.70      0.11
    0   20    3     -6.33      4.03
    2   20    3      4.90     -2.49
    4   20    3      7.00      0.42
    6   20    3      6.43     -0.87
    8   20    3      3.14     -3.65
   10   20    3      0.84      0.63
   12   20    3      2.10      0.20
   14   20    3      1.78     -0.44
   16   20    3      3.19     -1.17
   18   20    3      0.24     -1.55
   20   20    3      1.12     -0.55
  -23   19    3     -0.54     -2.85
  -21   19    3      0.17      2.33
  -19   19    3     -0.15      5.22
  -17   19    3      1.52      1.75
  -15   19    3      0.94     -0.87
  -13   19    3      2.46     -0.86
  -11   19    3      3.64     -1.90
   -9   19    3      6.07     -0.50
   -7   19    3      1.21     -1.11
   -5   19    3      0.10      0.78
   -3   19    3     -2.45     -7.38
   -1   19    3     -2.08     -5.21
    1   19    3      4.34      0.36
    3   19    3      2.11      1.79
    5   19    3      4.85      4.53
    7   19    3     -2.40      3.71
    9   19    3     -0.85      3.55
   11   19    3      0.03      1.51
   13   19    3      0.65     -1.69
   15   19    3      1.76     -1.39
   17   19    3      0.15     -0.75
   19   19    3      0.91      1.28
  -22   18    3      5.69     -0.61
  -20   18    3      1.50      0.25
  -18   18    3      1.77      1.78
  -16   18    3      0.51      0.42
  -14   18    3     -1.21     -0.68
  -12   18    3     -0.75      2.46
  -10   18    3      1.32      2.35
   -8   18    3     -0.75      4.37
   -6   18    3     -8.16      4.73
   -4   18    3      5.32     -2.70
   -2   18    3     -2.81     -9.14
    0   18    3      9.56     -8.37
    2   18    3     -4.58      2.14
    4   18    3     -6.37      1.02
    6   18    3     -5.05     -0.47
    8   18    3     -2.81     -0.90
   10   18    3      0.95     -4.26
   12   18    3     -0.30     -1.38
   14   18    3     -0.05     -1.81
   16   18    3     -0.80     -0.63
   18   18    3      1.34     -2.11
   20   18    3      1.09     -2.09
  -23   17    3      3.08      1.58
  -21   17    3     -0.31     -2.56
  -19   17    3     -4.98     -0.45
  -17   17    3     -0.80      2.18
  -15   17    3      1.08      1.98
  -13   17    3      2.55      1.78
  -11   17    3      6.50      1.24
   -9   17    3      3.23     -3.89
   -7   17    3     -0.33     -1.12
   -5   17    3     -3.64     -5.30
   -3   17    3      0.89      1.95
   -1   17    3      3.75      3.51
    1   17    3     -0.67      6.24
    3   17    3     -6.07     10.92
    5   17    3     -6.86      2.17
    7   17    3     -1.29      0.51
    9   17    3     -3.10      0.20
   11   17    3     -0.05      3.71
   13   17    3      2.91      5.27
   15   17    3      1.22      3.71
   17   17    3      0.54      2.31
   19   17    3      0.37     -0.18
  -24   16    3      4.79      3.98
  -22   16    3      1.79      0.94
  -20   16    3      0.50     -1.23
  -18   16    3     -0.66      0.91
  -16   16    3      0.62      2.22
  -14   16    3     -3.00      3.31
  -12   16    3     -2.01      3.13
  -10   16    3     -1.81      2.76
   -8   16    3      2.32     -0.68
   -6   16    3      8.86     -4.73
   -4   16    3     -6.73     -9.46
   -2   16    3     10.09     -5.03
    0   16    3     -8.90     -2.34
    2   16    3      0.52     -3.07
    4   16    3      1.15      2.78
    6   16    3      1.27      4.47
    8   16    3      0.54     -1.22
   10   16    3     -6.53      0.92
   12   16    3     -1.64     -1.50
   14   16    3      0.70      0.21
   16   16    3      0.00      0.54
   18   16    3      2.13      1.63
   20   16    3     -0.17      1.38
  -23   15    3     -0.69     -0.98
  -21   15    3      0.38     -0.49
  -19   15    3      1.33     -0.93
  -17   15    3      0.51      1.77
  -15   15    3      2.27     -0.34
  -13   15    3     -0.80     -0.07
  -11   15    3     -3.94      1.27
   -9   15    3     -2.11      6.61
   -7   15    3      6.41     -0.11
   -5   15    3      6.59      2.34
   -3   15    3      7.65     -0.98
   -1   15    3      6.93     12.59
    1   15    3     -4.84      7.73
    3   15    3     -0.30     -9.88
    5   15    3     -4.50      2.41
    7   15    3     -1.88      1.47
    9   15    3      3.83     -2.67
   11   15    3      1.76     -1.47
   13   15    3      5.27     -0.53
   15   15    3      4.29     -0.24
   17   15    3      2.97     -1.64
   19   15    3      1.58      0.35
   21   15    3      2.55     -3.17
  -24   14    3     -4.21      0.70
  -22   14    3      0.47      2.80
  -20   14    3      1.99      1.35
  -18   14    3     -1.43      0.84
  -16   14    3     -3.97      1.38
  -14   14    3     -2.14     -1.93
  -12   14    3     -3.61     -1.03
  -10   14    3      1.02      0.19
   -8   14    3      0.59      1.64
   -6   14    3     -7.83     -6.62
   -4   14    3      8.33     -7.62
   -2   14    3     -9.82     -3.82
    0   14    3      5.46      7.27
    2   14    3     -6.83     -3.54
    4   14    3     -6.63     -7.86
    6   14    3     -2.78     -3.58
    8   14    3      1.01     -1.89
   10   14    3      1.42     -6.16
   12   14    3     -7.25      2.56
   14   14    3     -4.09      3.99
   16   14    3     -1.04      1.01
   18   14    3     -1.17      0.70
   20   14    3      2.77      0.66
  -23   13    3     -1.18      1.67
  -21   13    3      0.99      1.08
  -19   13    3     -0.78      0.71
  -17   13    3     -0.86     -1.21
  -15   13    3     -1.36      0.60
  -13   13    3      0.71      2.08
  -11   13    3     -0.17      8.89
   -9   13    3      3.34      9.76
   -7   13    3     -2.20     16.79
   -5   13    3     15.30      1.07
   -3   13    3     21.12      4.95
   -1   13    3      4.76     -2.47
    1   13    3     12.93      1.03
    3   13    3     -5.44     14.13
    5   13    3     -4.72     -2.21
    7   13    3     -3.17     -2.75
    9   13    3      1.79     -1.47
   11   13    3      4.32     -7.42
   13   13    3     -2.14     -0.23
   15   13    3     -1.39     -1.91
   17   13    3     -3.29      0.47
   19   13    3     -2.68      1.28
   21   13    3     -1.49      3.48
  -24   12    3      0.34     -1.46
  -22   12    3      2.06     -1.19
  -20   12    3      1.78      1.26
  -18   12    3      0.84      0.97
  -16   12    3     -0.19      0.20
  -14   12    3     -0.89     -1.49
  -12   12    3      0.58     -7.72
  -10   12    3     -8.10     -9.60
   -8   12    3    -13.58     -6.70
   -6   12    3     -0.67      4.68
   -4   12    3     -0.92     -0.83
   -2   12    3      5.30     -4.54
    0   12    3    -23.18    -26.59
    2   12    3     -0.82    -11.45
    4   12    3     -1.94    -10.20
    6   12    3     -6.06    -11.05
    8   12    3     -1.37      3.79
   10   12    3      3.29      9.08
   12   12    3      4.22      6.15
   14   12    3     -3.11      8.12
   16   12    3     -0.29      5.67
   18   12    3      2.41      3.92
   20   12    3     -1.48      1.21
   22   12    3      0.92     -1.96
  -25   11    3      0.80     -3.75
  -23   11    3     -0.87     -0.16
  -21   11    3     -0.64      1.97
  -19   11    3     -1.41     -1.41
  -17   11    3     -2.23     -2.29
  -15   11    3     -0.87     -1.78
  -13   11    3      0.36      0.18
  -11   11    3      3.94     -3.31
   -9   11    3     -0.33      2.95
   -7   11    3     16.37     -0.28
   -5   11    3     10.64     23.13
   -3   11    3      2.22     20.86
   -1   11    3     -2.74     18.59
    1   11    3    -18.63     10.55
    3   11    3     16.07     -5.31
    5   11    3      6.23     -2.24
    7   11    3      2.29      2.07
    9   11    3      0.54     -2.46
   11   11    3     -2.86     -1.20
   13   11    3     -2.65    -10.15
   15   11    3     -2.23     -4.88
   17   11    3      3.28     -3.95
   19   11    3      0.16     -0.25
   21   11    3     -2.59      0.15
   23   11    3     -1.93      0.87
  -24   10    3      0.72     -2.16
  -22   10    3      0.29      3.87
  -20   10    3     -0.82      1.86
  -18   10    3     -0.30      0.36
  -16   10    3     -0.16     -1.70
  -14   10    3     -0.27      0.50
  -12   10    3     -4.99      2.66
  -10   10    3     -9.20      1.36
   -8   10    3    -11.56     -0.17
   -6   10    3    -17.71    -10.31
   -4   10    3    -12.94     14.10
   -2   10    3    -13.48      1.70
    0   10    3      7.38     10.50
    2   10    3    -12.68     -3.46
    4   10    3     -0.53     -3.09
    6   10    3     -1.15      8.12
    8   10    3     -0.84      1.39
   10   10    3      0.41      4.72
   12   10    3     -0.87      0.97
   14   10    3      2.40     -2.52
   16   10    3      1.83      1.75
   18   10    3     -1.36      0.24
   20   10    3     -0.02     -1.89
   22   10    3      0.16     -0.79
  -25    9    3      2.65     -0.03
  -23    9    3      2.30      0.74
  -21    9    3     -1.89      0.26
  -19    9    3     -0.47     -0.36
  -17    9    3      2.63      0.39
  -15    9    3      4.57      0.41
  -13    9    3      6.63      4.18
  -11    9    3      4.90      5.28
   -9    9    3      9.04     -4.47
   -5    9    3      8.52     -9.01
   -3    9    3     18.80     11.32
   -1    9    3     33.20     -3.41
    1    9    3     45.12     -0.12
    3    9    3      6.52      7.80
    5    9    3     14.61     -3.19
    7    9    3     -1.92    -15.73
    9    9    3     -6.44     -3.67
   11    9    3     -0.42     -5.97
   13    9    3     -1.41     -2.73
   15    9    3     -0.08     -3.54
   17    9    3     -4.29      1.28
   19    9    3     -2.50     -1.01
   21    9    3      1.55     -0.81
   23    9    3      2.80      1.05
  -26    8    3      2.33      2.10
  -24    8    3      0.58      1.62
  -22    8    3     -2.70     -1.04
  -20    8    3      0.62     -1.07
  -18    8    3      0.49     -0.62
  -16    8    3     -0.32      2.14
  -14    8    3     -3.15     -1.91
  -12    8    3     -0.35     -1.11
  -10    8    3      1.79     -4.10
   -8    8    3     -7.80     -0.74
   -6    8    3    -11.27     20.19
   -4    8    3    -27.07     -6.43
   -2    8    3    -27.25      1.64
    0    8    3    -32.12    -27.07
    2    8    3    -11.77     -0.31
    4    8    3    -10.98     12.75
    6    8    3      5.42     -9.36
    8    8    3      2.10      4.66
   10    8    3      5.19      2.41
   12    8    3      3.76      3.53
   14    8    3     -0.22      3.79
   16    8    3     -2.29      2.43
   18    8    3      0.36      1.72
   20    8    3      1.76     -0.12
   22    8    3      0.64      0.15
   24    8    3     -0.36     -1.66
  -27    7    3      0.62     -0.26
  -25    7    3      2.04      1.51
  -23    7    3     -2.60     -0.01
  -21    7    3     -1.56     -0.60
  -19    7    3     -0.74     -0.96
  -17    7    3      0.32     -1.07
  -15    7    3      1.37     -0.86
  -13    7    3     -4.37     -5.11
  -11    7    3     -3.22     -6.46
   -9    7    3     -9.52     -6.32
   -7    7    3      5.53     -6.11
   -5    7    3      2.03      1.75
   -3    7    3     -3.78    -23.84
   -1    7    3     -1.47     -8.92
    1    7    3     -7.49    -22.70
    3    7    3     14.99     -1.42
    5    7    3     -2.94     -3.03
    7    7    3      5.98      1.75
    9    7    3      3.94     -2.87
   11    7    3     -1.28      0.83
   13    7    3      4.16     -2.42
   15    7    3      0.20     -2.85
   17    7    3     -0.50     -4.20
   19    7    3      0.19     -2.25
   21    7    3     -1.34     -0.08
   23    7    3     -0.48      0.04
   25    7    3     -0.82      1.49
  -26    6    3     -1.06      1.82
  -24    6    3      0.67      0.90
  -22    6    3      2.09      2.02
  -20    6    3     -0.07      1.69
  -18    6    3     -1.54      3.53
  -16    6    3     -2.77      3.06
  -14    6    3     -1.03      7.38
  -12    6    3     -0.42     -1.45
  -10    6    3     -0.99     -4.64
   -8    6    3      1.65     -5.97
   -6    6    3     -2.88    -10.25
   -4    6    3     -3.31     32.45
   -2    6    3     -6.63     32.05
    0    6    3      3.11     55.45
    2    6    3    -15.90     20.02
    4    6    3     -7.52     -0.14
    6    6    3     -4.09      4.32
    8    6    3      9.36     -9.98
   10    6    3     -3.30      4.06
   12    6    3      0.09      5.41
   14    6    3      0.92      4.09
   16    6    3      1.40      0.10
   18    6    3      0.21     -1.22
   20    6    3     -0.48     -0.30
   22    6    3     -1.10      0.11
  -27    5    3     -2.86     -0.47
  -25    5    3     -2.28     -1.00
  -23    5    3      0.25      0.00
  -21    5    3     -0.90      1.07
  -19    5    3      0.58     -0.84
  -17    5    3      0.75     -3.15
  -15    5    3      1.03     -1.68
  -13    5    3      4.53      7.30
  -11    5    3      5.15      8.63
   -9    5    3     14.38      4.81
   -7    5    3     -0.56    -12.30
   -5    5    3     -6.21    -32.63
   -3    5    3    -11.31    -15.06
   -1    5    3      2.48    -25.27
    1    5    3     18.88     12.93
    3    5    3    -12.04     -6.06
    5    5    3     19.87     15.47
    7    5    3     16.36      8.38
    9    5    3     -2.83      6.21
   11    5    3     -2.13     -3.71
   13    5    3     -4.93     -5.52
   15    5    3     -1.10     -2.67
   17    5    3     -0.14     -0.05
   19    5    3     -0.36      1.58
   21    5    3      0.77     -0.97
   23    5    3     -2.23     -0.84
  -28    4    3      0.59      0.46
  -26    4    3     -0.51     -0.97
  -24    4    3      1.23      1.57
  -22    4    3     -1.33     -1.09
  -20    4    3      2.65      0.29
  -18    4    3      2.15     -0.33
  -16    4    3      1.39      2.98
  -14    4    3      0.23     -3.06
  -12    4    3      0.32      2.39
  -10    4    3      6.53     -2.66
   -8    4    3      5.16     -5.11
   -6    4    3      9.61      9.76
   -4    4    3     16.71    -19.72
   -2    4    3     28.59    -14.94
    0    4    3     38.86    -29.20
    2    4    3     15.04    -13.51
    4    4    3    -19.01     -3.51
    6    4    3      7.86      4.50
    8    4    3    -10.13     17.22
   10    4    3      5.06      3.08
   12    4    3      3.89      2.25
   14    4    3      3.27     -0.03
   16    4    3      0.34      0.77
   18    4    3      0.18      0.91
   20    4    3      2.73      0.06
   22    4    3      0.93     -0.70
   24    4    3     -2.23     -1.50
   26    4    3     -1.27     -0.32
  -27    3    3      0.72     -1.14
  -25    3    3      0.66      2.88
  -23    3    3     -1.95      1.13
  -21    3    3     -3.13     -2.61
  -19    3    3     -2.31     -1.41
  -17    3    3     -3.28      0.97
  -15    3    3     -3.77      1.00
  -13    3    3     -4.78     -5.66
  -11    3    3      4.93      1.84
   -9    3    3      6.67     -4.12
   -7    3    3      6.20     10.09
   -5    3    3    -10.83     21.69
   -3    3    3    -29.75    -11.99
   -1    3    3    -35.78     12.40
    1    3    3    -28.26    -25.02
    3    3    3      0.46     -3.79
    5    3    3     -2.36     -7.36
    7    3    3      4.30     11.68
    9    3    3      2.42     -4.61
   11    3    3     -4.34     -3.17
   13    3    3     -3.17     -0.58
   15    3    3     -1.47     -2.55
   17    3    3     -0.88     -1.21
   19    3    3      0.89     -0.98
   21    3    3      0.49      0.40
   23    3    3     -1.55     -0.77
   25    3    3     -2.88      0.71
  -26    2    3      1.36     -1.70
  -24    2    3     -0.99     -1.61
  -22    2    3      1.01     -1.91
  -20    2    3     -1.55      0.47
  -18    2    3      0.78      1.70
  -16    2    3      0.71     -1.24
  -14    2    3     -0.33      0.78
  -12    2    3     -2.34     -0.15
  -10    2    3     -6.89     12.96
   -8    2    3     -4.75     10.21
   -6    2    3      2.98     -7.54
   -2    2    3     18.70    -14.39
    0    2    3     -7.34     17.59
    2    2    3     -5.96     -7.43
    4    2    3      1.99    -10.91
    6    2    3    -34.59     20.27
    8    2    3     -2.89      7.05
   10    2    3     -7.12      3.98
   12    2    3      2.06      1.87
   14    2    3      1.82     -0.24
   16    2    3      2.93     -1.24
   18    2    3      0.09     -0.91
   20    2    3      0.45      3.66
   22    2    3      2.70      0.81
   24    2    3      3.91     -2.36
  -27    1    3      1.76      0.86
  -25    1    3     -0.24      0.87
  -23    1    3      0.75     -1.03
  -21    1    3      1.53     -1.37
  -19    1    3     -0.56     -0.28
  -17    1    3     -0.69     -1.52
  -15    1    3     -2.53      2.36
  -13    1    3     -3.52      6.96
  -11    1    3     -9.15      2.65
   -9    1    3     -4.50     13.65
   -7    1    3      2.13     -8.26
   -5    1    3      6.05    -15.13
   -3    1    3     16.18     19.30
   -1    1    3      6.59     22.34
    1    1    3      7.86     62.12
    3    1    3     20.38    -17.99
    5    1    3      6.34      1.00
    7    1    3     -9.75     -6.31
    9    1    3     -3.39     -4.22
   11    1    3     -0.72      1.12
   13    1    3      1.93      0.76
   15    1    3      2.35      3.63
   17    1    3      1.69     -2.39
   19    1    3     -1.79     -1.06
   21    1    3     -2.46      1.62
   23    1    3      1.22     -3.51
   25    1    3      1.47     -3.18
  -26    0    3     -1.09      0.21
  -24    0    3     -0.79      0.59
  -22    0    3      2.36     -0.30
  -20    0    3      3.82     -0.54
  -18    0    3      0.07     -0.41
  -16    0    3      0.45     -0.05
  -14    0    3      4.77     -0.14
  -12    0    3      4.05      0.52
  -10    0    3     -1.90     -0.32
   -8    0    3      0.09     -1.51
   -6    0    3     -5.53     -1.51
   -4    0    3     -4.45     -2.83
   -2    0    3     -4.81     -1.13
    0    0    3     -8.31     -1.68
    2    0    3      1.84      0.53
    4    0    3     -3.44     -0.48
    6    0    3      6.48     -0.25
    8    0    3    -10.81      0.30
   10    0    3      7.14      0.22
   12    0    3     -3.43      0.08
   14    0    3     -1.57      0.31
   16    0    3     -2.76      0.34
   18    0    3      1.96     -0.20
   20    0    3     -2.04      0.18
   22    0    3     -0.66     -0.26
   24    0    3      0.39     -1.48
   -4    2    3     17.06     -7.06
   -7    9    3     -2.86     -0.78
   24   10    3      1.44      2.50
   24   12    3     -0.08     -5.34
   23   13    3      0.28     -0.41
   22   14    3     -1.22      0.14
   24   14    3     -1.08      1.28
   23   15    3     -0.30      0.15
   22   16    3      2.82      0.99
   21   17    3     -3.36      2.59
  -19   23    3     -0.48     -3.57
  -20   24    3      4.83     -4.40
  -18   24    3      3.01     -6.99
  -19   25    3      0.99      1.56
  -17   25    3     -2.85     -0.54
  -18   26    3     -0.99     -0.37
  -16   26    3     -1.13     -3.45
  -15   27    3     -1.25     -2.28
  -14   28    3     -3.22      1.24
  -12   28    3     -1.19     -0.98
  -13   29    3     -0.31      0.05
  -12   30    3     -0.50      1.33
   -2   32    3     -1.40      1.24
    1   33    3     -0.60      0.18
    0   34    3     -0.48      0.93
    2   34    3      3.77      1.60
    4   34    3      4.28      0.49
   -7   33    4     -0.49     -1.27
    5   33    4      1.60     -0.59
   -8   32    4     -0.41     -1.73
   -6   32    4     -2.90     -1.00
   -4   32    4     -1.88      0.30
    2   32    4      0.50     -0.56
    4   32    4      0.26     -0.88
    6   32    4     -0.09     -1.40
   -9   31    4      1.65     -0.90
   -7   31    4      2.23      2.26
   -5   31    4      1.19      0.88
   -3   31    4      1.16      1.63
   -1   31    4      1.65      1.23
    1   31    4      0.11      1.03
    3   31    4      0.16      2.47
    5   31    4     -2.20      0.48
    7   31    4      0.51      0.77
  -10   30    4      0.74     -1.23
   -8   30    4     -0.90     -0.68
   -6   30    4     -1.38     -0.04
   -4   30    4     -3.22     -0.98
   -2   30    4      0.00      0.59
    0   30    4      1.88     -0.38
    2   30    4      1.77      0.08
    4   30    4      2.16     -1.45
    8   30    4      4.06      0.97
  -11   29    4      1.76      0.55
   -9   29    4      2.88      2.57
   -7   29    4      2.74     -0.91
   -5   29    4      2.97     -1.68
   -3   29    4      1.03     -1.34
   -1   29    4     -0.01     -1.50
    1   29    4      0.62     -0.20
    3   29    4      1.46     -2.86
    5   29    4      3.34     -1.63
    7   29    4     -0.48      1.46
    9   29    4     -3.08      2.44
  -12   28    4     -0.92     -1.29
   -8   28    4     -0.74      1.80
   -6   28    4     -1.03     -0.68
   -4   28    4      0.51      0.88
   -2   28    4     -1.09     -0.20
    0   28    4     -1.03      2.31
    2   28    4     -0.28      0.06
    4   28    4      1.76      0.43
    6   28    4      1.28      0.89
    8   28    4     -2.58      1.31
   10   28    4      3.55     -0.08
  -13   27    4     -1.81      0.57
  -11   27    4     -3.04      2.55
   -9   27    4     -1.14      1.94
   -7   27    4      0.42      0.50
   -5   27    4      0.60     -1.06
   -3   27    4      0.22     -1.92
   -1   27    4      0.11      1.96
    1   27    4     -0.79      1.13
    3   27    4     -1.51      1.97
    5   27    4      0.34      3.30
    7   27    4     -2.57      3.18
    9   27    4     -0.92      2.70
   11   27    4     -3.57      2.35
  -14   26    4      1.47     -2.61
  -12   26    4      0.21     -1.39
  -10   26    4     -0.70      2.47
   -8   26    4     -0.29      2.61
   -6   26    4     -0.06      3.72
   -4   26    4     -1.67      0.00
   -2   26    4     -0.73      1.11
    2   26    4      1.23      0.50
    4   26    4      1.78      1.28
    6   26    4     -0.80      1.05
    8   26    4      1.43     -1.04
   10   26    4     -3.87     -1.24
   12   26    4      1.97     -0.31
  -15   25    4      0.68      0.48
  -13   25    4     -0.24     -3.63
  -11   25    4      0.78     -3.74
   -9   25    4     -3.87     -1.82
   -7   25    4     -1.19     -0.84
   -5   25    4      1.31     -0.13
   -3   25    4      2.79      1.42
   -1   25    4      2.88      1.39
    1   25    4      1.77      2.77
    3   25    4      4.11      2.34
    5   25    4     -2.57      2.21
    7   25    4     -0.40     -0.22
    9   25    4     -2.67     -0.10
   11   25    4     -0.80      0.27
   13   25    4      1.92     -2.44
   15   25    4     -1.86     -0.86
  -16   24    4      0.45      3.30
  -14   24    4     -1.09      1.35
  -12   24    4      0.41      0.04
  -10   24    4      0.20     -1.66
   -8   24    4     -1.86      0.57
   -6   24    4      1.92      2.18
   -4   24    4      0.80      2.76
   -2   24    4     -0.43     -1.93
    0   24    4     -4.10     -0.72
    2   24    4      1.95     -1.70
    4   24    4      1.20     -1.38
    6   24    4      1.16     -1.39
    8   24    4     -2.62     -1.72
   10   24    4      0.10     -0.15
   12   24    4     -2.79     -1.26
   14   24    4     -3.56      2.03
   16   24    4     -1.74     -0.07
  -17   23    4     -3.50      2.77
  -15   23    4     -0.98     -0.86
  -13   23    4      1.74      1.55
  -11   23    4     -0.29      3.69
   -9   23    4      0.86     -0.39
   -7   23    4     -1.35     -0.35
   -5   23    4      0.72     -0.40
   -3   23    4     -0.69     -3.37
   -1   23    4     -3.25     -2.56
    1   23    4      0.80      0.33
    3   23    4     -1.23      0.67
    5   23    4      3.26      0.22
    7   23    4     -1.90     -0.47
    9   23    4      0.89     -2.63
   11   23    4      1.43     -2.64
   13   23    4     -1.67      1.77
   15   23    4      1.35      1.95
   17   23    4      0.22      1.72
  -16   22    4      0.53     -2.41
  -14   22    4      2.65     -5.53
  -12   22    4      0.00     -0.34
  -10   22    4     -1.95      1.45
   -8   22    4      0.40     -0.16
   -6   22    4     -3.40      1.60
   -4   22    4      1.75      1.23
   -2   22    4     -1.53      3.50
    0   22    4      0.29      1.47
    2   22    4     -5.95      3.34
    4   22    4     -4.18      3.23
    6   22    4     -5.60      1.55
    8   22    4     -0.93      0.61
   10   22    4     -0.16     -1.59
   12   22    4      1.20      1.93
   14   22    4      1.42     -0.05
   16   22    4      0.43      0.41
   18   22    4      0.81      0.08
  -19   21    4      0.76     -0.50
  -17   21    4     -2.12      1.34
  -15   21    4     -1.74      2.91
  -13   21    4     -2.12      1.23
  -11   21    4     -0.87      0.72
   -9   21    4     -2.33     -0.91
   -7   21    4     -2.33     -1.58
   -5   21    4     -6.94      1.06
   -3   21    4     -0.59      4.83
   -1   21    4      2.95      4.28
    1   21    4     -2.33     -0.75
    3   21    4      3.76      2.15
    5   21    4     -1.30      1.11
    7   21    4      4.00     -0.86
    9   21    4      2.64      0.33
   11   21    4     -0.30      2.03
   13   21    4      1.32      0.61
   15   21    4     -1.99      0.30
   17   21    4     -0.26      2.68
  -20   20    4      2.42     -3.57
  -18   20    4     -0.26     -4.04
  -16   20    4      1.54     -1.51
  -14   20    4      1.70      2.48
  -12   20    4      0.18     -0.63
  -10   20    4      1.06     -1.72
   -8   20    4      1.55     -0.90
   -6   20    4      5.00     -0.77
   -4   20    4     -1.49     -2.39
   -2   20    4      6.95     -5.45
    0   20    4     -2.14     -2.80
    2   20    4      4.02      0.81
    4   20    4      2.47      4.17
    6   20    4      2.71      1.40
    8   20    4      0.67     -2.24
   10   20    4     -1.60      0.33
   12   20    4     -0.81     -2.51
   14   20    4      0.69     -0.87
   16   20    4     -0.42     -0.75
   18   20    4     -1.40     -1.34
  -21   19    4      2.31      3.92
  -19   19    4      0.51     -0.37
  -17   19    4     -2.12     -0.86
  -15   19    4      1.79     -0.64
  -13   19    4      1.44     -0.17
  -11   19    4     -5.37     -1.90
   -9   19    4     -2.76     -0.59
   -7   19    4     -2.78      0.68
   -5   19    4      2.70     -1.07
   -3   19    4     -0.70     -2.92
   -1   19    4     -2.49     -3.75
    1   19    4      1.39      2.30
    3   19    4     -5.09     -1.49
    5   19    4     -0.95     -2.26
    7   19    4     -0.98     -0.52
    9   19    4      1.34      1.46
   11   19    4      1.69     -0.10
   13   19    4     -0.66      0.42
   15   19    4      0.97      1.17
   17   19    4     -2.26     -2.69
   19   19    4     -1.64      0.03
  -24   18    4     -0.81     -1.19
  -22   18    4      2.56      2.18
  -20   18    4      0.35     -0.08
  -18   18    4     -1.38     -2.86
  -16   18    4     -2.70     -1.63
  -14   18    4      0.29     -2.51
  -12   18    4     -2.48     -0.12
  -10   18    4     -0.81      0.12
   -8   18    4     -0.29     -0.30
   -6   18    4     -6.99     -4.08
   -4   18    4      0.23     -4.19
   -2   18    4    -14.70     -1.50
    0   18    4      0.75     -3.08
    2   18    4     -4.27      0.23
    4   18    4     -3.48     -2.18
    6   18    4     -0.20     -3.07
    8   18    4      1.26      2.64
   10   18    4     -0.10     -2.80
   12   18    4     -5.18      0.18
   14   18    4     -4.84      1.36
   16   18    4     -0.88     -0.57
   18   18    4     -1.21      0.72
  -23   17    4      0.62      2.02
  -21   17    4     -0.41      0.87
  -19   17    4      2.14      1.74
  -17   17    4      3.78     -0.36
  -15   17    4      0.88      1.46
  -13   17    4     -1.92     -0.03
  -11   17    4      0.12      0.64
   -9   17    4     -0.29     -0.25
   -7   17    4      0.11     -0.28
   -5   17    4      2.78      3.23
   -3   17    4      9.14      8.88
   -1   17    4      7.28      9.12
    1   17    4      1.03     -0.02
    3   17    4     -3.90      7.33
    5   17    4     -5.67      2.33
    7   17    4     -2.72      1.98
    9   17    4      0.78      1.04
   11   17    4      2.86     -1.18
   13   17    4      1.93      0.60
   15   17    4     -0.15     -0.84
   17   17    4      1.17      0.73
   19   17    4     -0.05     -0.38
  -24   16    4      3.00      0.63
  -22   16    4     -1.78     -2.41
  -20   16    4      1.19     -0.53
  -18   16    4      3.86     -0.26
  -16   16    4      1.83      0.27
  -14   16    4     -2.33      3.25
  -12   16    4      1.36     -4.84
  -10   16    4     -0.10     -6.21
   -8   16    4     -1.47     -5.17
   -6   16    4      2.16      1.91
   -4   16    4     -6.10      4.80
   -2   16    4     12.27      0.39
    0   16    4     -7.18     -2.69
    2   16    4     -4.58     -6.89
    4   16    4     -0.95     -3.56
    6   16    4     -1.94     -0.53
    8   16    4     -4.77     -1.49
   10   16    4     -2.84      5.22
   12   16    4      1.03     -0.91
   14   16    4     -2.04     -1.05
   16   16    4     -1.82      1.51
   18   16    4      2.67      0.18
  -23   15    4     -1.48     -1.46
  -21   15    4     -1.35      0.32
  -19   15    4      0.21     -0.23
  -17   15    4     -1.18     -0.75
  -15   15    4     -0.73     -0.32
  -13   15    4      3.47      0.96
  -11   15    4      5.10     -3.49
   -9   15    4      5.72     -0.30
   -7   15    4      8.84     -3.37
   -5   15    4      3.15     -2.43
   -3   15    4      0.56     -4.77
   -1   15    4      5.90     -3.82
    1   15    4      2.93      8.49
    3   15    4      9.62     -2.27
    5   15    4      8.94      5.63
    7   15    4      4.64      3.55
    9   15    4     -0.16      1.46
   11   15    4      2.56      1.30
   13   15    4      2.49     -5.19
   15   15    4      1.39     -0.53
   17   15    4      1.66      0.04
   19   15    4     -0.33     -0.01
  -24   14    4     -4.52      0.15
  -22   14    4      0.19      0.67
  -20   14    4      1.45      0.27
  -18   14    4      0.77      1.30
  -16   14    4      0.46      0.72
  -14   14    4      2.07     -3.34
  -12   14    4      0.46     -0.65
  -10   14    4     -0.25      0.17
   -8   14    4     -1.91      3.79
   -6   14    4     -7.79     -5.68
   -4   14    4     -2.25     -6.46
   -2   14    4    -20.42     -7.00
    0   14    4      0.52     -7.29
    2   14    4     -4.36     -6.84
    4   14    4     -8.38     -7.55
    6   14    4     -3.42     -4.81
    8   14    4     -2.71     -4.29
   10   14    4     -2.45     -7.74
   12   14    4     -1.24     -0.42
   14   14    4      1.64     -1.80
   16   14    4      1.66     -1.45
   18   14    4     -1.76     -1.67
   20   14    4      2.73     -0.29
  -25   13    4     -1.71      0.33
  -23   13    4      1.66      1.12
  -21   13    4      0.76     -1.39
  -19   13    4     -1.92     -0.20
  -17   13    4     -0.02      0.30
  -15   13    4     -1.37     -1.43
  -13   13    4     -2.85     -2.92
  -11   13    4     -1.05      1.32
   -9   13    4     -0.16     -4.48
   -7   13    4     -4.19     -1.59
   -5   13    4      2.36     -2.84
   -3   13    4     -1.41     11.62
   -1   13    4     -5.31     17.31
    1   13    4      9.42      1.81
    3   13    4     -4.57     10.73
    5   13    4      1.02     -1.15
    7   13    4      2.78     -0.87
    9   13    4      1.98      1.87
   11   13    4     -0.05      2.26
   13   13    4      0.97      6.52
   15   13    4     -0.10     -1.36
   17   13    4     -3.54     -0.63
   19   13    4     -1.05      0.03
   21   13    4      1.27     -0.26
  -24   12    4      0.49      0.33
  -20   12    4     -1.68      1.18
  -18   12    4     -0.52      0.85
  -16   12    4     -0.54      1.56
  -14   12    4     -1.28      4.77
  -12   12    4      4.33      8.29
  -10   12    4      7.56     10.03
   -8   12    4      3.06      3.21
   -6   12    4      5.23     10.97
   -4   12    4     -8.04      0.26
   -2   12    4      1.25     -1.23
    0   12    4    -13.25     -4.28
    2   12    4     -7.21      0.00
    4   12    4     -2.82      3.63
    6   12    4     -1.28     -2.94
    8   12    4     -1.81     -1.95
   10   12    4     -2.78      2.59
   12   12    4     -3.30      0.07
   14   12    4     -2.47      1.34
   16   12    4     -1.85      0.05
   18   12    4      2.74      1.38
   20   12    4     -0.96      0.54
  -25   11    4      3.27     -2.61
  -23   11    4      0.52     -2.12
  -21   11    4      0.14      0.63
  -19   11    4      1.79     -1.13
  -17   11    4     -1.11     -1.82
  -15   11    4      0.79     -1.60
  -13   11    4      0.47     -0.78
  -11   11    4     -1.35     -3.12
   -9   11    4     -3.49     -1.16
   -7   11    4      5.52     -4.55
   -5   11    4      6.82      3.47
   -3   11    4     14.47    -15.04
   -1   11    4     21.97    -13.47
    1   11    4      1.75     11.32
    3   11    4     14.40      1.94
    5   11    4      1.85     12.23
    7   11    4      0.18      7.79
    9   11    4      5.06     -0.08
   11   11    4      6.32      0.68
   13   11    4      5.43     -5.46
   15   11    4      2.60     -0.90
   17   11    4      2.27     -1.80
   19   11    4     -0.73     -0.95
   21   11    4     -2.83     -0.31
  -24   10    4     -1.87      0.02
  -22   10    4     -0.70      0.00
  -20   10    4      1.67     -2.32
  -18   10    4      0.87     -1.33
  -16   10    4      1.00      1.42
  -14   10    4      5.98      2.54
  -12   10    4      2.18     -0.26
  -10   10    4     -1.71     -1.34
   -8   10    4      0.79      2.91
   -6   10    4     -9.75     -6.19
   -4   10    4     -2.75      1.45
   -2   10    4    -11.02    -13.33
    0   10    4     -3.73      0.49
    2   10    4     -8.81     -8.81
    4   10    4     -3.96    -16.23
    6   10    4     -6.49      1.66
    8   10    4     -3.89     -4.36
   10   10    4     -6.80     -3.29
   12   10    4     -4.93      1.21
   14   10    4     -1.77      2.43
   16   10    4      1.01      3.07
   18   10    4     -1.52     -0.81
   20   10    4      1.29     -2.61
   22   10    4      0.05      0.13
  -23    9    4     -0.31      0.91
  -21    9    4     -0.37     -1.35
  -19    9    4     -0.65      0.04
  -17    9    4      0.04     -2.33
  -15    9    4     -2.89     -2.05
  -13    9    4     -3.95      0.70
  -11    9    4     -6.11      5.71
   -9    9    4      2.92      3.09
   -7    9    4     -0.92     -2.50
   -5    9    4     -0.90    -18.97
   -3    9    4      2.20     -4.25
   -1    9    4     -4.58      4.22
    1    9    4      7.28     -1.23
    3    9    4     -9.50      5.52
    5    9    4      4.25      4.68
    7    9    4      8.87      3.91
   11    9    4      0.78     -7.45
   13    9    4      0.34     -2.01
   15    9    4      2.26     -1.47
   17    9    4     -0.31      0.71
   19    9    4      0.16      0.85
   21    9    4      1.73     -0.60
  -26    8    4      1.26      0.66
  -24    8    4      0.55     -0.47
  -22    8    4      0.63     -2.87
  -20    8    4      3.63      3.05
  -18    8    4      4.86      3.27
  -16    8    4      1.72      1.29
  -14    8    4     -4.11     -0.33
  -12    8    4     -4.08      0.78
  -10    8    4     -2.12      0.20
   -8    8    4     -4.36     -3.00
   -6    8    4      4.49      8.65
   -4    8    4      3.65     -1.49
   -2    8    4     14.05     19.35
    0    8    4     -7.55     -6.12
    2    8    4    -13.93     -6.87
    4    8    4    -25.79      1.29
    6    8    4    -11.08    -12.53
    8    8    4     -5.83      2.66
   10    8    4      2.64      4.49
   12    8    4      1.96      7.39
   14    8    4      0.37      5.27
   16    8    4     -0.78     -0.73
   18    8    4      2.95     -1.26
   20    8    4      2.84      0.39
   22    8    4      1.35     -1.84
  -25    7    4      0.21      0.77
  -23    7    4     -0.84     -1.53
  -21    7    4     -0.43      2.37
  -19    7    4      0.39      2.60
  -17    7    4     -1.52     -0.76
  -15    7    4     -0.20     -0.89
  -13    7    4     -0.27     -1.69
  -11    7    4      2.90     -1.64
   -9    7    4     -0.63     -0.41
   -7    7    4      9.05     -0.68
   -5    7    4     12.34      7.67
   -3    7    4     13.39      0.55
   -1    7    4     12.99      2.42
    1    7    4     -0.87     -0.89
    3    7    4     23.51      7.32
    5    7    4      4.58      5.81
    7    7    4     -3.56      3.56
    9    7    4      3.69      0.25
   11    7    4     -2.73     -0.15
   13    7    4     -2.82     -3.05
   15    7    4     -5.15     -5.03
   17    7    4     -1.04     -3.91
   19    7    4      0.64     -0.41
   21    7    4     -0.56      2.83
   23    7    4      0.08      0.31
  -26    6    4      0.72      0.47
  -24    6    4      0.22     -0.89
  -22    6    4      4.19      1.57
  -20    6    4     -0.24      0.92
  -18    6    4     -0.55      1.55
  -16    6    4      0.47      0.69
  -14    6    4      2.52      3.53
  -12    6    4     -1.35     -1.15
  -10    6    4     -8.22      4.97
   -8    6    4     -0.88     10.59
   -6    6    4      0.97     -1.73
   -4    6    4     13.45      9.39
   -2    6    4      1.77    -19.48
    0    6    4     -0.80     -9.75
    2    6    4     -5.92    -14.26
    4    6    4      6.09    -16.92
    6    6    4    -16.32      7.42
    8    6    4      2.66     -0.45
   10    6    4      3.75     -0.39
   12    6    4      4.18     -2.71
   14    6    4      2.57     -1.70
   16    6    4      2.47      2.07
   18    6    4      0.23      2.00
   20    6    4     -1.71      1.51
   22    6    4      0.96      1.82
   24    6    4      1.57      0.49
  -25    5    4      1.22     -0.91
  -23    5    4      3.33      2.14
  -21    5    4     -0.86     -0.24
  -19    5    4     -5.58      0.06
  -17    5    4      2.74      0.13
  -15    5    4      1.98     -0.48
  -13    5    4      3.55     -3.00
  -11    5    4     -3.89    -13.43
   -9    5    4     -0.73    -14.52
   -7    5    4     -1.98    -15.53
   -5    5    4      0.18     -9.87
   -3    5    4      4.38      8.74
   -1    5    4      9.49      2.28
    1    5    4     28.45     10.30
    3    5    4      6.93    -11.23
    5    5    4      5.94     -9.48
    7    5    4     -1.50     -2.60
    9    5    4     -8.36     -0.13
   11    5    4     -4.39      0.38
   13    5    4     -5.82     -1.01
   15    5    4      0.06      1.79
   17    5    4      1.21      0.42
   19    5    4     -0.91     -1.46
   21    5    4     -0.49     -1.84
   23    5    4      0.77      0.56
  -28    4    4     -4.16      0.15
  -26    4    4     -2.95      0.43
  -24    4    4      0.70      1.17
  -22    4    4     -0.32      0.75
  -20    4    4     -0.57      0.80
  -18    4    4     -1.42      1.76
  -16    4    4     -2.28      4.63
  -14    4    4     -4.52      4.14
  -12    4    4      3.35      8.19
  -10    4    4      4.05      2.20
   -8    4    4     -1.86      9.72
   -6    4    4     -2.82     24.76
   -4    4    4    -16.76     14.89
   -2    4    4    -12.74     30.03
    0    4    4     -9.81      4.44
    2    4    4     -5.75      0.22
    4    4    4    -23.27     -1.68
    6    4    4      8.81    -22.20
    8    4    4     -2.69     -6.09
   10    4    4      7.60     -2.96
   12    4    4      1.55     -2.33
   14    4    4      0.73     -1.15
   16    4    4      0.86      0.06
   18    4    4      2.22      1.96
   20    4    4      0.70     -0.09
   22    4    4     -2.30      0.43
   24    4    4     -2.41      0.72
  -27    3    4      2.79      2.89
  -25    3    4      0.87      2.17
  -23    3    4     -2.40      0.31
  -21    3    4     -2.52      0.88
  -19    3    4      0.65     -2.75
  -17    3    4     -0.64     -0.81
  -15    3    4      1.46     -3.68
  -13    3    4      0.07     -3.75
  -11    3    4      4.57     -2.86
   -9    3    4      0.04     -8.18
   -7    3    4      4.67      1.46
   -5    3    4      5.52     -3.86
   -3    3    4      8.96     -5.28
   -1    3    4     14.74      9.49
    1    3    4      4.92     -9.42
    3    3    4     15.55     22.13
    5    3    4      2.59     10.22
    7    3    4     -4.29      1.18
    9    3    4      0.52      9.61
   11    3    4      0.07      2.03
   13    3    4      3.83      1.28
   15    3    4      1.39     -2.98
   17    3    4     -0.31      1.32
   19    3    4      1.55      1.73
   21    3    4     -0.51     -1.13
   23    3    4     -1.06     -0.23
  -26    2    4      1.02     -0.24
  -24    2    4     -2.49     -1.52
  -22    2    4      0.19      0.85
  -20    2    4      0.98     -0.55
  -18    2    4      0.15      2.61
  -16    2    4     -0.07      3.11
  -14    2    4      3.24      3.73
  -12    2    4      1.46      1.59
  -10    2    4      4.90      0.38
   -8    2    4      5.82      1.82
   -6    2    4      4.97      5.76
   -4    2    4     16.32     27.28
   -2    2    4     16.25     25.20
    0    2    4      3.34     20.95
    2    2    4     -9.09      2.83
    4    2    4     12.18    -13.41
    6    2    4    -18.92    -14.97
    8    2    4      3.11    -11.97
   10    2    4     -4.22     -0.16
   12    2    4      3.21     -0.19
   14    2    4      3.13     -1.58
   16    2    4      0.18     -2.68
   18    2    4     -1.87     -0.45
   20    2    4     -0.02      0.24
   22    2    4      0.14     -0.84
   24    2    4      0.64     -0.51
  -27    1    4     -3.14     -0.84
  -25    1    4     -1.17     -1.29
  -23    1    4     -0.90      1.68
  -21    1    4     -1.38     -1.08
  -19    1    4     -2.28     -0.94
  -17    1    4     -4.00     -1.38
  -15    1    4     -5.90      0.88
  -13    1    4     -7.21      5.97
  -11    1    4     -3.98      3.06
   -9    1    4     -0.76      2.32
   -7    1    4    -11.79    -13.30
   -5    1    4    -26.00     -9.74
   -3    1    4    -40.98     -3.92
   -1    1    4    -35.21    -18.56
    1    1    4     -4.89     10.23
    3    1    4      9.03    -11.62
    5    1    4     24.42     -1.20
    7    1    4     20.85      6.62
    9    1    4      2.94      2.84
   11    1    4     -1.69      5.01
   13    1    4     -2.03     -1.62
   15    1    4     -0.14      3.22
   17    1    4     -0.40      1.18
   19    1    4     -1.76      1.79
   21    1    4      0.65      0.69
   23    1    4      0.15     -2.88
   25    1    4      0.44     -2.32
  -26    0    4     -1.87      0.25
  -24    0    4      5.08      0.39
  -22    0    4      1.95      0.03
  -20    0    4      3.00     -0.48
  -18    0    4      1.98     -0.38
  -16    0    4      2.65      0.31
  -14    0    4      0.43      0.56
  -12    0    4      1.88      1.22
  -10    0    4      3.67      1.31
   -8    0    4      4.35      2.95
   -6    0    4     12.18      0.96
   -4    0    4      3.53     -1.70
   -2    0    4     -6.57     -2.33
    0    0    4      5.20     -1.80
    2    0    4      1.98      1.63
    4    0    4    -31.24      0.21
    6    0    4     10.91     -0.75
    8    0    4    -13.35      0.27
   10    0    4     -2.48     -0.16
   12    0    4     -0.45     -0.44
   14    0    4      0.80      0.19
   16    0    4      1.33      0.54
   18    0    4     -0.98     -0.14
   20    0    4     -0.66      0.10
   22    0    4      1.92      0.07
   24    0    4      1.24     -0.57
  -27    5    4     -0.48     -0.80
  -25    9    4     -0.62      0.60
    9    9    4      1.61     -1.05
  -22   12    4     -1.23      0.15
   22   12    4      0.12     -1.50
   22   14    4      0.72      2.07
   21   15    4     -2.39      2.11
   20   16    4     -1.15     -1.63
   22   16    4      1.16     -1.54
   21   17    4      1.00     -1.83
   20   18    4      2.01      2.35
  -23   19    4      0.04     -0.25
  -22   20    4     -3.03     -3.09
  -21   21    4      1.44     -4.97
  -20   22    4      0.82     -3.88
  -18   22    4      2.62     -1.33
  -19   23    4     -4.40     -1.72
  -18   24    4     -2.88     -0.72
  -17   25    4      0.20     -0.33
    0   26    4      1.55     -0.23
  -10   28    4     -1.07      0.29
    6   30    4      3.05      0.78
    0   32    4     -0.54     -1.55
    1   33    4      1.09      1.65
    3   33    4      0.41     -0.57
    0   34    4      0.88      0.15
   -8   32    5      0.33      0.72
   -6   32    5     -0.92      4.01
    2   32    5      0.20      2.10
    4   32    5     -0.81      1.56
   -9   31    5     -1.16     -0.84
   -7   31    5      0.19      1.44
   -5   31    5      0.16     -0.14
    1   31    5     -2.75      0.49
    3   31    5      0.41      1.44
  -10   30    5     -0.29     -0.51
   -8   30    5     -3.49      0.66
   -6   30    5     -2.23      1.07
   -4   30    5     -1.09      1.06
   -2   30    5      1.72      0.82
    0   30    5      0.00     -1.41
    4   30    5     -0.87     -3.48
    6   30    5      1.19      0.50
  -11   29    5      1.19     -0.48
   -9   29    5      0.00      0.28
   -7   29    5     -1.95     -1.49
   -5   29    5     -0.52      0.11
   -3   29    5      1.16      1.54
   -1   29    5      1.48      1.40
    1   29    5      0.69      0.90
    3   29    5     -0.75      0.53
    5   29    5      0.88      2.88
    7   29    5      0.73      3.49
  -12   28    5      2.44     -2.11
  -10   28    5      1.09     -3.22
   -8   28    5      0.79     -2.76
   -6   28    5     -3.31     -2.42
   -4   28    5     -3.26      0.13
   -2   28    5     -2.43     -0.94
    0   28    5     -1.52     -0.96
    2   28    5      0.08     -3.15
    4   28    5      0.57      0.64
    6   28    5      0.02      0.24
    8   28    5     -0.16     -2.47
  -13   27    5     -1.62      0.86
  -11   27    5     -1.20      0.09
   -9   27    5      1.51      0.09
   -7   27    5      1.04     -0.31
   -5   27    5     -1.39     -1.81
   -3   27    5     -0.55     -2.19
   -1   27    5      0.87     -0.04
    1   27    5      0.92     -0.08
    3   27    5      0.68      1.53
    5   27    5     -0.11      1.83
    7   27    5     -1.81     -2.32
    9   27    5     -0.33     -2.18
  -14   26    5     -0.73      1.70
  -12   26    5     -0.28      0.55
  -10   26    5     -0.32      1.43
   -8   26    5      0.62      0.39
   -6   26    5     -0.91      0.66
   -4   26    5     -2.09     -1.12
   -2   26    5     -3.03      2.64
    0   26    5     -2.69     -0.27
    2   26    5     -2.71      0.21
    4   26    5     -2.53      1.22
    6   26    5     -1.67      0.19
    8   26    5      2.35      1.68
   10   26    5     -0.15     -0.86
   12   26    5      3.55      0.90
  -13   25    5      0.52      0.82
  -11   25    5      0.63      0.05
   -9   25    5     -1.85     -0.06
   -7   25    5      1.66     -2.61
   -5   25    5      2.94     -3.60
   -3   25    5      3.09      0.16
   -1   25    5      1.13      0.45
    1   25    5      0.87     -3.24
    3   25    5      2.22     -1.70
    5   25    5     -0.48     -0.96
    7   25    5      1.42      1.82
    9   25    5     -0.42      0.58
   11   25    5     -0.76      0.72
   13   25    5      0.54     -1.29
   15   25    5     -4.88      0.57
  -14   24    5      1.86     -1.14
  -12   24    5      1.18      0.31
  -10   24    5     -0.02      0.49
   -8   24    5     -1.16      3.07
   -6   24    5      2.96     -1.80
   -4   24    5      0.94     -0.60
   -2   24    5      0.62     -2.22
    0   24    5     -0.63     -0.80
    2   24    5      0.77     -0.85
    4   24    5      0.19     -1.23
    6   24    5      2.07      0.23
    8   24    5     -1.04     -1.94
   10   24    5      2.00      0.77
   12   24    5      0.51     -1.10
   14   24    5      0.02      1.09
  -15   23    5     -0.48      1.62
  -13   23    5      1.66      1.34
  -11   23    5     -0.86      0.36
   -9   23    5      0.79     -0.51
   -7   23    5     -0.59      0.58
   -5   23    5      2.51      0.27
   -3   23    5     -0.72      1.35
   -1   23    5     -0.80     -0.54
    1   23    5      0.96      2.18
    3   23    5     -4.93     -0.76
    5   23    5     -0.80      0.72
    7   23    5      0.36     -0.44
    9   23    5      2.11      2.97
   11   23    5      2.94      2.82
   13   23    5     -2.07      4.22
   15   23    5      2.10     -0.75
  -16   22    5     -1.02     -2.82
  -14   22    5     -2.86      0.71
  -12   22    5     -0.65      0.69
  -10   22    5      1.39      0.77
   -8   22    5      3.80     -0.71
   -6   22    5      0.02      1.56
   -4   22    5      1.06     -1.38
   -2   22    5     -4.35     -1.06
    0   22    5      1.56     -2.84
    2   22    5      1.39     -2.15
    4   22    5      0.16      0.84
    6   22    5     -0.20     -0.47
    8   22    5      2.33      1.04
   10   22    5     -1.59     -2.67
   12   22    5     -1.61     -0.37
   14   22    5     -0.84     -2.51
   16   22    5      0.88     -2.12
  -17   21    5      1.05     -4.01
  -15   21    5      0.24     -0.22
  -13   21    5     -2.19      1.12
  -11   21    5     -1.59     -1.95
   -9   21    5     -5.39     -1.59
   -7   21    5     -0.63     -0.34
   -5   21    5     -0.76      2.58
   -3   21    5      3.18      0.78
   -1   21    5      3.76      4.36
    1   21    5      0.74     -0.02
    3   21    5      1.75      2.79
    5   21    5     -3.10      1.57
    7   21    5      2.44      4.91
    9   21    5      3.14      2.06
   11   21    5     -0.13      1.13
   13   21    5      3.10     -1.15
   15   21    5     -0.64      1.48
   17   21    5      2.17      1.19
  -18   20    5     -1.49      2.40
  -16   20    5     -0.30     -0.32
  -14   20    5     -0.60      0.97
  -12   20    5      0.01     -1.55
  -10   20    5     -1.10     -3.05
   -8   20    5     -2.28      1.55
   -6   20    5      1.59      2.07
   -4   20    5     -5.44      1.42
   -2   20    5     -0.03     -3.64
    0   20    5     -3.70     -3.53
    2   20    5      0.67     -4.51
    4   20    5     -0.09     -7.19
    6   20    5     -0.35     -0.67
    8   20    5     -3.50      0.44
   10   20    5     -3.46      3.90
   12   20    5     -2.49      0.39
   14   20    5     -0.83     -0.50
   16   20    5      0.57     -0.20
  -19   19    5     -1.73     -0.80
  -17   19    5      0.66      0.49
  -15   19    5     -0.66     -1.79
  -13   19    5      0.36      0.76
  -11   19    5     -0.63      1.29
   -9   19    5      0.40      1.56
   -7   19    5     -2.98      1.06
   -5   19    5      1.01     -3.74
   -3   19    5     -1.62     -1.41
   -1   19    5     -1.06     -4.89
    1   19    5      3.94      3.14
    3   19    5      2.90     -2.91
    5   19    5      4.31      1.55
    7   19    5     -2.36      2.83
    9   19    5     -3.51      1.17
   11   19    5      2.95     -0.63
   13   19    5      0.22     -0.32
   15   19    5      1.50     -1.15
   17   19    5     -0.84      0.42
  -20   18    5     -1.58     -3.99
  -18   18    5     -0.74     -3.08
  -16   18    5     -0.35      0.36
  -14   18    5     -2.39     -0.85
  -12   18    5     -0.54      1.59
  -10   18    5      5.04      1.65
   -8   18    5      3.66      0.93
   -6   18    5      1.34     -0.34
   -4   18    5      8.34     -1.57
   -2   18    5     -2.91      1.75
    0   18    5      2.01      2.46
    2   18    5     -2.01      2.44
    4   18    5     -1.41      1.15
    6   18    5     -4.28      1.13
    8   18    5     -4.83      3.04
   10   18    5     -1.82     -2.92
   12   18    5      0.53      1.24
   14   18    5      0.16      2.23
   16   18    5      0.85      0.38
   18   18    5      0.21      1.39
  -23   17    5      3.38      3.18
  -21   17    5      3.12     -1.82
  -19   17    5     -0.99     -0.90
  -17   17    5     -0.26      0.93
  -15   17    5      0.30      1.82
  -13   17    5     -2.85     -2.56
  -11   17    5      1.90     -2.54
   -9   17    5     -1.99     -7.09
   -7   17    5     -3.40     -5.65
   -5   17    5     -2.09      1.35
   -3   17    5      1.09     -1.67
   -1   17    5      3.75      2.90
    1   17    5      2.37     -5.19
    3   17    5      3.01      1.12
    5   17    5     -0.20     -3.65
    7   17    5      0.19     -1.59
    9   17    5      3.73     -0.92
   11   17    5     -0.36     -0.14
   13   17    5      1.80      1.58
   15   17    5      1.92      1.31
   17   17    5      2.42      1.36
  -24   16    5      0.90     -1.63
  -22   16    5      0.30     -5.85
  -20   16    5      2.18     -5.26
  -18   16    5      1.32     -3.80
  -16   16    5      1.21     -3.00
  -14   16    5     -0.65     -0.91
  -12   16    5      2.04      0.03
  -10   16    5      1.36      3.00
   -8   16    5      0.55     -1.76
   -6   16    5      2.75      3.01
   -4   16    5     -2.96      0.30
   -2   16    5      6.69     -5.98
    0   16    5     -3.08     -1.16
    2   16    5      0.94      3.34
    4   16    5      2.94      6.33
    6   16    5     -1.98      0.43
    8   16    5     -2.76     -6.46
   10   16    5     -3.38     -1.23
   12   16    5     -4.97     -2.54
   14   16    5     -2.00     -2.26
   16   16    5     -1.54      1.43
   18   16    5     -0.13     -1.05
  -23   15    5     -3.26     -3.88
  -21   15    5     -1.86      0.44
  -19   15    5      0.90     -0.28
  -17   15    5     -0.25     -1.07
  -15   15    5     -1.75     -2.91
  -13   15    5      0.34      0.53
  -11   15    5     -4.78      1.69
   -9   15    5     -2.60      4.11
   -7   15    5      0.08      0.46
   -5   15    5      0.93      1.03
   -3   15    5      6.37      1.25
   -1   15    5      2.07     -2.41
    1   15    5     -3.23      9.37
    3   15    5     -0.21      0.11
    5   15    5     -1.56      2.19
    7   15    5     -2.00     -3.31
    9   15    5      0.15     -1.12
   11   15    5      6.01      4.01
   13   15    5      3.23      1.32
   15   15    5      0.77      2.71
   17   15    5     -0.58      1.25
  -24   14    5     -0.23      0.80
  -22   14    5      2.93      3.03
  -20   14    5      2.69      1.13
  -18   14    5      1.18      0.08
  -16   14    5     -0.99     -0.41
  -14   14    5      3.16     -2.67
  -12   14    5      3.04      0.09
  -10   14    5      3.13     -1.10
   -8   14    5      6.96      2.42
   -6   14    5     -1.42     -5.55
   -4   14    5      2.11      0.26
   -2   14    5     -4.33      1.30
    0   14    5      4.76     -1.18
    2   14    5      4.80      0.48
    4   14    5      1.03     -3.81
    6   14    5      2.09     -2.08
    8   14    5     -1.16      0.55
   10   14    5     -1.86     -0.95
   12   14    5     -2.20      1.54
   14   14    5     -3.58      1.09
   16   14    5     -2.13     -1.36
   18   14    5     -1.36      0.63
  -25   13    5     -0.63     -0.80
  -23   13    5      4.93      1.04
  -21   13    5      5.06     -1.66
  -19   13    5      2.43     -0.68
  -17   13    5      2.47      0.50
  -15   13    5      0.36      0.32
  -13   13    5     -4.29      0.09
  -11   13    5     -4.28      3.28
   -9   13    5     -0.56     -1.16
   -7   13    5      4.22     -1.04
   -5   13    5      3.49     -2.91
   -3   13    5     -1.05      4.09
   -1   13    5      0.54      2.99
    1   13    5      2.57     -8.32
    3   13    5     -7.69      6.37
    5   13    5     -1.46     -0.11
    7   13    5      3.94      0.19
    9   13    5      7.13     -2.12
   11   13    5      2.52     -5.48
   13   13    5      3.07     -0.16
   15   13    5      2.91     -1.69
   17   13    5      0.53     -0.13
   19   13    5      1.73      0.84
  -22   12    5      0.58      0.28
  -20   12    5     -0.15      1.04
  -18   12    5      0.40      1.27
  -16   12    5      3.47     -0.39
  -14   12    5      0.23     -0.65
  -12   12    5     -1.77     -1.58
  -10   12    5     -1.43      0.36
   -8   12    5     -4.92     -0.13
   -6   12    5      2.63     13.47
   -4   12    5     -4.86      7.78
   -2   12    5      3.82      7.26
    0   12    5     -3.60     -1.90
    2   12    5     -9.57     -4.64
    4   12    5     -2.86      2.79
    6   12    5     -1.20     -2.17
    8   12    5      1.77      0.02
   10   12    5     -2.76      2.85
   12   12    5     -5.75      1.38
   14   12    5     -1.65      0.81
   16   12    5     -0.33     -0.67
   18   12    5      2.69     -1.35
   20   12    5     -0.76     -0.23
  -23   11    5     -1.20     -0.96
  -21   11    5      0.06      3.07
  -19   11    5      1.02      1.95
  -17   11    5      0.87      0.50
  -15   11    5      3.87      0.16
  -13   11    5      2.34      2.07
  -11   11    5      2.17     -2.25
   -9   11    5      1.31     -0.15
   -7   11    5      0.66     -0.38
   -5   11    5      1.33     -2.50
   -3   11    5      3.51    -13.21
   -1   11    5      7.16     -3.96
    1   11    5     -3.25     10.39
    3   11    5      7.38     -0.03
    5   11    5      0.51      6.43
    7   11    5     -1.59      1.12
    9   11    5     -1.28      1.43
   11   11    5     -1.18      1.06
   13   11    5     -0.79     -4.19
   15   11    5     -0.40     -1.18
   17   11    5      1.39      0.45
   19   11    5     -1.66      1.12
  -24   10    5     -1.93     -0.53
  -22   10    5     -2.37      1.69
  -20   10    5      0.54     -0.09
  -18   10    5      0.86     -1.43
  -16   10    5     -0.14      0.23
  -14   10    5      0.35      0.92
  -12   10    5     -2.60      0.01
  -10   10    5     -6.67      2.56
   -8   10    5     -3.52     17.02
   -6   10    5    -10.20      5.99
   -4   10    5      1.33      3.51
   -2   10    5     -1.00     -4.76
    0   10    5      2.74      6.53
    2   10    5      3.09      3.51
    4   10    5     -3.61     -3.63
    6   10    5     -3.84      4.66
    8   10    5      0.48      1.45
   10   10    5      4.82      0.60
   12   10    5      4.68     -0.86
   14   10    5     -0.20      0.92
   16   10    5      0.29      2.92
   18   10    5     -2.59      1.13
   20   10    5     -0.07     -1.05
  -25    9    5      0.00      0.74
  -23    9    5      2.15      3.71
  -21    9    5     -1.41      1.92
  -19    9    5     -2.05      0.07
  -17    9    5      0.15      1.51
  -15    9    5     -1.14      2.07
  -13    9    5      1.69     -5.94
  -11    9    5      0.91    -11.57
   -9    9    5      1.01    -14.15
   -7    9    5     -1.53    -13.78
   -5    9    5     -1.43    -13.45
   -3    9    5      6.66      5.90
   -1    9    5      2.55      6.22
    1    9    5     13.66     -4.20
    3    9    5     -5.32      2.05
    5    9    5     -3.39     -4.66
    7    9    5     -0.43      2.85
    9    9    5     -2.25      4.36
   11    9    5      1.24      0.57
   13    9    5     -1.04      1.75
   15    9    5      0.19      1.81
   17    9    5     -1.41      1.05
   19    9    5      0.95      1.29
   21    9    5      0.59      0.09
  -24    8    5      0.70      1.11
  -22    8    5      1.47      1.17
  -20    8    5      0.07      0.09
  -18    8    5     -0.18     -0.15
  -16    8    5     -1.45      2.93
  -14    8    5     -2.59      2.94
  -12    8    5      2.95      5.47
  -10    8    5      7.45      7.21
   -8    8    5     -5.07     -0.22
   -6    8    5     -1.44     11.28
   -4    8    5     -4.92     12.66
   -2    8    5     -2.35     24.40
    0    8    5     -8.55     -1.34
    2    8    5     -7.12     -3.37
    4    8    5     -6.68      0.27
    6    8    5      3.94    -14.20
    8    8    5      0.51     -4.26
   10    8    5     -0.91     -3.41
   12    8    5     -0.68     -3.01
   14    8    5      1.58     -2.13
   16    8    5      0.14     -2.58
   18    8    5      1.76     -1.33
   20    8    5      0.87     -1.03
   22    8    5     -0.62     -2.33
  -25    7    5      1.19     -0.51
  -23    7    5     -1.34     -1.84
  -21    7    5     -1.11      1.49
  -19    7    5      0.38      1.76
  -17    7    5     -0.73      0.97
  -15    7    5      0.98     -1.76
  -13    7    5     -3.06      0.37
  -11    7    5      1.76      0.75
   -9    7    5     -5.41     -9.88
   -7    7    5     -7.11    -15.90
   -5    7    5      4.97    -13.86
   -3    7    5      0.72    -15.74
   -1    7    5      5.38     -9.20
    1    7    5     -7.61     -1.12
    3    7    5      4.15      6.30
    5    7    5     -3.73     11.78
    7    7    5     -7.79      4.80
    9    7    5     -2.97      6.11
   11    7    5     -2.09      2.28
   13    7    5      3.34     -1.75
   15    7    5     -1.00     -3.07
   17    7    5     -2.04      0.86
   19    7    5     -1.86      2.34
   21    7    5     -0.97      2.06
  -26    6    5     -1.09     -0.22
  -24    6    5     -1.64      0.61
  -22    6    5     -2.39     -0.66
  -20    6    5      2.19     -0.06
  -18    6    5      3.68      2.70
  -16    6    5      3.60      2.63
  -14    6    5      6.25      3.45
  -12    6    5      7.33      3.03
  -10    6    5      6.70      3.88
   -8    6    5     10.46     11.35
   -6    6    5      7.59     11.98
   -4    6    5      5.29     22.05
   -2    6    5     -8.61      6.79
    0    6    5     -4.37     14.65
    2    6    5    -12.39      1.00
    4    6    5     -2.12    -16.14
    6    6    5    -10.72     -5.35
    8    6    5     -4.56     -7.42
   10    6    5     -4.70     -0.07
   12    6    5      0.89      1.49
   14    6    5      1.02     -0.53
   16    6    5      0.69     -0.42
   18    6    5     -0.94     -1.34
   20    6    5     -0.66     -0.14
   22    6    5      0.45     -1.22
  -27    5    5     -0.41     -3.24
  -25    5    5      0.39     -3.01
  -23    5    5     -3.08      0.34
  -21    5    5     -5.62     -2.66
  -19    5    5     -3.02     -1.04
  -17    5    5     -2.13     -0.68
  -15    5    5     -5.66      0.83
  -13    5    5     -2.49     -1.74
  -11    5    5     -8.81     -2.98
   -9    5    5      0.31     -4.09
   -7    5    5      1.38    -15.60
   -5    5    5    -11.44    -18.43
   -3    5    5    -14.43    -16.82
   -1    5    5     -6.31     -9.66
    1    5    5     18.46      4.63
    3    5    5      4.47     -1.71
    5    5    5     15.54     -6.51
    7    5    5     14.73      3.27
    9    5    5      0.23     -2.78
   11    5    5      1.99      0.90
   13    5    5     -0.79      0.32
   15    5    5      2.02      2.20
   17    5    5      1.00     -1.69
   19    5    5     -1.88     -0.22
   21    5    5     -0.10      0.80
   23    5    5     -0.02      2.87
  -26    4    5     -1.60      1.39
  -24    4    5     -1.10      1.81
  -22    4    5     -0.65      0.98
  -20    4    5      0.92      0.97
  -18    4    5      0.86      0.22
  -16    4    5     -3.10      0.63
  -14    4    5     -2.16     -2.05
  -12    4    5     -1.28      1.51
  -10    4    5      2.34      6.20
   -8    4    5      7.08      2.09
   -6    4    5      8.48      9.29
   -4    4    5      6.00      4.58
   -2    4    5      8.93     12.38
    0    4    5      2.24      1.76
    2    4    5     -7.47     -6.40
    4    4    5    -33.56     -3.83
    6    4    5     -5.18     -9.10
    8    4    5     -8.34     -2.83
   10    4    5      1.70     -2.86
   12    4    5      2.63      1.93
   14    4    5      1.60      4.03
   16    4    5      1.15      0.26
   18    4    5     -1.36     -0.78
   20    4    5     -0.52     -0.66
   22    4    5      2.30      1.46
  -27    3    5      2.85     -0.52
  -25    3    5     -0.31      1.32
  -23    3    5      1.06     -3.87
  -21    3    5      2.02     -0.60
  -19    3    5      0.13      1.13
  -17    3    5     -4.02      2.72
  -15    3    5     -1.99      1.20
  -13    3    5     -2.21      3.75
  -11    3    5      4.52      6.46
   -9    3    5      0.34     -0.54
   -7    3    5     -7.28      1.91
   -5    3    5     -9.16      2.54
   -3    3    5     -8.70      2.75
   -1    3    5     -5.37      5.42
    1    3    5     -1.91     -9.91
    3    3    5     22.45     -7.14
    5    3    5     19.82      6.92
    7    3    5     10.64     -5.09
    9    3    5      5.13     -3.85
   11    3    5     -2.82     -6.63
   13    3    5     -1.15      1.15
   15    3    5      0.03     -0.85
   17    3    5      0.81      0.83
   19    3    5      0.89     -1.73
   21    3    5     -0.18     -1.75
  -26    2    5      1.20     -2.47
  -24    2    5      0.30     -3.38
  -22    2    5      3.77     -3.89
  -20    2    5      2.89      0.09
  -18    2    5      0.49      0.40
  -16    2    5      2.81     -4.43
  -14    2    5      2.83     -0.60
  -12    2    5      2.06      1.02
  -10    2    5      1.37      4.17
   -8    2    5      2.01      5.76
   -6    2    5     10.45     -1.54
   -4    2    5     20.13     -2.54
   -2    2    5      7.98    -13.03
    0    2    5    -14.17     -4.04
    2    2    5    -19.78     -3.98
    4    2    5     10.82     -4.46
    6    2    5    -13.05     11.07
    8    2    5      2.83      3.04
   10    2    5     -0.73      0.38
   12    2    5      0.74     -0.82
   14    2    5      1.63     -1.75
   16    2    5     -0.03      0.71
   18    2    5      0.78     -2.09
   20    2    5     -1.10     -1.35
   24    2    5     -1.93      0.14
  -25    1    5      1.52     -4.09
  -23    1    5      0.39      0.09
  -21    1    5     -1.74     -1.11
  -19    1    5     -3.60      4.20
  -17    1    5      0.05      0.29
  -15    1    5      0.47      1.74
  -13    1    5     -0.91      0.47
  -11    1    5     -6.67     -4.62
   -9    1    5     -5.75      2.59
   -7    1    5     -1.43     -3.63
   -5    1    5     -4.89      1.97
   -3    1    5     -5.33      1.70
   -1    1    5     -1.49      1.03
    1    1    5      8.64     17.79
    3    1    5     11.41     -5.08
    5    1    5      4.78    -17.23
    7    1    5     -1.16      2.30
    9    1    5     -1.18     -2.23
   11    1    5     -2.31      8.62
   13    1    5     -4.88      1.75
   15    1    5     -5.13      5.40
   17    1    5     -2.38     -0.46
   19    1    5     -0.62     -1.93
   21    1    5     -1.24      2.83
   23    1    5     -1.63      3.93
  -26    0    5      2.32      0.40
  -24    0    5      4.40      0.04
  -22    0    5      2.57      0.36
  -20    0    5     -1.19      0.08
  -18    0    5     -2.05      0.30
  -16    0    5     -3.07      0.94
  -14    0    5     -3.28      0.74
  -12    0    5     -3.61      1.52
  -10    0    5     -5.41      0.72
   -8    0    5      3.41     -0.70
   -6    0    5      0.68     -2.68
   -4    0    5    -12.12     -3.93
   -2    0    5     -5.67     -4.83
    0    0    5      5.78     -0.46
    2    0    5     15.90      1.61
    4    0    5    -13.13      0.76
    6    0    5      6.77     -0.42
    8    0    5      1.01      0.04
   10    0    5     10.05     -0.04
   12    0    5      5.64      0.09
   14    0    5      2.15      0.16
   16    0    5      3.93      0.46
   18    0    5      6.30     -0.01
   20    0    5      5.15      0.46
   22    0    5      3.54      0.48
   22    2    5     -3.20     -0.21
   22   10    5     -0.07      0.71
   21   11    5     -0.87      3.58
   22   12    5     -0.43     -0.88
   21   13    5      0.72     -2.43
   20   14    5      4.28      0.65
   19   15    5     -1.44      1.65
   21   15    5     -0.58      4.13
   20   16    5     -3.25      0.02
   19   17    5      2.47     -1.50
  -22   18    5      0.95      1.39
  -21   19    5     -2.07      0.31
  -22   20    5     -1.61     -5.18
  -20   20    5     -2.09      1.10
  -21   21    5     -0.57     -4.05
  -19   21    5     -0.15      1.08
  -20   22    5      0.94     -2.38
  -18   22    5      2.05     -2.79
  -19   23    5     -0.48      0.87
  -17   23    5     -1.51      3.84
  -18   24    5     -3.61     -2.77
  -16   24    5     -2.18     -0.25
  -15   25    5      0.58      1.98
    2   30    5     -3.61     -2.04
   -3   31    5      0.65     -0.36
    0   32    5     -0.76      0.38
   -7   31    6      1.78     -2.04
    3   31    6      3.96     -0.43
   -8   30    6     -2.55     -1.74
    0   30    6     -5.31     -0.62
    2   30    6     -4.51     -0.87
    4   30    6     -0.25     -3.04
   -9   29    6     -0.14     -2.35
   -7   29    6      0.64     -2.55
   -3   29    6      1.53      0.62
   -1   29    6      0.61     -0.25
    1   29    6     -0.48     -0.12
    3   29    6     -1.17      2.06
    5   29    6     -1.00      2.81
  -10   28    6      2.59      0.05
   -8   28    6      2.56      1.68
   -6   28    6      1.88      2.43
   -4   28    6      0.62      3.16
   -2   28    6     -0.76      0.85
    0   28    6      1.37      0.90
    2   28    6      0.74      0.54
    4   28    6     -0.32      2.57
    6   28    6     -1.31     -1.95
  -11   27    6      2.16     -3.26
   -9   27    6      1.09     -0.47
   -7   27    6      0.96     -1.02
   -5   27    6     -0.19     -2.48
   -3   27    6     -1.37     -0.97
   -1   27    6     -0.17     -0.48
    1   27    6      1.41     -0.90
    3   27    6     -0.15     -1.06
    5   27    6     -0.56     -0.73
    7   27    6     -1.32      1.00
  -12   26    6      1.59     -0.77
  -10   26    6      2.07      3.96
   -8   26    6      2.93      3.09
   -6   26    6      2.06      2.83
   -2   26    6     -0.41      0.21
    0   26    6     -0.67     -2.05
    2   26    6      0.05     -0.96
    4   26    6     -1.64     -1.98
    6   26    6      0.16      0.85
    8   26    6     -0.10      3.69
   10   26    6     -5.51      0.34
  -13   25    6      0.74     -0.59
  -11   25    6     -1.40      1.20
   -9   25    6     -3.03     -0.12
   -7   25    6     -0.35     -1.04
   -5   25    6      1.03      1.53
   -3   25    6      0.53     -0.70
   -1   25    6      0.21     -0.77
    1   25    6      0.20      0.43
    3   25    6      1.15      0.97
    5   25    6     -0.26      0.02
    7   25    6      1.48      2.55
    9   25    6      4.10      0.08
   11   25    6      0.37      2.64
   13   25    6      1.92     -0.29
  -14   24    6      4.12     -2.61
  -12   24    6      2.50      1.56
  -10   24    6      0.88     -1.30
   -8   24    6     -0.60      1.06
   -6   24    6      2.03      1.88
   -4   24    6     -1.78      4.26
   -2   24    6     -3.87     -1.92
    0   24    6     -2.45     -0.68
    2   24    6     -1.60     -1.55
    4   24    6      0.71     -2.91
    6   24    6     -4.69     -0.82
    8   24    6     -7.44     -2.43
   10   24    6     -1.64     -1.37
   12   24    6     -0.92     -0.43
  -15   23    6      0.86      0.07
  -13   23    6      1.26     -1.96
  -11   23    6     -0.86     -0.52
   -9   23    6     -2.96     -2.12
   -7   23    6     -3.56      0.30
   -5   23    6     -0.94     -0.74
   -3   23    6      1.22      0.32
   -1   23    6      3.58     -0.53
    1   23    6      3.15      2.63
    3   23    6      2.58     -0.39
    5   23    6      4.01     -0.16
    7   23    6     -1.88     -2.21
    9   23    6     -5.55      0.57
   11   23    6      0.95     -3.56
   13   23    6     -2.30      0.02
  -16   22    6     -1.01      2.00
  -14   22    6     -0.68      2.39
  -12   22    6      0.32      0.12
  -10   22    6      1.62      2.66
   -8   22    6      3.24      1.07
   -6   22    6     -1.96      5.02
   -4   22    6     -0.59     -0.16
   -2   22    6      0.62      3.08
    0   22    6     -2.25      4.21
    2   22    6     -3.15      4.33
    4   22    6     -2.28      3.11
    6   22    6      0.29     -3.66
    8   22    6     -0.49     -0.65
   10   22    6     -1.62      0.89
   12   22    6      0.12      1.96
   14   22    6      3.74      3.10
  -17   21    6     -2.62     -1.23
  -15   21    6     -0.34      2.30
  -13   21    6      0.20      1.96
  -11   21    6     -0.55     -0.67
   -9   21    6     -0.05     -2.46
   -7   21    6     -0.79     -2.23
   -5   21    6     -4.42     -0.28
   -3   21    6      0.90     -4.84
   -1   21    6      3.17     -1.19
    1   21    6      0.91     -5.87
    3   21    6      2.27     -2.26
    5   21    6      1.01     -4.52
    7   21    6      2.34     -3.56
    9   21    6      4.80     -4.95
   11   21    6     -1.58      0.22
   13   21    6      2.60     -1.83
   15   21    6      0.28      0.56
  -20   20    6     -0.51      2.62
  -18   20    6     -0.37     -1.63
  -16   20    6     -1.96     -1.83
  -14   20    6      0.98      0.59
  -12   20    6      0.47      2.87
  -10   20    6      1.35      0.65
   -8   20    6      1.65      1.93
   -6   20    6      1.26     -2.24
   -4   20    6     -1.23     -0.94
   -2   20    6      0.74     -2.01
    0   20    6     -1.05     -0.81
    2   20    6     -1.05      2.07
    4   20    6      2.74      3.74
    6   20    6      2.75      5.19
    8   20    6      2.37     -3.01
   10   20    6      0.59     -3.63
   12   20    6     -0.73     -3.08
   14   20    6     -2.02     -3.93
  -21   19    6      0.08      3.60
  -19   19    6      3.10      0.84
  -17   19    6      1.08     -0.34
  -15   19    6      0.53     -0.53
  -13   19    6      1.26      0.85
  -11   19    6     -2.30      0.33
   -9   19    6     -1.72      2.01
   -7   19    6     -4.11      0.31
   -5   19    6      0.70     -2.83
   -3   19    6      0.41      2.77
   -1   19    6     -4.71     -5.70
    1   19    6     -6.07     -3.39
    3   19    6     -5.35     -4.53
    5   19    6      0.32      0.41
    7   19    6      1.82     -2.87
    9   19    6     -0.73     -0.24
   11   19    6      2.92     -0.90
   13   19    6     -3.10      2.04
   15   19    6     -1.78      1.39
  -20   18    6     -0.12     -3.05
  -18   18    6     -1.88     -2.99
  -16   18    6     -2.45     -1.48
  -14   18    6     -1.01     -0.09
  -12   18    6      1.20     -0.73
  -10   18    6      5.04      1.86
   -8   18    6      4.77      0.98
   -6   18    6      1.62     -1.14
   -4   18    6      2.96      0.17
   -2   18    6     -2.85      2.57
    0   18    6      0.20     -0.21
    2   18    6      3.61      1.10
    4   18    6      2.92      5.22
    6   18    6      2.73      0.75
    8   18    6      0.14      2.74
   10   18    6      0.63      0.12
   12   18    6     -0.65     -1.89
   14   18    6     -0.57      0.68
   16   18    6     -0.09     -1.57
  -19   17    6     -2.03     -0.46
  -17   17    6     -0.52     -0.52
  -15   17    6      0.53      2.02
  -13   17    6     -2.80      0.71
  -11   17    6     -1.35      2.21
   -9   17    6     -3.61     -0.95
   -7   17    6      0.98     -1.67
   -5   17    6      1.56      0.25
   -3   17    6      1.87     -0.86
   -1   17    6      7.40      5.56
    1   17    6      5.27     -2.93
    3   17    6     -1.07      3.24
    5   17    6     -4.51      1.09
    7   17    6     -0.59      2.25
    9   17    6      5.18      0.34
   11   17    6      3.03     -0.64
   13   17    6      4.30     -1.35
   15   17    6      3.23      0.97
  -20   16    6      0.52      1.91
  -18   16    6      2.17      0.45
  -16   16    6      0.45     -0.76
  -14   16    6     -1.33     -1.45
  -12   16    6     -0.85     -2.03
  -10   16    6     -3.97     -0.29
   -8   16    6     -5.06      0.05
   -6   16    6     -2.03      4.62
   -4   16    6     -6.13      0.98
   -2   16    6      3.42      0.61
    0   16    6      6.08     -0.87
    2   16    6      0.55     -4.63
    4   16    6     -1.07     -2.08
    6   16    6      1.41      3.53
    8   16    6      3.62      1.77
   10   16    6      0.38      3.76
   12   16    6      1.14      1.53
   14   16    6      1.82     -1.81
   16   16    6      0.42      1.57
  -23   15    6     -1.29     -2.20
  -21   15    6     -0.96      1.65
  -19   15    6      3.95     -1.27
  -17   15    6      2.56     -2.44
  -15   15    6     -2.38     -0.13
  -13   15    6      1.13      3.65
  -11   15    6     -2.42      1.39
   -9   15    6      1.08      3.31
   -7   15    6     -0.76     -1.62
   -5   15    6      1.40     -4.24
   -3   15    6      5.03     -5.40
   -1   15    6      3.21     -6.58
    1   15    6      3.02      2.99
    3   15    6     -1.09     -4.20
    5   15    6     -1.52      1.72
    7   15    6      0.13      0.16
    9   15    6     -2.96     -0.62
   11   15    6      1.16      0.12
   13   15    6      4.21     -3.27
   15   15    6      0.50     -1.52
   17   15    6      1.32      1.67
  -24   14    6      2.44     -0.98
  -20   14    6      0.14     -0.08
  -18   14    6      1.70     -0.61
  -16   14    6     -1.10     -1.29
  -14   14    6     -1.21      1.05
  -12   14    6     -2.14      0.35
  -10   14    6     -2.25     -1.13
   -8   14    6      1.55      3.15
   -6   14    6     -2.28     -2.66
   -4   14    6      5.01      3.41
   -2   14    6     -6.92      0.81
    0   14    6     -7.58      6.13
    2   14    6     -1.15      7.12
    4   14    6     -4.42      0.81
    6   14    6     -0.75      1.54
    8   14    6      0.31      2.71
   10   14    6      1.83      1.56
   12   14    6      2.92      1.25
   14   14    6      0.13      0.76
   16   14    6     -1.34     -1.16
  -21   13    6      1.46     -2.74
  -19   13    6     -1.94      2.07
  -17   13    6      1.05      0.58
  -15   13    6      2.76     -2.65
  -13   13    6     -0.15     -2.82
  -11   13    6      3.04     -3.68
   -9   13    6      0.02     -6.67
   -7   13    6      4.79     -3.62
   -5   13    6      4.28     -2.41
   -3   13    6      0.96      3.44
   -1   13    6     -2.24      4.77
    1   13    6      0.51     -3.42
    3   13    6     -1.38     -2.36
    5   13    6     -5.00     -8.05
    7   13    6     -4.37     -1.90
    9   13    6      0.12      0.62
   11   13    6      0.43      0.11
   13   13    6      0.27      4.65
   15   13    6      1.44      1.90
   17   13    6     -2.51     -0.21
  -22   12    6     -0.65     -2.01
  -20   12    6     -2.32     -0.79
  -18   12    6     -1.88      2.72
  -16   12    6      1.79     -0.92
  -14   12    6     -1.00     -2.46
  -12   12    6      1.10      0.52
  -10   12    6      3.15      1.75
   -8   12    6     -3.14     -1.18
   -6   12    6      1.71      7.21
   -4   12    6     -9.70      1.68
   -2   12    6      1.43      7.92
    0   12    6      2.42      3.12
    2   12    6      0.30      0.93
    4   12    6      5.39      5.17
    6   12    6     -2.19      1.82
    8   12    6     -1.73      1.57
   10   12    6     -2.38     -1.14
   12   12    6      0.26      2.48
   14   12    6      4.33      5.25
   16   12    6      1.33      1.77
   18   12    6     -1.23     -0.92
  -23   11    6     -0.88      2.07
  -21   11    6      1.27      2.61
  -19   11    6      2.23      1.04
  -17   11    6      2.65      1.94
  -15   11    6      0.12      0.61
  -13   11    6     -3.75      0.94
  -11   11    6     -4.61      1.85
   -9   11    6     -1.82     -0.39
   -7   11    6     -2.82     -3.19
   -5   11    6      2.39     -2.18
   -3   11    6      3.82     -8.71
   -1   11    6      7.58     -8.26
    1   11    6     -3.94     -2.93
    3   11    6      1.02     -4.99
    5   11    6      0.15      2.23
    7   11    6     -0.78      0.74
    9   11    6     -0.09     -0.94
   11   11    6      1.30      1.36
   13   11    6      4.59      2.37
   15   11    6      2.01      2.22
   17   11    6      0.48      1.31
   19   11    6     -2.16     -2.50
  -24   10    6      0.07      0.46
  -22   10    6     -1.59      4.56
  -20   10    6      1.01      0.95
  -18   10    6      0.16     -1.48
  -16   10    6      1.71      1.90
  -14   10    6      4.63     -1.09
  -12   10    6      4.22     -2.85
  -10   10    6      2.12     -0.09
   -8   10    6      3.59      6.28
   -6   10    6     -4.78      1.87
   -4   10    6      6.51      7.33
   -2   10    6     -3.39     -2.35
    0   10    6     -3.58      2.18
    2   10    6      2.00      1.11
    4   10    6      0.27     -9.10
    6   10    6      4.27     -2.97
    8   10    6      0.21     -1.00
   10   10    6     -0.04      5.39
   12   10    6     -2.11      6.61
   14   10    6     -4.11      2.41
   16   10    6      0.48      0.36
   18   10    6      0.17     -2.01
  -23    9    6      2.37     -1.47
  -21    9    6      1.07     -1.76
  -19    9    6     -0.74     -1.06
  -17    9    6     -2.69      2.57
  -15    9    6     -0.88      4.09
  -13    9    6     -0.26      1.00
  -11    9    6     -2.74      1.42
   -9    9    6     -1.44      1.18
   -7    9    6      1.77     -5.19
   -5    9    6      0.13     -9.96
   -3    9    6      3.71     -5.22
   -1    9    6     -7.20     -3.45
    1    9    6      7.04     -0.11
    3    9    6     -2.81      2.67
    5    9    6     -1.31     -7.69
    7    9    6      0.34     -5.59
    9    9    6     -0.15     -4.03
   11    9    6      0.74     -2.86
   13    9    6     -6.69     -1.47
   15    9    6     -3.71     -0.40
   17    9    6      0.02     -3.78
   19    9    6      2.23     -1.73
  -24    8    6     -3.24      2.28
  -22    8    6     -2.21     -3.03
  -20    8    6     -2.29     -1.68
  -18    8    6     -0.58      0.25
  -16    8    6     -1.00     -2.11
  -14    8    6      2.88     -4.28
  -12    8    6      1.87     -4.44
  -10    8    6      1.02     -3.34
   -8    8    6     -0.21     -5.08
   -6    8    6      6.78      8.35
   -4    8    6     -0.06     11.21
   -2    8    6      5.13     15.89
    0    8    6      2.05      3.60
    2    8    6     -0.48     -0.05
    4    8    6     -2.75      7.44
    6    8    6     -3.46      1.55
    8    8    6     -0.42      6.15
   10    8    6      0.18      3.66
   12    8    6     -2.52      4.54
   14    8    6     -3.14      7.87
   16    8    6     -2.66      2.71
   18    8    6      0.72     -3.30
   20    8    6      2.21     -2.18
  -25    7    6      0.98      1.04
  -23    7    6     -2.00     -0.20
  -21    7    6     -2.39      1.71
  -19    7    6     -0.97      3.71
  -17    7    6     -1.18      1.61
  -15    7    6      0.24      3.82
  -13    7    6      2.73      8.18
  -11    7    6      2.36      5.13
   -9    7    6     -0.84     -5.40
   -7    7    6     -2.34     -6.34
   -5    7    6     -4.69     -1.17
   -3    7    6     -8.65     -2.51
   -1    7    6      9.20     -6.05
    1    7    6     -1.91     -6.62
    3    7    6     12.76     -6.92
    5    7    6      6.32      3.93
    7    7    6     -0.92     -1.76
    9    7    6     -1.77     -5.06
   11    7    6     -6.76     -6.82
   13    7    6     -2.22     -3.69
   15    7    6     -1.58     -2.22
   17    7    6      1.30      1.35
   19    7    6      1.82     -0.40
  -24    6    6     -0.47     -0.09
  -22    6    6      2.05      2.84
  -20    6    6      4.57      3.15
  -18    6    6      1.27     -0.47
  -16    6    6      0.40     -1.73
  -14    6    6     -2.40      1.68
  -12    6    6     -2.65      0.82
  -10    6    6     -4.29      1.86
   -8    6    6      3.13      9.50
   -6    6    6      0.67      4.85
   -4    6    6      0.41      5.75
   -2    6    6      3.75     -3.96
    0    6    6      1.99      3.53
    2    6    6     -5.10     10.71
    4    6    6      3.92      1.37
    6    6    6      0.90      8.39
    8    6    6      3.93      1.08
   10    6    6      4.33      1.98
   12    6    6      3.30      1.17
   14    6    6      0.36     -3.60
   16    6    6      1.55      1.02
   18    6    6      4.85      2.46
   20    6    6      0.69     -0.69
  -25    5    6     -1.87     -1.04
  -23    5    6     -0.67      0.16
  -21    5    6      0.65     -0.57
  -19    5    6     -1.00      0.05
  -17    5    6      1.89      1.82
  -15    5    6      1.65      4.50
  -13    5    6      0.03      2.39
  -11    5    6     -1.24     -3.12
   -9    5    6      5.52      1.64
   -7    5    6      3.94     -1.68
   -5    5    6     -7.30     -7.38
   -3    5    6     -2.28     -5.23
   -1    5    6     -4.94     -0.22
    1    5    6      6.58      3.61
    3    5    6     -3.29      3.29
    5    5    6     -0.29    -11.50
    7    5    6     -2.17     -0.66
    9    5    6     -3.55      0.80
   11    5    6     -0.47      3.34
   13    5    6     -5.45     -5.24
   15    5    6     -5.10     -3.85
   17    5    6     -0.13      0.30
   19    5    6      0.96      2.64
   21    5    6      0.49      0.69
  -26    4    6      0.19      0.48
  -24    4    6     -1.19     -0.96
  -22    4    6      0.59     -1.81
  -20    4    6     -2.47     -2.52
  -18    4    6     -1.78     -1.50
  -16    4    6     -3.09      0.10
  -14    4    6     -0.90      0.71
  -12    4    6      1.58      1.52
  -10    4    6      7.37      0.63
   -8    4    6      4.67      3.80
   -6    4    6      1.45      6.44
   -4    4    6      4.79      0.12
   -2    4    6      2.87     15.40
    0    4    6      0.75     11.07
    2    4    6      4.29     -0.38
    4    4    6     -4.28      3.47
    6    4    6      3.01     -9.24
    8    4    6      0.73     -2.23
   10    4    6      1.88     -0.59
   12    4    6     -0.90     -1.89
   14    4    6     -0.39     -1.23
   16    4    6      0.74     -0.34
   18    4    6      1.50      3.77
   20    4    6      5.51      0.75
   22    4    6      3.15     -0.69
  -25    3    6      1.45     -1.05
  -23    3    6      0.59     -3.52
  -21    3    6     -2.56      0.03
  -19    3    6     -2.12     -1.11
  -17    3    6     -2.99     -0.69
  -15    3    6     -4.22     -1.57
  -13    3    6     -5.43      0.29
  -11    3    6     -3.79     -1.21
   -9    3    6    -10.78     -8.24
   -7    3    6    -12.72     -5.52
   -5    3    6     -2.76    -14.67
   -3    3    6     -2.07     -9.75
   -1    3    6      2.66      4.05
    1    3    6     -1.52      1.33
    3    3    6      6.18      6.39
    5    3    6      1.68     20.86
    7    3    6     -0.59      1.15
    9    3    6      2.73      4.34
   11    3    6     -1.27     -2.41
   13    3    6      2.22      2.07
   15    3    6      1.65     -1.16
   17    3    6     -4.49      2.36
   19    3    6     -0.98      2.71
   21    3    6      0.95     -1.00
  -26    2    6     -3.36     -2.38
  -24    2    6      0.46     -1.41
  -22    2    6     -0.31      1.14
  -20    2    6      1.53      2.43
  -18    2    6      0.08      1.78
  -16    2    6      1.31      1.34
  -14    2    6      0.00      1.78
  -12    2    6      3.36      1.18
  -10    2    6      2.26      4.37
   -8    2    6      2.61      7.03
   -6    2    6     12.71      6.07
   -4    2    6     10.01     11.99
   -2    2    6      3.03      5.67
    0    2    6     -5.62     -1.43
    2    2    6    -15.42     -4.39
    4    2    6     -5.04     -9.09
    6    2    6    -12.56     -5.39
    8    2    6     -4.72     -4.77
   10    2    6     -3.23     -0.99
   12    2    6      0.18     -2.54
   14    2    6      4.78     -3.57
   16    2    6     -0.95     -4.12
   18    2    6     -3.39     -1.15
   20    2    6     -3.22      2.37
  -25    1    6      2.17     -0.98
  -23    1    6      1.23      4.51
  -21    1    6     -0.29      1.73
  -19    1    6     -1.22      1.47
  -17    1    6     -1.04     -0.90
  -15    1    6     -2.77     -0.21
  -13    1    6     -4.71     -1.67
  -11    1    6     -5.50     -0.66
   -9    1    6     -6.40      4.45
   -7    1    6    -10.49     -8.32
   -5    1    6    -15.91     -1.65
   -3    1    6    -19.17      2.37
   -1    1    6    -14.44     -1.54
    1    1    6      1.89     10.11
    3    1    6      8.46     14.36
    5    1    6     12.98     -2.45
    7    1    6     12.20     10.74
    9    1    6      2.76      3.48
   11    1    6      1.79      2.97
   13    1    6      1.21     -4.42
   15    1    6      1.95      0.16
   17    1    6      0.67     -1.15
   19    1    6     -3.68      3.72
   21    1    6     -2.75      6.72
   23    1    6     -1.70      5.02
  -26    0    6      2.80      0.26
  -24    0    6     -0.11      0.30
  -22    0    6      1.00      0.59
  -20    0    6      0.11     -0.79
  -18    0    6      2.76     -0.65
  -16    0    6      2.15     -0.39
  -14    0    6      3.37     -0.07
  -12    0    6      3.21      0.42
  -10    0    6      8.90     -0.45
   -8    0    6     15.84     -0.68
   -6    0    6     18.32     -1.94
   -4    0    6     22.94     -1.89
   -2    0    6     10.03      0.47
    0    0    6     -1.99      2.39
    2    0    6     -8.38      1.52
    4    0    6    -27.60      0.06
    6    0    6     -8.68     -1.71
    8    0    6     -8.97     -0.28
   10    0    6     -4.31      0.08
   12    0    6      1.66     -0.42
   14    0    6     -1.06      0.54
   16    0    6      3.97      0.56
   18    0    6      0.33     -0.02
   20    0    6      0.49     -0.16
   22    0    6      1.05     -0.18
   22    2    6     -1.12      1.82
   21    7    6     -0.33     -0.34
   21    9    6     -0.06      0.98
   20   10    6     -1.37     -3.85
   21   11    6      1.38     -2.20
   20   12    6     -0.59      0.56
   19   13    6     -3.21      1.87
  -22   14    6      0.53      0.98
   18   14    6     -2.54      0.04
   20   14    6     -3.49     -1.93
   19   15    6     -0.22      1.54
  -22   16    6     -0.39     -1.43
   18   16    6      1.24      1.41
  -21   17    6     -0.60     -3.18
   17   17    6      0.03      1.29
  -19   21    6     -1.23     -0.52
  -20   22    6      3.77     -3.65
  -18   22    6     -0.55     -1.09
  -19   23    6     -0.50     -2.38
  -17   23    6     -2.21      2.72
  -16   24    6      1.37      2.30
  -15   25    6      1.33     -2.18
   -4   26    6      0.32     -0.33
   -5   29    6      2.39      0.39
   -6   30    6     -0.64     -1.91
   -4   30    6     -0.80      1.16
   -2   30    6     -2.23      1.76
   -5   31    6      2.29     -4.58
    2   30    7      0.21      1.39
    1   29    7      1.60     -0.23
    3   29    7      1.82      0.52
   -2   28    7      1.76     -0.94
    0   28    7      0.22     -0.08
    2   28    7     -2.55     -1.02
   -5   27    7      0.25     -2.21
   -3   27    7      3.61      0.69
   -1   27    7      3.69      3.86
    1   27    7      2.36      1.35
    3   27    7     -0.10      0.04
    5   27    7      1.19     -1.03
  -10   26    7     -4.22      2.17
   -6   26    7      1.24     -0.34
   -4   26    7      0.74      0.28
   -2   26    7      0.18      4.69
    0   26    7     -3.34      3.29
    2   26    7     -1.56      1.86
    4   26    7      0.93      1.34
    6   26    7      3.59      0.09
    8   26    7      0.09     -2.44
  -11   25    7     -3.96      2.08
   -9   25    7     -2.25      0.41
   -7   25    7      0.23     -3.79
   -5   25    7      0.81     -2.61
   -3   25    7      0.66     -1.52
   -1   25    7     -0.93     -1.83
    1   25    7     -1.55     -2.61
    3   25    7      2.30     -3.75
    5   25    7      3.21     -3.61
    7   25    7      3.68     -2.73
    9   25    7      0.65     -2.80
   11   25    7     -3.94      0.17
  -12   24    7     -2.36      2.97
  -10   24    7      1.07      2.20
   -8   24    7      1.93      4.70
   -6   24    7      1.34      2.83
   -4   24    7      0.94      4.98
   -2   24    7     -1.17      2.80
    0   24    7      0.31      3.30
    2   24    7     -0.95      3.24
    4   24    7     -1.25      2.90
    6   24    7     -2.00      1.49
    8   24    7      1.99      0.16
   10   24    7      1.99     -2.86
  -13   23    7     -2.61     -0.72
  -11   23    7     -1.03     -4.78
   -9   23    7     -1.49     -5.08
   -7   23    7     -0.88     -1.49
   -5   23    7     -0.62     -2.89
   -3   23    7     -1.18     -1.20
   -1   23    7     -2.37     -4.66
    1   23    7     -1.31     -6.91
    3   23    7     -3.38     -2.57
    5   23    7     -2.38      1.90
    7   23    7      0.59      0.80
    9   23    7      1.68      0.08
   11   23    7      4.95     -4.87
  -14   22    7     -1.14      2.36
  -12   22    7      0.59      1.42
  -10   22    7      0.18      1.47
   -8   22    7      1.02      1.47
   -6   22    7      0.52      2.80
   -4   22    7     -0.09      0.90
   -2   22    7      0.36      3.25
    0   22    7     -0.17     -1.23
    2   22    7      3.38     -1.34
    4   22    7      1.75      2.17
    6   22    7      3.38      1.32
    8   22    7     -1.30      0.56
   10   22    7      0.10      0.22
   12   22    7      1.05     -2.50
  -15   21    7     -1.39     -2.68
  -13   21    7      0.94     -1.22
  -11   21    7     -1.25     -1.54
   -9   21    7     -4.13     -1.43
   -7   21    7     -3.48     -3.22
   -5   21    7      0.30     -1.29
   -3   21    7      1.35     -0.56
   -1   21    7      0.85      1.71
    1   21    7     -0.09     -0.16
    3   21    7     -1.74     -1.68
    5   21    7     -1.25     -2.60
    7   21    7      1.85      0.36
    9   21    7      4.88     -0.34
   11   21    7      2.91      2.12
  -18   20    7      1.12     -2.32
  -16   20    7     -2.81     -0.56
  -14   20    7     -3.48      0.33
  -12   20    7      0.37     -0.27
  -10   20    7      2.51     -1.09
   -8   20    7     -0.52      0.84
   -6   20    7      1.95     -1.77
   -4   20    7      0.53      0.53
   -2   20    7     -2.98     -0.42
    0   20    7      1.91      1.44
    2   20    7      1.44     -0.50
    4   20    7     -0.09     -3.64
    6   20    7     -1.51      2.22
    8   20    7      2.71      2.65
   10   20    7     -1.73      2.82
   12   20    7      0.63      5.86
  -19   19    7     -0.90     -1.28
  -17   19    7     -0.01     -1.14
  -15   19    7     -0.67      0.44
  -13   19    7     -3.07      1.14
  -11   19    7     -1.95     -0.79
   -9   19    7     -2.05     -1.12
   -7   19    7     -1.08     -1.02
   -5   19    7      1.74     -1.19
   -3   19    7     -0.21      1.03
   -1   19    7      1.82     -2.05
    1   19    7      6.39      1.32
    3   19    7      4.60     -2.15
    5   19    7      1.10     -0.17
    7   19    7      2.58      0.71
    9   19    7      0.38     -0.85
   11   19    7      2.66     -0.37
   13   19    7      1.49      1.92
  -22   18    7      0.04     -1.21
  -20   18    7      1.87     -1.33
  -18   18    7      1.97      0.65
  -16   18    7      3.23     -1.37
  -14   18    7     -0.62     -0.88
  -12   18    7     -0.52      0.58
  -10   18    7      2.16     -0.20
   -8   18    7      7.07     -2.94
   -6   18    7      5.73      1.79
   -4   18    7      1.60      3.67
   -2   18    7     -2.01      0.16
    0   18    7     -4.12      0.35
    2   18    7     -1.51      3.74
    4   18    7     -1.69      2.06
    6   18    7     -0.25      0.12
    8   18    7     -1.88      3.22
   10   18    7      3.01      0.91
   12   18    7     -1.11      1.86
   14   18    7      0.59      3.65
  -21   17    7      0.05     -1.68
  -19   17    7     -2.04     -0.34
  -17   17    7      0.93      0.11
  -15   17    7     -0.02     -2.38
  -13   17    7     -2.55     -1.41
  -11   17    7     -0.77      1.96
   -9   17    7     -2.57     -2.58
   -7   17    7     -0.03      0.41
   -5   17    7     -1.97      4.37
   -3   17    7     -0.18     -3.10
   -1   17    7      2.68     -4.75
    1   17    7      0.82     -5.51
    3   17    7      3.20     -2.10
    5   17    7      2.83     -6.17
    7   17    7     -2.91     -1.12
    9   17    7      1.94      0.78
   11   17    7     -0.54     -0.77
   13   17    7     -2.08      0.83
  -22   16    7      3.00     -0.27
  -20   16    7      1.59     -1.91
  -18   16    7      0.17     -1.64
  -16   16    7     -0.47     -0.14
  -14   16    7     -0.31     -4.08
  -12   16    7      0.81     -0.93
  -10   16    7      3.76     -0.27
   -8   16    7     -0.47      1.06
   -6   16    7      0.22      3.31
   -4   16    7     -3.39     -2.16
   -2   16    7      0.92      1.80
    0   16    7      1.52      6.00
    2   16    7     -0.75      5.85
    4   16    7      4.34      4.95
    6   16    7     -2.08      6.14
    8   16    7     -2.05      4.20
   10   16    7     -2.35      4.42
   12   16    7     -1.41      0.20
   14   16    7     -1.55     -0.13
  -21   15    7      1.37      0.60
  -19   15    7      2.84     -0.45
  -17   15    7     -1.88      1.98
  -15   15    7     -1.63      0.37
  -13   15    7     -1.42     -2.26
  -11   15    7     -4.89     -1.69
   -9   15    7      1.42      2.76
   -7   15    7     -2.31      2.68
   -5   15    7      1.58     -1.32
   -3   15    7      3.40     -0.68
   -1   15    7      2.93      1.40
    1   15    7     -0.66      2.53
    3   15    7     -1.14     -3.23
    5   15    7      1.50      1.26
    7   15    7      2.55     -1.70
    9   15    7      0.45      0.35
   11   15    7      1.51      2.61
   13   15    7      1.27     -1.26
   15   15    7     -0.81      0.67
  -22   14    7     -3.50      1.47
  -20   14    7      0.41      1.45
  -18   14    7     -0.15      1.33
  -16   14    7     -1.10     -1.18
  -14   14    7      3.12     -2.50
  -12   14    7      1.54     -6.94
  -10   14    7      0.46     -3.09
   -8   14    7      4.87     -1.46
   -6   14    7     -5.00     -3.66
   -4   14    7      0.63      2.08
   -2   14    7     -3.23     -1.58
    0   14    7     -1.68      1.10
    2   14    7      3.15      3.32
    4   14    7      1.30      4.81
    6   14    7      4.05      1.61
    8   14    7     -1.30      1.17
   10   14    7     -2.42      2.39
   12   14    7     -2.15      2.88
   14   14    7     -1.85      0.89
  -21   13    7      0.27      0.61
  -19   13    7      1.10      2.21
  -17   13    7      3.44     -1.52
  -15   13    7      3.93      0.37
  -13   13    7      1.68      2.59
  -11   13    7      1.07      3.66
   -9   13    7     -2.37      3.45
   -7   13    7      3.78      0.59
   -5   13    7      0.85      3.79
   -3   13    7      4.75      2.58
   -1   13    7     -1.12     -0.51
    1   13    7     -1.59     -2.63
    3   13    7     -2.35      3.71
    5   13    7     -3.43     -2.22
    7   13    7     -3.08     -4.27
    9   13    7     -1.04     -4.28
   11   13    7      1.40     -5.16
   13   13    7      1.66     -1.15
   15   13    7      1.75     -1.72
  -22   12    7      2.35     -1.39
  -20   12    7     -1.80      1.37
  -18   12    7     -1.68     -0.84
  -16   12    7      1.75     -2.70
  -14   12    7      1.69     -3.33
  -12   12    7      4.04     -3.29
  -10   12    7      1.58     -4.75
   -8   12    7     -6.61     -2.27
   -6   12    7     -1.32      4.24
   -4   12    7     -7.80      0.54
   -2   12    7      1.75      2.77
    0   12    7     -2.84     -2.75
    2   12    7     -5.65     -2.34
    4   12    7     -0.91      3.23
    6   12    7     -4.32      4.45
    8   12    7     -0.54      5.66
   10   12    7     -0.57      3.30
   12   12    7     -0.33      2.15
   14   12    7     -0.53      3.29
   16   12    7     -1.49      1.85
  -23   11    7     -0.80     -0.72
  -21   11    7      0.09     -0.47
  -19   11    7     -0.50     -0.66
  -17   11    7      1.85      1.03
  -15   11    7      2.05      3.39
  -13   11    7      3.38      4.90
  -11   11    7      2.78      3.18
   -9   11    7      2.83      0.71
   -7   11    7     -2.72      2.43
   -5   11    7      0.29     -3.49
   -3   11    7     -0.57     -2.39
   -1   11    7      8.12     -1.18
    1   11    7     -0.07      0.69
    3   11    7     -1.06     -0.56
    5   11    7     -3.85      4.28
    7   11    7     -3.76      1.11
    9   11    7     -1.72     -3.40
   11   11    7     -2.71     -2.52
   13   11    7     -0.88     -2.09
   15   11    7     -0.90      0.08
   17   11    7      1.26      1.21
  -22   10    7     -2.03      4.33
  -20   10    7     -0.37      0.61
  -18   10    7     -0.47      0.87
  -16   10    7     -0.93      1.08
  -14   10    7     -1.46      0.62
  -12   10    7     -1.19     -0.62
  -10   10    7     -1.18     -1.50
   -8   10    7      2.22      0.22
   -6   10    7     -4.90     -6.62
   -4   10    7      1.23     -1.05
   -2   10    7     -3.92      2.02
    0   10    7      2.11      3.11
    2   10    7      3.41      3.72
    4   10    7      0.06     -0.69
    6   10    7      5.70      0.68
    8   10    7      4.02     -1.49
   10   10    7      3.32      3.31
   12   10    7      0.79      4.94
   14   10    7     -0.03      1.67
   16   10    7      1.54      2.32
  -23    9    7     -0.57     -0.03
  -21    9    7     -1.35      1.36
  -19    9    7     -0.17      0.25
  -17    9    7      0.20      2.29
  -15    9    7      0.31      0.55
  -13    9    7     -0.44      0.61
  -11    9    7      1.57     -0.99
   -9    9    7      1.24     -1.04
   -7    9    7      3.63     -6.10
   -5    9    7      0.23     -3.79
   -3    9    7      2.61      2.23
   -1    9    7     -6.37      2.68
    1    9    7      0.30     -4.59
    3    9    7    -10.04     -3.23
    5    9    7     -8.41     -8.06
    7    9    7     -5.74     -4.15
    9    9    7     -4.81      2.67
   11    9    7     -0.11      0.50
   13    9    7     -1.45     -4.11
   15    9    7     -0.79     -3.37
   17    9    7     -0.42     -0.79
  -22    8    7     -2.47     -2.78
  -20    8    7     -2.96      0.28
  -18    8    7     -0.98      1.33
  -16    8    7     -0.27      3.40
  -14    8    7      1.79      2.45
  -12    8    7      2.34      4.17
  -10    8    7      4.34      4.07
   -8    8    7     -0.87      0.83
   -6    8    7      3.57      6.63
   -4    8    7     -0.56      3.79
   -2    8    7      1.72      4.63
    0    8    7      3.47      2.80
    2    8    7      4.04     -2.60
    4    8    7      3.07      1.61
    6    8    7     -1.09     -6.72
    8    8    7     -1.51     -0.52
   10    8    7     -1.83     -1.82
   12    8    7     -0.93     -3.15
   14    8    7     -0.96      0.79
   16    8    7     -2.51     -0.73
   18    8    7     -2.35     -0.05
  -23    7    7      1.39     -2.01
  -21    7    7      0.03     -1.69
  -19    7    7      0.52     -0.06
  -17    7    7      1.20     -1.47
  -15    7    7      1.18      1.49
  -13    7    7     -1.78      1.81
  -11    7    7     -0.70      3.81
   -9    7    7      1.09     -3.97
   -7    7    7     -1.25     -3.03
   -5    7    7      3.33     -2.81
   -3    7    7     -5.46     -6.21
   -1    7    7      0.52     -2.83
    1    7    7     -5.00      3.99
    3    7    7      1.23      2.71
    5    7    7     -2.12      8.60
    7    7    7     -0.85      3.26
    9    7    7      1.78     -1.38
   11    7    7     -0.75     -1.81
   13    7    7      1.10      2.29
   15    7    7      1.13     -0.74
   17    7    7     -1.13      0.08
  -24    6    7      0.17     -1.30
  -22    6    7     -0.59     -0.14
  -20    6    7      0.42     -1.60
  -18    6    7     -1.92     -1.42
  -16    6    7     -0.18     -2.33
  -14    6    7     -1.59     -0.93
  -12    6    7      0.80     -1.05
  -10    6    7      3.89      1.04
   -8    6    7      5.02      4.51
   -6    6    7      1.24      2.68
   -4    6    7      1.32      3.76
   -2    6    7     -0.10     -1.13
    0    6    7      0.11     -2.49
    2    6    7      0.09     -2.23
    4    6    7     -1.21    -13.30
    6    6    7      0.93     -3.31
    8    6    7      0.23     -7.71
   10    6    7      0.03     -1.43
   12    6    7      0.29      3.54
   14    6    7      0.43     -0.23
   16    6    7      1.20     -0.65
   18    6    7     -2.10     -0.22
  -23    5    7      1.80      0.53
  -21    5    7      1.70     -1.24
  -19    5    7      0.66     -2.23
  -17    5    7     -0.31      2.39
  -15    5    7     -3.22      3.08
  -13    5    7     -3.53      4.03
  -11    5    7     -5.01      2.60
   -9    5    7     -3.72      7.03
   -7    5    7     -5.37     -1.52
   -5    5    7    -13.95     -6.09
   -3    5    7     -7.12     -1.94
   -1    5    7     -7.35      1.12
    1    5    7      4.46      6.00
    3    5    7      1.32      7.28
    5    5    7      5.08     -1.86
    7    5    7      3.82      1.64
    9    5    7     -1.11     -0.93
   11    5    7      3.19     -0.49
   13    5    7      2.20     -5.69
   15    5    7      2.87      0.54
   17    5    7      2.19      0.48
  -24    4    7     -1.76      0.74
  -22    4    7      1.25      0.56
  -20    4    7     -0.43      0.03
  -18    4    7      1.61      0.69
  -16    4    7     -2.46      2.59
  -14    4    7      0.48     -3.34
  -12    4    7     -1.36     -4.31
  -10    4    7     -2.12      0.94
   -8    4    7      4.33      1.43
   -6    4    7      9.03      1.03
   -4    4    7     12.08      0.51
   -2    4    7      4.72      2.90
    0    4    7     -2.09      2.00
    2    4    7     -6.86     -3.96
    4    4    7     -6.62     -0.53
    6    4    7     -3.10     -6.16
    8    4    7     -1.61      3.90
   10    4    7     -0.98      4.39
   12    4    7      0.20      0.67
   14    4    7      0.03      2.92
   16    4    7      0.51      4.37
   18    4    7     -1.72     -1.04
   20    4    7     -0.64     -3.66
  -23    3    7     -1.12     -3.43
  -21    3    7     -0.95      0.54
  -19    3    7      1.40      2.58
  -17    3    7     -0.04      1.88
  -15    3    7      0.67      2.08
  -13    3    7      0.93      0.09
  -11    3    7      1.09      5.91
   -9    3    7     -3.22      1.29
   -7    3    7     -6.15     -0.25
   -5    3    7     -2.90     -1.02
   -3    3    7     -9.00     -3.22
   -1    3    7     -3.31      1.24
    1    3    7     -2.54     -1.26
    3    3    7      4.82     -7.11
    5    3    7      3.28     -1.66
    7    3    7      1.45     -6.76
    9    3    7      2.30     -1.20
   11    3    7     -3.41     -2.03
   13    3    7     -0.65      1.69
   15    3    7     -1.08     -2.03
   17    3    7     -1.29     -2.98
  -24    2    7      1.94      0.95
  -22    2    7     -0.67      2.00
  -20    2    7      3.43      3.30
  -18    2    7     -1.78      0.96
  -16    2    7     -1.75     -3.99
  -14    2    7     -4.37     -2.36
  -12    2    7     -2.04     -1.66
  -10    2    7     -0.44     -3.12
   -8    2    7     -3.03     -6.10
   -6    2    7      6.69     -5.15
   -4    2    7      6.69     -5.05
   -2    2    7      9.01     -6.76
    0    2    7      4.80      0.38
    2    2    7      0.20      5.88
    4    2    7      0.65      3.81
    6    2    7     -0.32      6.96
    8    2    7      4.16     -0.10
   10    2    7      3.40     -0.55
   12    2    7      0.08      3.32
   14    2    7     -0.19      3.41
   16    2    7     -4.49      1.14
   18    2    7      2.36      0.39
   20    2    7      3.38      0.01
  -25    1    7      1.40      0.31
  -23    1    7      1.16      1.53
  -21    1    7     -0.78     -1.46
  -19    1    7     -1.35     -0.40
  -17    1    7      0.78     -1.57
  -15    1    7      2.67     -2.18
  -13    1    7      3.47      1.26
  -11    1    7      0.02     -2.15
   -9    1    7     -0.66      2.08
   -7    1    7     -0.48      2.48
   -5    1    7     -5.42      5.81
   -3    1    7     -4.91      0.94
   -1    1    7     -6.92     -7.35
    1    1    7     -5.51     -5.12
    3    1    7     -3.52     -3.55
    5    1    7     -2.14     -7.30
    7    1    7     -2.44      1.81
    9    1    7     -3.93     -2.65
   11    1    7     -1.53      0.35
   13    1    7     -2.68     -1.24
   15    1    7     -2.03      0.82
   17    1    7     -0.29     -0.34
   19    1    7     -0.70     -1.79
   21    1    7     -0.42      0.34
  -24    0    7      0.29      0.04
  -22    0    7      2.10     -0.26
  -20    0    7     -5.13     -1.06
  -18    0    7     -2.24     -0.31
  -16    0    7     -2.60      0.41
  -14    0    7      2.05      0.73
  -12    0    7     -0.66      0.53
  -10    0    7     -4.70      0.46
   -8    0    7      7.00     -0.18
   -6    0    7      3.90     -0.85
   -4    0    7      8.29      0.12
   -2    0    7      5.79      1.02
    0    0    7      2.98      0.84
    2    0    7      8.78     -0.14
    4    0    7     10.47     -2.06
    6    0    7     10.54     -1.30
    8    0    7      2.29     -0.32
   10    0    7      0.64     -0.08
   12    0    7      2.81     -0.53
   14    0    7      0.09      0.01
   16    0    7      5.56      0.22
   18    0    7      0.72     -0.20
   20    0    7     -0.49     -0.18
  -25    3    7      1.09     -3.60
   19    3    7      3.28     -2.11
   19    5    7     -2.74     -3.90
   19    7    7     -4.81      3.19
   20    8    7     -0.18      0.70
   19    9    7      3.60      3.42
   18   10    7      1.92      2.72
   20   10    7      1.37      2.07
   19   11    7     -0.26      0.11
   18   12    7      0.08     -0.04
   17   13    7     -2.07      0.02
   16   14    7     -1.12     -0.64
   18   14    7      0.39     -0.38
   17   15    7      4.05     -0.49
   16   16    7      1.63      2.86
   15   17    7      1.19      1.84
  -19   21    7     -0.36     -1.01
  -17   21    7      1.09     -2.33
  -16   22    7     -1.65      0.83
  -17   23    7     -0.56     -0.40
  -15   23    7      1.61      1.70
  -14   24    7     -1.90      2.37
  -13   25    7      1.31      3.10
  -12   26    7      0.92      1.89
   -8   26    7     -1.04      0.29
   -9   27    7     -0.43     -1.00
   -7   27    7     -1.57     -1.13
   -6   28    7     -2.93      0.28
   -4   28    7      0.75     -0.44
   -5   29    7     -1.21      0.99
   -3   29    7      1.88     -2.14
   -4   30    7     -1.26     -0.21
    0   28    8     -2.27     -0.18
   -3   27    8     -0.87      0.45
   -1   27    8      0.33      1.53
   -4   26    8     -2.45     -0.45
   -2   26    8     -2.26      0.04
    0   26    8      2.79      1.25
    2   26    8      5.05      1.15
    4   26    8      2.13      0.30
    6   26    8      1.23     -1.06
   -7   25    8      0.38     -2.57
   -5   25    8     -1.38      0.76
   -3   25    8     -2.81      0.07
   -1   25    8     -2.08     -1.50
    1   25    8      0.12      0.00
    3   25    8      2.41     -2.85
    5   25    8      1.71     -1.91
    7   25    8      2.14     -0.02
   -8   24    8      0.74      1.87
   -6   24    8     -2.67      0.63
   -4   24    8      0.09      1.11
   -2   24    8     -1.40     -2.08
    0   24    8     -4.51      1.22
    2   24    8     -6.17      2.27
    4   24    8     -2.31     -0.77
    6   24    8     -0.47      1.90
    8   24    8      2.06      3.46
   -9   23    8      3.28     -0.39
   -7   23    8     -1.60      1.73
   -3   23    8      4.24     -3.98
   -1   23    8      3.32     -1.20
    1   23    8     -0.13      3.32
    3   23    8     -0.40      4.87
    5   23    8      1.91      1.89
    7   23    8      3.62      1.19
   -8   22    8      2.59      1.71
   -6   22    8      0.60      1.30
   -4   22    8     -2.76     -3.14
   -2   22    8      0.00     -1.29
    0   22    8     -1.60     -0.50
    2   22    8     -0.61      1.72
    4   22    8     -0.55      2.68
    6   22    8     -1.88     -0.79
    8   22    8     -2.02     -0.52
  -11   21    8     -2.15     -0.24
   -9   21    8     -2.13      0.59
   -7   21    8      0.75     -2.21
   -5   21    8      0.52     -1.42
   -3   21    8      0.72     -0.72
   -1   21    8      2.68     -4.58
    1   21    8     -0.47     -8.61
    3   21    8      0.13     -6.68
    5   21    8      0.87     -2.86
    7   21    8     -2.06     -0.39
    9   21    8      0.03      4.24
  -14   20    8      1.88     -1.39
  -12   20    8     -0.12      2.27
  -10   20    8      0.14      4.36
   -8   20    8     -0.42      0.89
   -6   20    8      1.81     -2.35
   -4   20    8      4.16      2.75
   -2   20    8      2.37      4.44
    0   20    8      1.14      3.16
    2   20    8     -3.20      0.76
    4   20    8      0.24      1.42
    6   20    8      0.36      2.78
    8   20    8     -0.46      4.16
   10   20    8     -3.70      4.64
  -17   19    8     -5.08      0.17
  -15   19    8      0.07      2.06
  -13   19    8      0.17      1.59
  -11   19    8     -2.38      2.03
   -9   19    8     -2.91      1.09
   -7   19    8     -3.85      1.43
   -5   19    8     -0.60      0.13
   -3   19    8      0.59      0.84
   -1   19    8     -2.02      0.06
    1   19    8     -2.54     -3.23
    3   19    8     -3.19     -4.56
    5   19    8     -0.48     -2.10
    7   19    8      2.75     -0.60
    9   19    8     -2.08      0.40
   11   19    8     -0.64      2.36
  -20   18    8      2.80      2.32
  -18   18    8      1.86      1.15
  -16   18    8      2.25      1.87
  -14   18    8      4.61      1.60
  -12   18    8      4.08     -0.33
  -10   18    8      3.14      0.53
   -8   18    8      6.74      1.31
   -6   18    8      3.09      2.44
   -4   18    8      1.30     -0.35
   -2   18    8      1.73      0.20
    0   18    8      1.27     -0.17
    2   18    8      4.37     -0.01
    4   18    8      1.86      3.06
    6   18    8      2.47      2.58
    8   18    8     -2.44      0.23
   10   18    8     -2.49      0.39
  -21   17    8     -1.10      0.74
  -19   17    8     -0.21     -1.62
  -17   17    8      4.79     -1.02
  -15   17    8      1.21      1.00
  -13   17    8     -1.81      0.95
  -11   17    8     -4.32     -0.84
   -9   17    8     -5.42      0.86
   -7   17    8     -2.10     -0.02
   -5   17    8     -4.04      0.41
   -3   17    8     -1.43     -0.97
   -1   17    8      0.87      0.66
    1   17    8     -0.62     -0.22
    3   17    8     -0.43      1.80
    5   17    8     -0.16      1.52
    7   17    8     -2.12     -1.81
    9   17    8      1.78     -1.87
   11   17    8     -0.32     -3.88
  -20   16    8     -2.45      0.23
  -18   16    8     -0.05     -1.45
  -16   16    8      0.94      0.20
  -14   16    8     -1.69      1.07
  -12   16    8     -0.60     -0.40
  -10   16    8      0.98     -2.82
   -8   16    8     -2.96     -0.31
   -6   16    8      0.62     -1.65
   -4   16    8     -1.38     -1.82
   -2   16    8      1.37     -0.96
    0   16    8      4.95     -3.34
    2   16    8      3.13     -4.83
    4   16    8      2.71     -1.11
    6   16    8     -2.06      1.66
    8   16    8      0.17      2.62
   10   16    8     -2.16      1.32
   12   16    8     -0.18     -1.44
  -21   15    8     -2.02     -0.62
  -19   15    8     -0.76      0.38
  -17   15    8     -2.09      0.05
  -15   15    8      0.44      2.51
  -13   15    8      0.43      3.35
  -11   15    8     -1.92      2.84
   -9   15    8     -3.46      1.38
   -7   15    8     -5.84      2.22
   -5   15    8      1.41     -0.21
   -3   15    8      0.09      5.03
   -1   15    8      1.72      3.34
    1   15    8      4.95     -0.51
    3   15    8      0.74     -2.79
    5   15    8     -4.92     -0.18
    7   15    8     -1.07      0.23
    9   15    8     -3.27     -0.65
   11   15    8      1.06     -0.29
  -20   14    8      0.68      0.82
  -18   14    8      0.41      2.28
  -16   14    8     -2.06     -0.03
  -14   14    8      0.91     -0.67
  -12   14    8      1.37     -3.84
  -10   14    8      0.27     -2.20
   -8   14    8      4.58     -5.40
   -6   14    8      1.40     -5.00
   -4   14    8      5.10     -0.96
   -2   14    8     -2.79      1.58
    0   14    8     -2.83      2.57
    2   14    8      1.20      1.69
    4   14    8     -4.05     -0.35
    6   14    8      2.09     -0.91
    8   14    8      0.92     -1.01
   10   14    8      1.28      0.98
   12   14    8      3.06      3.33
  -21   13    8     -1.78      0.42
  -19   13    8     -0.50      0.36
  -17   13    8      2.70      0.51
  -15   13    8     -1.66      0.35
  -13   13    8     -1.79      0.71
  -11   13    8     -0.90      0.13
   -9   13    8     -1.33      0.90
   -7   13    8      3.28     -0.93
   -5   13    8     -0.99      4.17
   -3   13    8      1.58     -2.40
   -1   13    8     -2.29     -0.36
    1   13    8      0.41      2.23
    3   13    8     -1.03      3.02
    5   13    8     -0.27     -0.59
    7   13    8     -1.71     -0.92
    9   13    8     -2.01     -1.23
   11   13    8      0.49     -0.99
   13   13    8      2.36      1.88
  -22   12    8      2.21     -1.52
  -20   12    8     -1.98     -1.77
  -18   12    8      0.30     -0.86
  -16   12    8      2.26      1.71
  -14   12    8     -1.55      0.48
  -12   12    8      1.49      1.12
  -10   12    8      1.03     -4.12
   -8   12    8     -2.83     -3.37
   -6   12    8      0.78      0.26
   -4   12    8     -5.60     -2.01
   -2   12    8     -0.37     -3.59
    0   12    8      2.12      0.49
    2   12    8      3.03      0.93
    4   12    8      5.95     -1.73
    6   12    8      0.14     -2.64
    8   12    8     -0.10     -1.79
   10   12    8     -1.18     -2.15
   12   12    8     -0.55      1.08
   14   12    8      1.38      0.48
  -23   11    8      1.84      0.97
  -21   11    8      0.07     -2.48
  -19   11    8     -0.84     -0.84
  -17   11    8     -1.27      1.50
  -15   11    8     -1.98      1.37
  -13   11    8     -3.23      1.08
  -11   11    8     -1.95      1.55
   -9   11    8      0.38     -1.01
   -7   11    8     -1.47      2.61
   -5   11    8      3.92     -1.18
   -3   11    8      0.67      4.40
   -1   11    8      3.59      1.95
    1   11    8     -1.81      4.38
    3   11    8     -0.59     -0.05
    5   11    8     -3.41      0.57
    7   11    8     -0.69      2.16
    9   11    8      2.44     -0.93
   11   11    8     -0.50      1.96
   13   11    8     -0.66      1.58
  -22   10    8     -1.23      1.07
  -20   10    8      1.00     -2.13
  -18   10    8     -1.02      1.14
  -16   10    8     -2.54     -1.09
  -14   10    8      0.98     -2.71
  -12   10    8      1.25     -4.14
  -10   10    8      4.54     -1.60
   -8   10    8      4.69     -0.06
   -6   10    8     -4.67     -3.42
   -4   10    8      0.53      0.94
   -2   10    8      0.36      1.40
    0   10    8      0.57     -2.27
    2   10    8      3.18     -0.22
    4   10    8      0.52     -4.83
    6   10    8      1.79     -0.77
    8   10    8      1.58     -1.02
   10   10    8     -0.20      0.79
   12   10    8     -3.16      3.86
   14   10    8     -1.36      2.51
  -23    9    8     -1.92      0.33
  -21    9    8      1.42      0.95
  -19    9    8      2.06     -1.52
  -17    9    8     -0.51     -0.10
  -15    9    8     -0.71     -2.46
  -13    9    8     -0.63      0.57
  -11    9    8     -0.32      0.76
   -9    9    8      2.47      2.17
   -7    9    8      5.41     -3.77
   -5    9    8     -0.68     -0.41
   -3    9    8      3.86     -1.48
   -1    9    8     -1.91      0.96
    1    9    8      0.27      1.98
    3    9    8     -1.22      4.60
    5    9    8      2.24     -0.90
    7    9    8      1.47     -1.12
    9    9    8      0.55     -0.07
   11    9    8      2.05     -2.71
   13    9    8      1.60     -1.44
   15    9    8      3.30      0.72
  -22    8    8      0.31      0.87
  -20    8    8      1.11      3.28
  -18    8    8     -1.12      0.85
  -16    8    8     -1.34     -0.70
  -14    8    8      0.55     -4.42
  -12    8    8      1.88     -2.06
  -10    8    8     -0.63     -1.51
   -8    8    8      0.49     -2.99
   -6    8    8      6.61      0.86
   -4    8    8     -0.73     -0.01
   -2    8    8     -3.28      0.94
    0    8    8     -3.48      4.50
    2    8    8     -5.40      1.08
    4    8    8      2.23      3.33
    6    8    8      1.43     -3.13
    8    8    8     -0.67      1.88
   10    8    8     -0.07     -0.33
   12    8    8     -1.69     -1.68
   14    8    8     -2.85      2.00
   16    8    8     -1.95      1.00
  -23    7    8     -0.14     -3.02
  -21    7    8      0.07     -2.33
  -19    7    8      1.59      1.40
  -17    7    8      1.56     -1.60
  -15    7    8      3.81      2.02
  -13    7    8      3.88      1.35
  -11    7    8      2.50      4.12
   -9    7    8     -1.37      0.61
   -7    7    8     -2.67      1.36
   -5    7    8      2.17     -3.19
   -3    7    8     -5.43     -2.96
   -1    7    8      2.49     -1.24
    1    7    8     -1.23     -1.40
    3    7    8      1.76     -3.01
    5    7    8      0.74      0.14
    7    7    8     -4.25     -0.59
    9    7    8     -2.17     -1.01
   11    7    8     -2.92     -0.47
   13    7    8     -2.23      0.73
   15    7    8      0.23     -0.95
  -22    6    8     -2.05     -1.52
  -20    6    8     -1.44      0.07
  -18    6    8     -1.46      0.52
  -16    6    8      0.69     -0.75
  -14    6    8      0.67      3.11
  -12    6    8     -2.02      0.43
  -10    6    8      0.00      0.97
   -8    6    8      0.06      5.54
   -6    6    8     -0.41      3.70
   -4    6    8      0.81      3.61
   -2    6    8      0.88      5.47
    0    6    8     -0.96      4.14
    2    6    8      1.42      6.51
    4    6    8      2.53      1.45
    6    6    8      5.36      5.05
    8    6    8      6.34     -2.04
   10    6    8      5.64      1.36
   12    6    8      1.13      3.02
   14    6    8      0.43      0.15
   16    6    8      1.44      2.06
  -23    5    8      0.99      0.65
  -21    5    8     -0.27      1.80
  -19    5    8     -1.36     -0.90
  -17    5    8      1.84      0.41
  -15    5    8      2.27     -0.49
  -13    5    8      0.85      3.00
  -11    5    8     -0.04     -0.97
   -9    5    8      6.16      2.36
   -7    5    8      8.20      2.36
   -5    5    8      1.11      2.14
   -3    5    8      4.26      0.49
   -1    5    8     -5.81     -4.00
    1    5    8     -4.58     -3.08
    3    5    8     -7.53      0.34
    5    5    8     -6.87      2.19
    7    5    8     -2.64      1.92
    9    5    8     -2.28      0.85
   11    5    8      0.38     -0.01
   13    5    8     -0.94     -4.80
   15    5    8     -0.81     -0.69
   17    5    8      0.55     -0.40
  -22    4    8      5.73      0.35
  -20    4    8      1.35      0.23
  -18    4    8      0.59      0.06
  -16    4    8     -0.45      1.51
  -14    4    8     -0.05     -0.48
  -12    4    8     -0.34      0.62
  -10    4    8     -4.24      0.89
   -8    4    8     -1.13      0.39
   -6    4    8     -1.81      2.04
   -4    4    8      1.35      0.54
   -2    4    8     -0.16     -3.57
    0    4    8      0.64     -2.97
    2    4    8      3.66     -5.21
    4    4    8      6.37      0.88
    6    4    8      5.45     -3.44
    8    4    8      3.89      0.64
   10    4    8      2.19      0.71
   12    4    8      3.00     -2.08
   14    4    8     -0.62      1.31
   16    4    8     -2.23      1.27
  -23    3    8     -0.16      0.87
  -21    3    8      0.92     -0.72
  -19    3    8      1.14      1.09
  -17    3    8     -1.12     -0.32
  -15    3    8     -1.75      3.05
  -13    3    8     -0.75     -0.30
  -11    3    8      2.25      1.04
   -9    3    8     -1.96     -1.70
   -7    3    8     -2.89     -1.41
   -5    3    8      0.23     -1.16
   -3    3    8     -6.06     -3.36
   -1    3    8     -3.60      3.49
    1    3    8     -8.29      5.16
    3    3    8     -4.52      7.17
    5    3    8     -4.42      6.53
    7    3    8     -4.73      2.82
    9    3    8     -2.30      3.35
   11    3    8     -3.76      0.75
   13    3    8     -0.84      2.85
   15    3    8     -2.44      1.12
   17    3    8     -0.52      0.70
  -24    2    8      0.03      1.24
  -22    2    8     -2.82      2.30
  -20    2    8      0.10      1.85
  -18    2    8     -2.72     -0.21
  -16    2    8     -2.16     -0.65
  -14    2    8     -2.77      1.07
  -12    2    8     -1.81     -1.35
  -10    2    8     -0.21     -1.00
   -8    2    8     -7.47      3.42
   -6    2    8     -0.47      5.86
   -4    2    8     -2.45      1.78
   -2    2    8      2.27     -2.36
    0    2    8      2.32     -9.61
    2    2    8      0.60     -9.19
    4    2    8      0.52     -9.27
    6    2    8     -0.96     -5.23
    8    2    8      0.86     -2.32
   10    2    8     -0.29     -0.31
   12    2    8     -0.69      1.33
   14    2    8      2.18     -1.71
   16    2    8      1.06     -1.59
   18    2    8      2.06      2.54
  -23    1    8     -0.22      0.25
  -21    1    8     -1.11      2.47
  -19    1    8      0.31     -0.57
  -17    1    8      3.01      0.07
  -15    1    8      1.95     -0.08
  -13    1    8      1.19      3.94
  -11    1    8      0.88      1.18
   -9    1    8      0.94      1.46
   -7    1    8     -3.01      1.96
   -5    1    8     -4.79     -0.20
   -3    1    8      0.29      3.25
   -1    1    8      2.51     -0.96
    1    1    8      6.76      0.50
    3    1    8      2.69      5.48
    5    1    8     -0.05      4.93
    7    1    8     -1.97      6.02
    9    1    8     -4.64      3.70
   11    1    8     -2.56      2.28
   13    1    8     -1.41     -1.22
   15    1    8      1.67     -3.43
   17    1    8     -0.18      0.70
   19    1    8     -1.68     -1.05
  -24    0    8     -2.89     -0.12
  -22    0    8     -0.29     -0.05
  -20    0    8     -3.68     -0.05
  -18    0    8      0.76      0.21
  -16    0    8     -1.29      0.69
  -14    0    8     -2.47      0.62
  -12    0    8     -1.93     -0.08
  -10    0    8     -2.75     -1.11
   -8    0    8      5.25     -0.81
   -6    0    8     -1.29     -0.19
   -4    0    8      6.80      0.47
   -2    0    8      1.76      0.68
    0    0    8     -1.55     -0.77
    2    0    8     -4.06     -0.86
    4    0    8     -7.00     -0.29
    6    0    8      0.64     -0.34
    8    0    8      1.08     -0.32
   10    0    8      3.71     -0.38
   12    0    8      3.58     -0.30
   14    0    8     -1.12      0.68
   16    0    8     -1.35      0.54
   18    0    8     -5.22      0.20
   20    2    8      1.31      0.65
   19    3    8      2.10      3.17
   18    6    8      0.37      1.79
   17    7    8      0.61      0.71
   17    9    8      3.41     -1.77
   16   10    8      2.33      0.57
   15   11    8      0.62     -1.92
   16   12    8     -1.99     -2.52
   15   13    8      1.09     -2.00
   14   14    8     -2.20      0.72
   16   14    8     -3.40      1.53
   13   15    8      2.60     -4.39
   15   15    8     -2.11     -0.88
   14   16    8     -0.40      1.92
  -16   20    8     -0.25     -5.03
  -15   21    8      2.96     -4.34
  -13   21    8      2.42     -2.49
  -16   22    8      0.21      2.14
  -14   22    8      0.89     -2.96
  -12   22    8      2.29     -0.64
  -10   22    8      2.00      0.20
  -15   23    8     -2.48     -1.29
  -13   23    8     -0.22     -4.04
  -11   23    8      5.05     -1.29
   -5   23    8     -0.63     -1.13
    9   23    8      7.26     -0.02
  -14   24    8     -3.86      1.65
  -12   24    8     -0.96      1.25
  -10   24    8      3.15      3.37
  -13   25    8     -3.16      0.57
  -11   25    8     -4.49     -2.25
   -9   25    8     -1.77     -2.43
  -10   26    8      0.11     -2.67
   -8   26    8      3.41     -1.48
   -6   26    8      3.71      0.91
   -5   27    8      1.45      0.12
    1   27    8      1.23      0.01
    3   27    8     -1.31     -0.22
   -4   28    8      0.84      1.34
   -2   26    9     -0.38      1.17
    0   26    9     -0.13      0.94
   -5   25    9      0.63     -0.82
   -3   25    9      1.33      0.00
   -1   25    9      1.10      0.03
    1   25    9      1.85     -1.99
   -4   24    9     -0.17      2.25
   -2   24    9     -1.59      2.33
    0   24    9     -1.92      1.69
    2   24    9     -0.85      0.95
   -7   23    9     -2.41     -1.80
   -5   23    9     -0.65      0.74
   -3   23    9      1.32      1.12
   -1   23    9     -2.18      0.60
    1   23    9     -2.07     -1.07
    3   23    9     -0.94      0.60
   -4   22    9     -2.03     -3.21
   -2   22    9      0.71     -1.87
    0   22    9      2.35     -1.75
    2   22    9      3.71     -0.25
    4   22    9     -1.24      0.22
   -3   21    9     -4.56      1.07
   -1   21    9     -0.92     -1.09
    1   21    9     -0.46      1.03
    3   21    9     -3.50      1.05
    5   21    9     -3.89      0.02
   -8   20    9      2.60      1.60
   -6   20    9      4.41     -0.26
   -4   20    9      3.17      1.77
   -2   20    9      0.41     -0.25
    0   20    9      2.66     -1.31
    2   20    9      1.45     -1.14
    4   20    9      1.88     -2.72
    6   20    9     -0.14     -0.98
  -13   19    9      0.08     -0.54
  -11   19    9     -0.80     -1.32
   -9   19    9     -1.59     -4.20
   -7   19    9     -1.02     -1.68
   -5   19    9      1.52     -0.79
   -3   19    9      2.25     -0.64
   -1   19    9      0.64      1.97
    1   19    9      1.18      1.02
    3   19    9      1.15     -2.55
    5   19    9     -0.04     -2.87
    7   19    9     -1.70      0.62
  -16   18    9      1.34      4.26
  -14   18    9      1.23      0.21
  -12   18    9      0.94     -0.06
  -10   18    9      2.46     -0.55
   -8   18    9      2.38     -2.14
   -6   18    9      0.65      1.19
   -4   18    9     -1.49     -0.28
   -2   18    9     -1.27      1.24
    0   18    9     -2.34      3.10
    2   18    9     -0.57      1.93
    4   18    9     -1.03     -1.20
    6   18    9      0.26     -0.98
    8   18    9     -0.18     -0.72
  -19   17    9      0.02     -1.46
  -17   17    9      2.36      0.02
  -15   17    9     -0.94     -1.74
  -13   17    9     -2.72     -1.39
  -11   17    9     -1.57     -0.67
   -9   17    9     -1.42      1.05
   -7   17    9     -1.08     -1.06
   -5   17    9     -2.36      0.71
   -3   17    9     -1.77      0.03
   -1   17    9      0.45     -0.81
    1   17    9     -0.92      1.56
    3   17    9      0.23      3.06
    5   17    9      1.68      0.02
    7   17    9      1.15     -2.32
  -18   16    9     -1.43     -0.19
  -16   16    9     -0.67     -1.43
  -14   16    9     -1.47     -0.94
  -12   16    9      1.26      1.33
  -10   16    9      3.14      0.46
   -8   16    9      1.68      0.41
   -6   16    9      1.88     -2.52
   -4   16    9      1.44     -0.77
   -2   16    9      2.64     -1.11
    0   16    9      2.69     -0.89
    2   16    9      0.46      1.27
    4   16    9      3.06      1.53
    6   16    9      0.73     -2.67
    8   16    9      0.70     -1.79
  -19   15    9      0.16      2.55
  -17   15    9     -4.80      2.81
  -15   15    9     -0.66      1.04
  -13   15    9     -0.83      0.57
  -11   15    9     -1.09      1.89
   -9   15    9     -0.26     -1.01
   -7   15    9     -1.45      2.62
   -5   15    9     -0.70      0.17
   -3   15    9     -3.12      0.77
   -1   15    9     -4.16     -0.82
    1   15    9     -4.05     -2.25
    3   15    9     -3.07     -2.97
    5   15    9     -0.74     -1.69
    7   15    9      0.30      1.71
    9   15    9      0.22      0.89
  -18   14    9     -1.12     -0.87
  -16   14    9     -2.01     -0.76
  -14   14    9      3.20     -1.68
  -12   14    9      0.72     -3.03
  -10   14    9      1.40     -0.85
   -8   14    9      3.96     -2.31
   -6   14    9      1.31      0.16
   -4   14    9     -0.27     -1.13
   -2   14    9     -2.10      0.39
    0   14    9      0.05      0.16
    2   14    9      1.35     -1.25
    4   14    9      1.34     -2.03
    6   14    9      2.99      3.19
    8   14    9     -0.74      1.96
   10   14    9     -0.08      1.07
  -19   13    9      0.32      0.85
  -17   13    9      3.30     -1.21
  -15   13    9      0.42      2.91
  -13   13    9     -1.18      2.69
  -11   13    9     -4.39      1.75
   -9   13    9     -1.82      4.37
   -7   13    9      1.34     -1.21
   -5   13    9     -1.59      1.01
   -3   13    9     -0.11     -1.21
   -1   13    9      0.04      3.28
    1   13    9     -1.76      2.96
    3   13    9     -1.74      1.03
    5   13    9      2.97      0.37
    7   13    9      1.28     -1.91
    9   13    9      0.08     -0.02
  -20   12    9     -2.72      0.31
  -18   12    9     -2.00     -1.74
  -16   12    9      1.09     -1.38
  -14   12    9     -1.34      0.39
  -12   12    9      1.19     -0.69
  -10   12    9      0.84     -2.37
   -8   12    9      0.48     -0.46
   -6   12    9      0.32     -1.90
   -4   12    9     -0.67     -3.14
   -2   12    9      2.15     -4.61
    0   12    9      0.89     -1.70
    2   12    9     -0.56     -2.26
    4   12    9      3.27      2.97
    6   12    9      2.38     -0.06
    8   12    9      1.61      0.95
   10   12    9      0.24      1.85
  -19   11    9      1.45     -0.22
  -17   11    9      1.06     -1.14
  -15   11    9      1.28     -2.15
  -13   11    9      0.60     -0.68
  -11   11    9      2.17     -0.74
   -9   11    9     -0.23     -1.02
   -7   11    9     -3.04      5.26
   -5   11    9      2.08     -0.23
   -3   11    9      1.85     -0.59
   -1   11    9      1.00     -3.68
    1   11    9     -0.55     -3.50
    3   11    9     -0.72     -0.90
    5   11    9     -5.71      2.74
    7   11    9     -4.37      0.64
    9   11    9     -1.46     -1.87
   11   11    9     -0.45     -1.05
  -20   10    9     -2.78     -1.47
  -18   10    9     -1.23      2.17
  -16   10    9     -4.38      0.95
  -14   10    9     -2.35     -0.56
  -12   10    9     -0.84     -2.88
  -10   10    9      1.88     -2.91
   -8   10    9     -0.09     -1.46
   -6   10    9     -0.67     -2.12
   -4   10    9      1.47     -2.12
   -2   10    9     -1.37      1.71
    0   10    9     -0.57      0.62
    2   10    9      5.23      2.48
    4   10    9      2.20      0.88
    6   10    9      2.60      4.93
    8   10    9      3.66      0.23
   10   10    9      1.21      0.37
   12   10    9      0.87      1.54
  -21    9    9      1.16      0.48
  -19    9    9     -0.31     -1.45
  -17    9    9      2.43     -0.68
  -15    9    9     -0.54     -1.48
  -13    9    9     -0.76     -0.90
  -11    9    9      0.34      1.13
   -9    9    9      1.53      4.41
   -7    9    9      2.93     -1.30
   -5    9    9     -1.36      0.99
   -3    9    9      0.52      0.20
   -1    9    9     -2.53      1.03
    1    9    9     -1.52      0.00
    3    9    9     -4.37     -0.09
    5    9    9     -4.10     -0.03
    7    9    9     -2.21      1.40
    9    9    9     -3.33      1.74
   11    9    9     -0.60      1.20
  -22    8    9      4.92      0.32
  -20    8    9      1.58      1.25
  -18    8    9     -0.99      0.27
  -16    8    9      2.86      0.68
  -14    8    9      1.17     -0.45
  -12    8    9      2.29      1.95
  -10    8    9     -0.67      2.50
   -8    8    9     -1.00     -2.65
   -6    8    9     -1.19     -3.10
   -4    8    9      0.31      0.24
   -2    8    9      4.27     -1.10
    0    8    9      5.54      0.63
    2    8    9      2.87     -1.83
    4    8    9      3.66     -0.64
    6    8    9      1.47     -5.83
    8    8    9      0.55     -1.56
   10    8    9      2.54     -0.90
   12    8    9      2.38      0.85
  -21    7    9      1.97     -2.71
  -19    7    9      0.24      0.00
  -17    7    9     -1.08     -0.30
  -15    7    9      2.04      0.43
  -13    7    9      0.39      0.65
  -11    7    9      0.11      2.33
   -9    7    9     -0.13     -1.13
   -7    7    9     -0.13      0.64
   -5    7    9      5.68      0.25
   -3    7    9      2.00      0.26
   -1    7    9      1.23     -0.92
    1    7    9     -3.95     -0.19
    3    7    9     -2.11      1.96
    5    7    9     -3.99      2.29
    7    7    9     -6.29      2.12
    9    7    9     -1.20      0.58
   11    7    9     -2.62      0.62
   13    7    9     -3.19      0.95
  -22    6    9     -1.88      0.61
  -20    6    9     -1.03     -0.85
  -18    6    9     -0.25      0.68
  -16    6    9      0.28      0.00
  -14    6    9      2.35     -0.93
  -12    6    9     -0.76     -1.66
  -10    6    9      1.40     -1.58
   -8    6    9      0.29      2.07
   -6    6    9      1.92      2.59
   -4    6    9     -0.67     -0.69
   -2    6    9     -3.51     -0.23
    0    6    9     -4.03     -3.86
    2    6    9     -0.79     -1.63
    4    6    9     -0.25     -4.17
    6    6    9     -0.06      1.00
    8    6    9      2.14     -0.46
   10    6    9      0.23      0.54
   14    6    9     -0.95     -0.16
  -21    5    9     -1.19      3.69
  -19    5    9     -0.18     -2.43
  -17    5    9      2.46      0.18
  -15    5    9     -0.18      0.66
  -13    5    9     -0.25      1.76
  -11    5    9     -0.25      1.18
   -9    5    9      2.28      0.92
   -7    5    9      4.17     -0.76
   -5    5    9     -0.30     -1.07
   -3    5    9      3.42      1.72
   -1    5    9      4.78      2.97
    1    5    9      9.76      5.40
    3    5    9      4.45      3.48
    5    5    9      3.18      0.02
    7    5    9      4.46     -3.11
    9    5    9     -0.17     -0.59
   11    5    9     -0.89     -0.21
   13    5    9      0.42     -1.50
  -22    4    9      4.18      1.59
  -20    4    9      1.47      0.07
  -18    4    9     -0.65     -1.69
  -16    4    9     -2.45      0.87
  -14    4    9     -3.60     -0.92
  -12    4    9     -0.80     -2.02
  -10    4    9     -4.35      0.72
   -8    4    9     -0.72     -0.19
   -6    4    9     -3.08      0.69
   -4    4    9     -1.56      4.12
   -2    4    9     -3.48      1.24
    0    4    9     -4.50      3.81
    2    4    9     -6.11      1.22
    4    4    9     -6.39      2.76
    6    4    9     -1.27     -3.04
    8    4    9     -0.27      0.26
   10    4    9      0.35      2.00
   12    4    9      1.00     -3.10
   14    4    9     -1.75     -0.70
  -23    3    9     -0.28      0.70
  -21    3    9     -0.32     -2.59
  -19    3    9      0.65     -0.40
  -17    3    9     -1.94     -1.40
  -15    3    9      0.48      0.32
  -13    3    9      1.72     -1.74
  -11    3    9      0.75      0.50
   -9    3    9     -1.95      4.41
   -7    3    9     -2.00      2.94
   -5    3    9      1.91      3.84
   -3    3    9      3.93     -1.23
   -1    3    9      6.34     -1.06
    1    3    9      3.36     -3.22
    3    3    9      5.90     -2.41
    5    3    9      1.87     -2.38
    7    3    9     -1.31     -0.73
    9    3    9     -0.67      0.46
   11    3    9     -0.64     -1.35
   13    3    9     -0.54     -1.47
   15    3    9     -1.87     -0.14
  -22    2    9     -2.57      1.60
  -20    2    9      0.66      0.96
  -18    2    9      0.49      2.04
  -16    2    9      0.56      1.55
  -14    2    9      2.64      1.53
  -12    2    9     -1.42      0.68
  -10    2    9      0.26     -2.92
   -8    2    9     -2.76     -1.84
   -6    2    9      0.94     -0.93
   -4    2    9     -3.42     -1.18
   -2    2    9     -2.60      3.52
    0    2    9     -5.90      2.84
    2    2    9     -3.26      6.04
    4    2    9      1.25      2.10
    6    2    9     -1.31      2.94
    8    2    9      0.27      1.38
   10    2    9     -0.50     -1.23
   12    2    9      0.36      0.83
   14    2    9      0.40      0.22
  -23    1    9     -2.25      1.75
  -21    1    9     -0.70      3.62
  -19    1    9      1.52     -1.76
  -17    1    9      2.11     -2.48
  -15    1    9      0.50     -4.62
  -13    1    9      0.32      0.02
  -11    1    9      0.64      0.31
   -9    1    9      1.70     -3.53
   -7    1    9      0.37      2.10
   -5    1    9     -2.00     -0.35
   -3    1    9     -4.34      5.36
   -1    1    9     -5.82     -0.24
    1    1    9     -5.22     -0.61
    3    1    9     -6.29     -0.87
    5    1    9     -2.89     -1.15
    7    1    9     -2.43      2.05
    9    1    9     -3.64      0.96
   11    1    9     -1.18     -0.28
   13    1    9      0.92     -1.45
   15    1    9     -0.45     -0.47
  -22    0    9      0.81     -0.08
  -20    0    9      0.91     -0.05
  -18    0    9      1.47     -0.08
  -16    0    9     -0.27      0.17
  -14    0    9     -0.88      0.19
  -12    0    9      2.87     -0.26
  -10    0    9     -1.33      0.05
   -8    0    9     -0.53     -0.10
   -6    0    9     -3.77     -0.41
   -4    0    9      2.57     -0.18
   -2    0    9      2.00      0.04
    0    0    9      7.39     -0.07
    2    0    9      4.75      0.24
    4    0    9      3.69      0.26
    6    0    9      9.09     -0.29
    8    0    9      3.93      0.28
   10    0    9      3.72      0.58
   12    0    9      4.03      0.17
   14    0    9      1.89      0.27
   16    2    9     -0.30      3.13
   17    3    9     -0.48      1.41
   16    4    9     -2.04      0.75
   15    5    9      2.59      2.18
   17    5    9      2.84      0.75
   12    6    9     -3.65      1.05
   16    6    9      2.46      1.28
   15    7    9      0.68     -0.94
   14    8    9      1.19      1.62
   16    8    9     -0.33     -0.13
   13    9    9      1.20      1.88
   15    9    9      0.29     -0.03
   14   10    9     -0.37      0.31
   13   11    9      1.36     -3.76
   12   12    9      0.15     -0.29
   14   12    9      1.48     -1.47
   11   13    9      0.56     -0.45
   13   13    9      0.62      0.60
   12   14    9     -1.77     -1.10
   14   14    9     -5.75     -1.16
   11   15    9      1.81      0.49
   10   16    9     -0.35     -2.82
    9   17    9      2.81      0.16
  -15   19    9     -0.34      1.08
  -14   20    9     -0.54      3.99
  -12   20    9      1.23      2.86
  -10   20    9      1.41      1.08
  -13   21    9     -1.55      1.75
  -11   21    9     -1.46     -1.02
   -9   21    9     -3.42     -0.16
   -7   21    9     -1.87     -1.64
   -5   21    9     -2.81     -1.56
  -12   22    9      1.18      0.83
  -10   22    9      1.09      0.59
   -8   22    9     -0.60     -1.35
   -6   22    9     -1.16     -2.55
    6   22    9     -1.63     -0.20
  -11   23    9      1.40     -1.36
   -9   23    9      0.35     -1.88
    5   23    9     -0.62      0.73
  -10   24    9     -0.75      1.39
   -8   24    9     -1.45      2.02
   -6   24    9     -3.32      0.02
    4   24    9      0.39      1.99
   -9   25    9     -0.77     -0.35
    3   25    9      1.32     -3.13
   -6   26    9     -0.67      2.65
   -4   26    9     -1.69     -0.28
   -4   24   10     -0.62      1.80
   -5   23   10     -0.71      3.39
   -3   23   10      0.42     -0.90
   -4   22   10     -3.81      0.62
   -2   22   10     -1.82      0.20
   -3   21   10     -2.10      0.04
   -1   21   10      0.18      0.58
   -4   20   10      1.41     -0.64
   -2   20   10      2.38      1.94
    0   20   10      1.79      1.41
  -11   19   10     -1.77     -2.95
   -3   19   10      1.22     -2.89
   -1   19   10     -2.57     -0.43
    1   19   10     -3.75     -3.73
  -12   18   10     -0.28     -1.83
  -10   18   10      1.30      2.19
   -8   18   10      0.78      1.91
   -6   18   10      0.62      1.85
   -4   18   10      0.54     -0.70
   -2   18   10     -0.17     -0.76
    0   18   10     -0.80     -1.54
    2   18   10      2.30     -1.23
  -13   17   10      0.62      0.02
  -11   17   10      0.02     -0.43
   -9   17   10     -0.93      0.56
   -7   17   10     -1.22     -0.82
   -5   17   10     -0.03     -0.52
   -3   17   10     -2.24      1.26
   -1   17   10     -1.89      0.49
    1   17   10     -0.93      1.03
    3   17   10     -1.57      0.84
  -16   16   10      0.84     -2.69
  -14   16   10      1.56      0.26
  -12   16   10      3.02      0.44
  -10   16   10     -0.07     -0.50
   -8   16   10      0.02      0.85
   -6   16   10      1.31     -0.86
   -4   16   10     -0.14      0.53
   -2   16   10     -1.98     -0.05
    0   16   10     -0.57     -1.30
    2   16   10     -1.16     -0.06
    4   16   10      0.24      2.59
    6   16   10      0.86      1.27
  -17   15   10      1.49      0.70
  -15   15   10      4.24     -1.15
  -13   15   10      4.12      0.89
  -11   15   10      0.74      1.07
   -9   15   10     -2.87      0.33
   -7   15   10     -0.85      1.23
   -5   15   10      1.18     -0.95
   -3   15   10      2.67     -0.69
   -1   15   10      1.63     -0.51
    1   15   10      1.92     -1.22
    3   15   10      0.66     -0.88
    5   15   10     -0.16      0.85
    7   15   10      0.20      0.79
  -16   14   10     -0.47      0.81
  -14   14   10      0.67     -0.67
  -12   14   10     -0.81     -0.26
  -10   14   10     -0.62      0.62
   -8   14   10     -1.21     -0.30
   -6   14   10     -1.77      0.80
   -4   14   10     -0.31     -0.92
   -2   14   10      0.55     -1.06
    0   14   10      1.41     -1.35
    2   14   10      3.37     -2.11
    4   14   10      0.97     -2.42
    6   14   10      1.20      1.49
    8   14   10      3.00     -0.29
  -17   13   10      4.28     -1.17
  -15   13   10      0.56      2.66
  -13   13   10      0.30      1.27
  -11   13   10     -0.14      1.10
   -9   13   10      1.33      0.42
   -7   13   10      0.59     -0.66
   -5   13   10     -0.08      1.90
   -3   13   10     -1.02     -0.50
   -1   13   10     -1.26     -0.76
    1   13   10     -1.15     -0.84
    3   13   10     -1.29     -0.55
    5   13   10     -3.29      0.04
    7   13   10     -1.64      0.26
  -18   12   10     -0.34      1.43
  -16   12   10      0.92      1.45
  -14   12   10     -1.11      1.75
  -12   12   10      0.38     -0.10
  -10   12   10     -2.12     -3.01
   -8   12   10     -1.34     -3.11
   -6   12   10      0.94     -2.16
   -4   12   10      1.27      0.29
   -2   12   10      0.42     -0.19
    0   12   10      1.18     -0.53
    2   12   10      2.50     -0.47
    4   12   10      2.84      1.09
    6   12   10      2.86     -2.20
    8   12   10      1.40      0.38
  -17   11   10      0.13      2.16
  -15   11   10      0.85     -1.57
  -13   11   10     -0.67     -0.01
  -11   11   10     -1.01     -1.27
   -9   11   10     -1.69     -0.41
   -7   11   10     -0.27      1.87
   -5   11   10      1.49     -0.46
   -3   11   10      0.80      2.59
   -1   11   10     -0.73      1.39
    1   11   10      0.16      3.23
    3   11   10     -1.09      3.80
    5   11   10     -0.55      0.94
    7   11   10     -0.55      0.71
    9   11   10      0.42     -0.33
  -18   10   10     -1.48      1.89
  -16   10   10     -2.75      0.84
  -14   10   10      1.09     -0.14
  -12   10   10     -0.14      0.91
  -10   10   10      3.03      0.58
   -8   10   10      1.98      1.30
   -6   10   10     -1.55     -0.27
   -4   10   10     -2.54     -2.28
   -2   10   10      0.15     -3.26
    0   10   10      3.15     -3.20
    2   10   10      2.24      1.06
    4   10   10     -0.73     -2.96
    6   10   10     -1.20      0.68
    8   10   10     -0.29      0.43
   10   10   10     -0.57     -0.62
  -19    9   10      1.16      1.23
  -17    9   10      2.16      0.06
  -15    9   10      1.94      0.44
  -13    9   10      1.60      0.13
  -11    9   10     -0.16      0.74
   -9    9   10      0.94     -1.94
   -7    9   10      1.19     -3.25
   -5    9   10     -0.95      1.52
   -3    9   10      0.09      0.80
   -1    9   10      3.14      2.15
    1    9   10      1.80      4.32
    3    9   10      0.37      1.74
    5    9   10      0.50     -0.50
    7    9   10      1.82      1.23
    9    9   10      0.61      1.99
  -18    8   10     -2.27      0.21
  -16    8   10     -1.05      0.76
  -14    8   10     -1.75      1.52
  -12    8   10      0.02      1.26
  -10    8   10     -2.38      1.43
   -8    8   10     -1.02     -1.60
   -6    8   10      1.06     -0.97
   -4    8   10     -0.34      1.16
   -2    8   10     -3.03      0.50
    0    8   10     -5.08      3.25
    2    8   10     -5.16      0.46
    4    8   10      0.26      2.15
    6    8   10      3.03      0.51
    8    8   10      1.74      0.78
   10    8   10      2.36      1.89
  -19    7   10     -0.30     -0.20
  -17    7   10     -0.07     -1.24
  -15    7   10      1.80     -0.05
  -13    7   10      0.54     -0.35
  -11    7   10      0.65     -3.17
   -9    7   10     -0.25      0.54
   -7    7   10     -0.28      2.32
   -5    7   10      2.32     -0.37
   -3    7   10      1.63     -1.30
   -1    7   10      1.23     -1.87
    1    7   10     -0.82     -3.37
    3    7   10     -0.08     -2.94
    5    7   10      0.33     -0.69
    7    7   10     -3.83     -1.69
    9    7   10     -1.18     -2.97
   11    7   10     -2.18     -2.17
  -20    6   10     -0.16      0.78
  -18    6   10     -1.00      1.79
  -16    6   10     -0.27      1.92
  -14    6   10      0.79      3.04
  -12    6   10     -1.54     -0.73
  -10    6   10      1.35     -3.95
   -8    6   10      0.84      1.32
   -6    6   10     -0.24      1.62
   -4    6   10     -2.42     -1.06
   -2    6   10     -0.76      2.18
    0    6   10      0.24      1.52
    2    6   10      0.23      4.47
    4    6   10      1.86      3.76
    6    6   10     -1.11      5.53
    8    6   10      0.17      3.83
   10    6   10     -2.92      2.08
  -21    5   10      1.56      0.21
  -19    5   10      0.29     -2.31
  -17    5   10     -0.87     -1.37
  -15    5   10     -3.40     -0.98
  -13    5   10     -2.36     -0.49
  -11    5   10      0.36      0.69
   -9    5   10      1.63     -1.18
   -7    5   10      1.21      1.48
   -5    5   10     -2.37     -0.70
   -3    5   10     -1.61     -1.50
   -1    5   10     -0.61     -1.52
    1    5   10     -1.37     -1.79
    3    5   10     -2.00     -1.62
    5    5   10     -2.29     -1.70
    7    5   10     -0.07     -0.94
    9    5   10     -0.70      1.62
   11    5   10     -0.29      0.04
  -20    4   10      0.88      0.55
  -18    4   10      1.55      0.03
  -16    4   10      1.55      1.43
  -14    4   10      0.24      0.33
  -12    4   10      3.81      1.98
  -10    4   10      1.28      3.77
   -8    4   10     -1.03     -1.62
   -6    4   10     -2.13     -2.04
   -4    4   10      1.67     -1.85
   -2    4   10      2.35     -2.35
    0    4   10      1.53      1.03
    2    4   10      1.57     -2.45
    4    4   10     -0.61      0.56
    6    4   10      2.41     -1.80
    8    4   10      1.03      0.49
   10    4   10      2.70      0.92
  -21    3   10     -1.54      0.69
  -19    3   10     -0.85      1.95
  -17    3   10     -2.23     -1.15
  -15    3   10     -2.36     -1.08
  -13    3   10     -1.79     -0.73
  -11    3   10      0.40      0.39
   -9    3   10      0.39      2.40
   -7    3   10     -1.22     -1.72
   -5    3   10      1.96      3.18
   -3    3   10      1.87      1.63
   -1    3   10     -2.53      4.89
    1    3   10     -2.51      3.68
    3    3   10     -2.20      4.35
    5    3   10     -1.87      3.77
    7    3   10     -2.26      1.01
    9    3   10     -2.73     -0.64
   11    3   10     -1.01     -1.78
  -20    2   10      1.51      2.56
  -18    2   10      1.12      0.52
  -16    2   10      0.32     -2.13
  -14    2   10      1.12     -2.04
  -12    2   10     -2.03     -1.41
  -10    2   10     -0.35     -1.05
   -8    2   10     -0.27      1.34
   -6    2   10      1.32     -0.81
   -4    2   10      0.89     -2.75
   -2    2   10     -2.02     -4.74
    0    2   10     -3.05     -8.70
    2    2   10     -1.06     -5.29
    4    2   10      0.66     -4.94
    6    2   10     -1.27     -1.15
    8    2   10      0.29     -0.27
   10    2   10     -0.23      0.21
  -21    1   10     -1.58     -0.06
  -19    1   10     -0.80     -2.29
  -17    1   10      1.68     -1.00
  -15    1   10      1.29      0.27
  -13    1   10      0.20      2.08
  -11    1   10     -1.50      2.32
   -9    1   10     -1.34     -1.47
   -7    1   10     -0.85      1.75
   -5    1   10     -1.58     -1.90
   -3    1   10      0.04      6.79
   -1    1   10      3.23      3.41
    1    1   10      3.94      5.44
    3    1   10      2.52      3.03
    5    1   10      0.01      1.19
    7    1   10     -2.25      1.64
    9    1   10     -2.65      0.78
   11    1   10     -1.99      2.48
  -20    0   10     -2.80     -0.34
  -18    0   10     -0.90      0.09
  -16    0   10      0.72      0.44
  -14    0   10     -0.16      0.65
  -12    0   10      1.79      0.07
  -10    0   10     -0.56     -0.02
   -8    0   10      1.02     -1.11
   -6    0   10      0.97     -0.39
   -4    0   10     -0.41      0.71
   -2    0   10     -0.57      0.60
    0    0   10     -2.08      0.24
    2    0   10     -4.68     -0.79
    4    0   10     -3.72     -1.19
    6    0   10      1.78     -0.72
    8    0   10      1.48     -0.54
   10    0   10      1.90     -0.24
   12    2   10     -0.57      2.11
   12    4   10      3.23     -1.60
   14    4   10     -0.22      1.45
   13    5   10      1.68     -0.40
   12    6   10     -4.25      1.58
   14    6   10     -0.77      0.78
   13    7   10     -0.49     -1.34
   12    8   10     -0.68      1.45
   14    8   10     -0.95     -0.20
   11    9   10      1.13      3.47
   13    9   10      0.36      1.66
   12   10   10      0.26      0.67
   11   11   10      0.77      0.19
   10   12   10      0.70      0.47
   12   12   10      0.49      0.43
    9   13   10     -1.97      1.12
   11   13   10     -0.88      0.15
   10   14   10      2.05     -0.12
    9   15   10      0.83     -1.08
    8   16   10      0.02      1.49
  -15   17   10      1.11      0.95
    5   17   10     -0.58     -1.76
    7   17   10      0.52     -3.44
  -14   18   10     -0.16     -2.82
    4   18   10      0.91      0.53
    6   18   10      0.92      0.30
  -13   19   10      0.19     -5.35
   -9   19   10     -0.37     -0.41
   -7   19   10      1.36     -0.58
   -5   19   10      0.51     -2.15
    3   19   10     -1.25     -2.09
    5   19   10     -1.09      0.31
  -12   20   10      0.54      0.86
  -10   20   10      0.54      2.89
   -8   20   10      2.91      3.94
   -6   20   10      1.56     -0.58
    2   20   10      0.51     -1.28
    4   20   10      2.67     -1.17
   -7   21   10     -1.85     -3.29
   -5   21   10     -2.84     -3.74
    1   21   10     -1.92      1.78
    3   21   10     -1.70     -0.56
    0   22   10     -1.67      1.65
    2   22   10     -1.55      1.94
    1   23   10     -0.31      0.27
   -9   19   11     -1.52      0.38
  -10   18   11     -0.81      2.60
  -11   17   11      0.37     -0.83
   -9   17   11     -1.35     -0.65
  -12   16   11     -1.67     -0.17
  -10   16   11      0.51     -0.48
   -8   16   11      0.40     -0.03
   -6   16   11      0.11      0.69
   -4   16   11     -1.18      0.56
   -2   16   11      0.46      1.55
    0   16   11     -0.87      2.39
  -15   15   11     -0.31     -1.03
  -13   15   11     -2.23     -0.26
  -11   15   11     -2.01     -1.24
   -9   15   11     -1.17     -3.52
   -7   15   11      0.14     -3.82
   -5   15   11     -0.70     -1.96
   -3   15   11      0.01     -1.02
   -1   15   11      0.49      2.53
    1   15   11     -1.98      2.68
    3   15   11     -0.72      1.30
  -14   14   11     -0.74     -0.81
  -12   14   11     -1.37     -0.29
  -10   14   11     -2.13      0.06
   -8   14   11     -1.62     -1.97
   -6   14   11     -0.90     -1.84
   -4   14   11      1.73     -0.59
   -2   14   11      1.69     -1.37
    0   14   11      0.42     -1.00
    2   14   11     -1.28     -0.20
    4   14   11     -2.15     -0.91
    6   14   11     -0.07     -1.47
  -15   13   11     -0.07      2.31
  -13   13   11      1.37     -0.95
  -11   13   11     -0.26      0.54
   -9   13   11      0.06      0.88
   -7   13   11      0.00     -0.68
   -5   13   11      0.97      0.16
   -3   13   11      0.35      0.74
   -1   13   11     -1.04      1.10
    1   13   11     -1.98      0.84
    3   13   11     -2.28      0.56
    5   13   11     -2.81     -0.56
    7   13   11     -0.86     -1.55
  -14   12   11     -0.47     -2.31
  -12   12   11      0.47     -3.85
  -10   12   11      0.85     -1.92
   -8   12   11      2.70     -0.48
   -6   12   11      2.63      0.73
   -4   12   11     -1.29      0.17
   -2   12   11     -2.22      0.42
    0   12   11     -1.80     -0.89
    2   12   11     -0.58     -1.85
    4   12   11      0.92      2.45
    6   12   11      0.71      3.70
    8   12   11     -0.62      2.51
  -15   11   11      0.00     -3.75
  -13   11   11      0.26     -1.33
  -11   11   11      1.51     -2.43
   -9   11   11      1.24     -1.12
   -7   11   11      1.92      0.68
   -5   11   11     -0.18     -0.57
   -3   11   11     -0.47     -0.32
   -1   11   11     -0.57     -0.80
    1   11   11     -0.37     -2.08
    3   11   11     -0.75     -2.06
    5   11   11      0.65      0.76
    7   11   11      0.27      0.05
    9   11   11      0.72     -0.96
  -16   10   11     -1.61      0.65
  -14   10   11     -0.35      1.35
  -12   10   11      1.37      1.32
  -10   10   11      1.58     -1.11
   -8   10   11      0.01      0.92
   -6   10   11     -1.39      0.80
   -4   10   11      0.80      0.02
   -2   10   11      2.29      0.21
    0   10   11      1.29      0.42
    2   10   11      0.75     -1.13
    4   10   11      0.24     -2.00
    6   10   11      0.76     -0.03
    8   10   11      2.01      0.09
  -17    9   11      1.25     -2.68
  -15    9   11      1.72     -1.72
  -13    9   11      1.69     -2.67
  -11    9   11      0.99     -0.86
   -9    9   11      0.38     -1.23
   -7    9   11     -1.35     -0.59
   -5    9   11     -1.07     -0.84
   -3    9   11     -0.84     -2.04
   -1    9   11     -1.29      0.91
    1    9   11     -2.75      0.17
    3    9   11     -1.35      0.06
    5    9   11     -2.72     -0.40
    7    9   11     -1.47      0.05
    9    9   11     -1.41     -0.16
  -16    8   11     -0.11      1.70
  -14    8   11     -0.06      0.98
  -12    8   11     -0.63      2.71
  -10    8   11     -0.10      5.00
   -8    8   11      0.32      1.07
   -6    8   11      1.59     -0.03
   -4    8   11      1.58     -0.67
   -2    8   11     -0.12     -0.41
    0    8   11      0.15     -2.06
    2    8   11      2.82     -2.73
    4    8   11      3.09     -0.51
    6    8   11      1.10     -0.58
    8    8   11     -1.25      0.11
  -17    7   11      0.71     -0.09
  -15    7   11      0.92     -1.17
  -13    7   11      0.96     -0.39
  -11    7   11      0.96     -0.71
   -9    7   11      1.09      0.20
   -7    7   11     -0.26     -1.74
   -5    7   11     -0.15     -0.16
   -3    7   11     -0.53      2.85
   -1    7   11     -2.79      0.84
    1    7   11      0.76      1.64
    3    7   11      0.85      2.05
    5    7   11     -0.25      2.55
    7    7   11     -1.38      0.14
  -16    6   11      0.61     -1.92
  -14    6   11      1.94     -0.64
  -12    6   11      0.90     -0.46
  -10    6   11     -1.56      0.24
   -8    6   11     -0.90      2.99
   -6    6   11     -1.19      0.70
   -4    6   11      0.52     -0.51
   -2    6   11      0.73     -3.72
    0    6   11      1.06     -4.82
    2    6   11      0.09     -1.92
    4    6   11     -3.29     -0.08
    6    6   11     -2.90      0.71
    8    6   11      1.64      1.05
  -17    5   11     -1.07     -1.78
  -15    5   11     -0.25     -0.36
  -13    5   11      0.78     -0.15
  -11    5   11     -0.52      0.60
   -9    5   11     -2.03     -0.86
   -7    5   11      1.17     -0.09
   -5    5   11      1.73     -1.11
   -3    5   11      2.19     -0.08
   -1    5   11      4.08      1.75
    1    5   11      3.24      1.57
    3    5   11      2.11      2.78
    5    5   11     -0.04     -1.21
    7    5   11      2.02     -0.50
  -16    4   11      0.09      1.56
  -14    4   11     -1.26      1.17
  -12    4   11     -0.16      1.09
  -10    4   11      0.58     -0.43
   -8    4   11      0.47     -2.56
   -6    4   11      2.36     -0.64
   -4    4   11     -1.40      0.50
   -2    4   11     -4.35      2.33
    0    4   11     -5.67      2.21
    2    4   11     -3.56      1.82
    4    4   11     -1.29     -0.70
    6    4   11      2.35     -1.61
    8    4   11     -0.06     -0.46
  -15    3   11      1.54     -1.97
  -13    3   11     -0.16      0.73
  -11    3   11     -0.99     -0.88
   -9    3   11     -0.96     -0.69
   -7    3   11     -2.21     -0.24
   -5    3   11      0.33      2.59
   -3    3   11      1.26     -0.47
   -1    3   11      1.26     -3.01
    1    3   11      3.27     -0.41
    3    3   11      1.36     -1.84
    5    3   11      1.36     -1.32
    7    3   11     -2.57     -0.64
  -16    2   11     -0.23      0.17
  -14    2   11      1.33      0.94
  -12    2   11     -0.11      1.36
  -10    2   11      0.36      0.47
   -8    2   11      2.43      2.41
   -6    2   11      0.79      3.81
   -4    2   11      2.44      4.13
   -2    2   11      0.47     -0.26
    0    2   11      1.57      0.60
    2    2   11     -0.69      2.00
    4    2   11      0.87      1.19
    6    2   11     -0.04      2.58
    8    2   11      1.73      2.02
  -15    1   11     -1.13      0.25
  -13    1   11     -1.47     -1.66
  -11    1   11     -0.47     -0.22
   -9    1   11     -0.52     -0.62
   -7    1   11     -1.82      0.71
   -5    1   11     -4.80     -1.00
   -3    1   11     -3.33     -0.89
   -1    1   11     -1.05     -3.40
    1    1   11     -3.73     -2.56
    3    1   11     -2.84     -0.93
    5    1   11     -2.70      0.40
    7    1   11     -2.15      1.08
  -14    0   11      1.19      0.85
  -12    0   11      1.19     -0.46
  -10    0   11      0.71     -0.15
   -8    0   11     -1.65     -0.10
   -6    0   11     -0.32     -0.15
   -4    0   11     -1.34      0.37
   -2    0   11      5.98      1.10
    0    0   11      3.51      0.02
    2    0   11      3.77     -0.52
    4    0   11      3.58     -0.39
    6    0   11      3.60     -0.50
    9    7   11     -0.95      1.22
   10    8   11     -2.33      2.81
   10   10   11      1.28     -0.04
    5   15   11      3.04      0.90
    2   16   11     -2.99      0.58
    4   16   11      1.50      1.30
   -3   17   11     -0.40     -2.14
   -1   17   11      1.07     -3.51
  -10   14   12     -3.08     -0.78
   -8   14   12     -0.82      1.39
   -6   14   12     -2.46      1.48
   -4   14   12     -0.45      0.40
   -2   14   12     -0.34      0.79
   -9   13   12      0.42     -0.26
   -7   13   12      0.86     -1.77
   -5   13   12     -0.71     -1.11
   -3   13   12     -1.32     -1.50
   -1   13   12     -2.14     -1.41
    1   13   12     -1.60      0.04
    3   13   12     -2.09     -0.21
  -10   12   12      0.63      0.16
   -8   12   12     -0.53     -0.43
   -6   12   12      0.01     -0.70
   -4   12   12     -0.16     -0.59
   -2   12   12      0.19     -0.94
    0   12   12      1.89     -1.28
    2   12   12      1.56     -0.20
    4   12   12     -0.09      1.15
  -11   11   12      2.32     -4.20
   -9   11   12      1.05     -1.87
   -7   11   12     -0.95      0.33
   -5   11   12     -1.24     -2.39
   -3   11   12     -1.62     -0.97
   -1   11   12     -0.78     -0.52
    1   11   12      1.11      0.78
    3   11   12     -1.07      2.91
   -8   10   12     -0.03      1.38
   -6   10   12      0.24     -0.52
   -4   10   12      0.87     -0.81
   -2   10   12      1.73     -1.43
    0   10   12      2.12     -1.30
    2   10   12      1.75     -0.39
  -11    9   12      1.37      0.28
   -9    9   12      0.28      0.39
   -7    9   12      0.75     -2.33
   -5    9   12      2.49     -0.60
   -3    9   12      1.92     -0.34
   -1    9   12      1.44      0.63
    1    9   12     -1.11      0.75
    3    9   12     -1.33     -2.09
  -10    8   12      3.37      3.47
   -8    8   12     -0.87      0.28
   -6    8   12      0.74      0.23
   -4    8   12      0.74     -0.77
   -2    8   12     -1.40     -0.52
    0    8   12     -1.14      1.34
    2    8   12     -2.85      1.99
  -11    7   12      3.81     -0.68
   -9    7   12      2.48     -0.95
   -7    7   12      0.02     -0.11
   -5    7   12     -0.38     -1.05
   -3    7   12     -0.59     -1.52
   -1    7   12      0.14     -1.45
    1    7   12      0.21      1.50
    3    7   12     -0.99      0.17
  -10    6   12     -3.96      1.36
   -8    6   12     -0.22      1.78
   -6    6   12     -0.06      3.04
   -4    6   12      1.05      4.72
   -2    6   12      4.26      2.90
    0    6   12      1.48      2.42
    2    6   12      0.89     -0.36
   -9    5   12     -1.22      0.11
   -7    5   12      1.23     -1.63
   -5    5   12     -0.36     -0.44
   -3    5   12      0.64     -1.08
   -1    5   12      0.04      0.68
    1    5   12     -2.06     -3.34
    3    5   12     -0.12     -2.18
  -10    4   12      0.69      1.76
   -8    4   12     -0.50      1.04
   -6    4   12      1.68      0.42
   -4    4   12      0.27     -0.60
   -2    4   12     -1.30      2.18
    0    4   12      0.11     -0.95
    2    4   12      0.25     -2.11
   -9    3   12      0.11     -1.59
   -7    3   12     -2.41      0.54
   -5    3   12     -1.65     -0.43
   -3    3   12     -3.40      2.18
   -1    3   12     -2.65      0.75
    1    3   12     -0.02      3.35
    3    3   12      1.01      1.57
  -10    2   12     -0.37      2.22
   -8    2   12      0.57      1.12
   -6    2   12     -1.08      0.80
   -4    2   12      0.64     -1.38
   -2    2   12     -0.47     -4.24
    0    2   12     -1.60     -1.84
    2    2   12      0.32     -0.99
   -9    1   12     -1.73      0.52
   -7    1   12     -1.25     -0.98
   -5    1   12     -0.66      1.23
   -3    1   12      2.38     -0.96
   -1    1   12      2.62      3.14
    1    1   12      2.27     -0.19
    3    1   12      1.48      1.90
   -8    0   12      0.38     -0.18
   -6    0   12      1.88     -0.40
   -4    0   12     -0.35      0.83
   -2    0   12     -1.27      1.86
    0    0   12     -2.15      0.19
    2    0   12     -3.12     -0.04
    4    0   12     -3.19      0.42
    5    1   12      0.36      1.14
    4    2   12      0.33      3.36
    6    2   12      0.23      1.94
    5    3   12      0.58      1.44
    4    4   12      3.29     -4.16
    6    4   12      2.04     -1.15
    5    5   12      1.07     -1.74
    4    6   12     -0.46      0.86
   -1   15   12     -0.10      1.22
   -2    2   13      2.02     -0.27
    0    2   13     -1.57      3.08
   -3    3   13      0.17     -1.04
   -1    3   13      2.73      0.59
    1    3   13      1.52      3.47
   -2    4   13     -2.92      1.94
    0    4   13      1.17      0.92
    2    4   13     -1.04      0.60
   -3    5   13      1.59      0.54
   -1    5   13      1.48      0.19
   -2    6   13      1.13     -3.56
   28    0    0     -2.24     -0.86
    1    1    0      7.97     32.96
    0    2    0   -125.15    -65.39
    2    2    0     52.89      2.77
    1    3    0    -74.35   -265.93
   28    4    0     -1.16      0.20
   28    6    0      2.99     -1.51
   27    9    0     -2.72     -0.45
   26   10    0     -2.11      0.65
   25   11    0      5.04      1.90
   27   11    0      1.59      0.00
   26   12    0     -0.42      2.66
   25   13    0     -1.93      1.78
   26   14    0     -0.02     -1.44
   25   15    0      2.05      1.03
   25   17    0     -0.19      0.26
   23   21    0      2.25      0.28
   21   23    0     -4.35      0.91
   20   24    0      1.59      1.52
   19   25    0      2.46      1.73
   18   26    0      1.17     -0.63
   17   27    0     -0.04      1.81
   19   27    0     -1.19     -0.85
   16   28    0      2.60      2.00
   18   28    0     -1.95      0.84
   15   29    0      1.74      0.11
   17   29    0     -0.09     -0.16
   14   30    0      0.11     -1.30
   16   30    0      0.83     -0.39
   13   31    0      1.67     -0.89
   12   32    0      0.37      0.41
    1   33    0     -2.96      3.97
   11   33    0      2.53     -0.21
    0   34    0      0.01     -0.86
    2   34    0      0.85     -1.79
    4   34    0      0.76      0.39
   10   34    0      0.37      0.84
    1   35    0      1.33      0.76
    3   35    0      0.21      1.60
    5   35    0     -0.15      0.11
    7   35    0     -0.03      0.69
    0    0    1    100.80     -1.64
   28    0    1     -2.37      0.85
   27    1    1      1.21     -0.50
   28    2    1      5.00     -3.04
  -28    6    1     -1.72     -0.41
  -28    8    1     -2.27      1.15
  -27    9    1     -0.73      3.56
   27    9    1     -0.83      3.33
  -26   10    1      0.25      0.17
   26   10    1      0.63      0.86
  -27   11    1      2.86      1.17
   25   11    1      3.67      3.04
  -26   12    1      2.21      0.26
   26   12    1      0.58      2.03
  -25   13    1     -1.93     -1.30
   25   13    1      0.07     -0.38
  -26   14    1     -0.19     -1.39
  -25   15    1      0.46     -0.51
   25   15    1      0.91     -0.22
  -24   16    1     -0.57     -2.00
  -25   17    1     -0.26      0.01
  -24   18    1     -1.99      2.11
   24   18    1     -0.04     -1.17
   23   19    1     -3.77      1.44
  -24   20    1      1.88      1.23
  -23   21    1      1.18     -2.31
   22   22    1     -0.25      2.64
  -21   23    1     -0.47      1.98
  -20   24    1      2.22      3.29
   20   24    1     -2.40      0.45
  -19   25    1     -0.89      0.16
   19   25    1      1.74      2.65
  -20   26    1      0.71     -3.88
   18   26    1      1.30     -1.29
  -19   27    1      1.19     -0.95
   17   27    1     -0.85      1.37
  -18   28    1      1.32      2.26
   16   28    1      0.51      0.32
  -17   29    1     -2.07     -2.21
   15   29    1     -0.94      1.74
  -16   30    1      1.01     -3.56
   14   30    1      1.50     -0.86
  -15   31    1     -2.24     -1.13
   13   31    1      0.48     -0.82
   12   32    1      0.56     -0.38
   11   33    1     -1.08     -0.06
  -10   34    1     -0.71      1.91
   -4   34    1     -3.41      0.86
   -2   34    1     -0.41     -0.58
    0   34    1     -1.94      0.16
    2   34    1     -0.35     -2.26
    4   34    1     -0.63     -0.28
    8   34    1      0.46      0.86
   -7   35    1      1.28      1.64
   -5   35    1      1.00      0.85
   -3   35    1      2.52      1.36
   -1   35    1      1.62      0.41
    1   35    1     -0.82     -0.58
    3   35    1      0.61     -1.05
    5   35    1     -1.37     -0.62
    7   35    1     -1.61     -1.56
  -28    0    2      1.95      0.23
   26    0    2      4.45      0.41
   27    1    2      1.48      0.84
  -28    2    2     -4.51      0.64
   27    3    2      0.85     -4.26
   27    5    2     -2.45      0.95
  -28    6    2      0.35     -3.15
  -28    8    2      1.42      0.02
   26    8    2     -0.61      6.95
  -27    9    2     -1.96     -0.61
  -26   10    2     -3.24     -0.98
   26   10    2      2.39     -0.16
  -27   11    2     -0.77     -1.84
   25   11    2      2.32      0.05
  -26   12    2     -0.40      3.06
  -25   13    2     -1.09      5.11
   25   13    2      1.24      1.60
  -26   14    2      1.22      0.18
  -25   15    2      3.35      0.53
   24   16    2      3.66     -1.06
  -25   17    2     -0.79     -2.05
  -24   18    2     -1.96     -0.52
   23   19    2      0.06      0.01
  -24   20    2      1.44      1.13
   22   20    2     -1.79     -1.10
  -23   21    2      1.08      1.65
   21   21    2      0.33     -1.17
  -22   22    2      0.04      2.26
  -21   23    2     -1.69      1.19
   21   23    2     -0.41      0.69
  -20   24    2      0.67     -0.25
   20   24    2      0.00     -1.76
   19   25    2     -1.04      0.29
  -20   26    2     -0.54      2.23
   16   26    2     -2.37     -0.63
   18   26    2      0.40     -0.65
  -19   27    2      1.02      1.63
   15   27    2      1.09     -0.81
   17   27    2     -1.06      0.46
  -18   28    2      0.88      1.84
   14   28    2     -0.05      0.33
   16   28    2      1.25     -0.47
  -17   29    2      0.65     -3.56
   13   29    2     -1.13      0.39
   15   29    2     -0.31     -0.35
  -16   30    2      1.19     -1.45
   12   30    2      0.56      2.20
   14   30    2     -0.11     -0.89
  -15   31    2     -1.19      0.26
    9   31    2     -2.81     -0.61
   11   31    2     -2.53     -1.59
   13   31    2     -0.66     -1.75
  -12   32    2     -0.60     -2.42
   10   32    2      0.10     -0.37
   12   32    2      0.58     -0.61
  -11   33    2      0.23     -1.34
    9   33    2      0.88      0.18
   -8   34    2     -1.25      1.01
   -4   34    2     -0.70      1.13
   -2   34    2      1.47      0.35
    0   34    2      1.00     -0.16
    2   34    2      0.99     -0.39
    4   34    2     -0.31     -0.07
    8   34    2      1.34      0.51
   -7   35    2     -0.67      0.50
   -5   35    2      0.11     -0.83
   -3   35    2      0.14      0.43
   -1   35    2     -0.10      1.42
    1   35    2     -0.54      1.54
    3   35    2     -0.32      0.48
    5   35    2     -1.25     -0.08
  -28    0    3      1.09      0.30
   26    0    3     -0.87     -0.39
  -28    2    3      0.02     -2.35
   26    2    3      2.30     -0.96
   25    5    3     -0.68     -2.06
  -28    6    3     -0.35     -0.42
   24    6    3     -0.81      3.11
   26    6    3      0.25      0.62
  -28    8    3     -0.80      0.22
   26    8    3     -1.04      0.55
  -27    9    3      1.28      1.08
   25    9    3      3.38      0.38
  -26   10    3     -1.29     -3.22
  -27   11    3     -0.98     -1.16
   25   11    3     -2.03     -0.36
  -26   12    3      0.31      0.27
  -25   13    3     -4.90      2.47
  -26   14    3     -1.40      0.23
  -25   15    3      2.44     -0.99
  -25   17    3     -0.84      1.36
   23   17    3     -0.18      0.87
  -24   18    3     -1.66     -2.08
   22   18    3     -2.36     -2.02
   21   19    3      1.68      0.28
  -23   21    3     -0.53     -0.27
   21   21    3     -1.78      0.87
  -22   22    3      1.63      2.61
   20   22    3     -1.06      0.68
  -21   23    3     -1.37      1.80
   17   25    3      0.12      0.38
   16   26    3     -1.51      2.32
  -19   27    3     -2.99     -3.47
  -17   27    3     -2.03     -2.43
   13   27    3     -2.03     -0.14
   15   27    3      0.37      1.59
   17   27    3      0.09      2.10
  -18   28    3      0.64     -0.78
  -16   28    3      0.75      2.50
   14   28    3     -1.02     -0.36
   16   28    3     -0.50     -1.34
  -17   29    3     -1.95     -0.70
  -15   29    3     -1.08     -0.95
   13   29    3      0.51      2.49
   15   29    3      0.35      0.17
  -14   30    3      3.53      1.45
   12   30    3      1.46      1.57
  -13   31    3     -0.30     -0.11
   11   31    3     -2.89      0.45
  -12   32    3      0.32     -1.25
   10   32    3      1.16     -2.17
  -11   33    3      1.35      1.37
   -3   33    3      1.28     -2.32
   -1   33    3     -0.68     -1.68
    9   33    3      0.53      0.11
   -8   34    3     -0.88      0.81
   -6   34    3     -0.22      0.38
   -4   34    3     -0.20      1.28
   -2   34    3      0.62     -0.04
   -5   35    3      0.91      1.58
   -3   35    3      0.05      1.86
   -1   35    3     -1.35      0.34
    1   35    3     -1.71      1.14
    3   35    3      0.94      1.06
  -28    0    4     -3.33      0.56
  -28    2    4      1.96     -0.30
   25    3    4      0.22     -0.18
   25    5    4      0.27     -1.47
  -28    6    4      2.38      1.81
  -27    7    4      1.18      2.23
   25    7    4     -1.07      1.54
   24    8    4     -0.76     -1.43
  -27    9    4      1.77     -1.67
   23    9    4     -0.32     -0.36
  -26   10    4     -0.41     -0.40
   24   10    4      0.58      1.25
  -27   11    4      0.41     -1.51
   23   11    4     -0.64      0.40
  -26   12    4     -1.17     -1.04
   24   12    4     -0.07     -0.26
   23   13    4      0.86     -1.02
  -26   14    4     -2.16      1.36
  -25   15    4      1.14      1.31
   23   15    4     -1.92      2.03
  -25   17    4      0.68     -0.04
   21   19    4     -1.04     -0.13
   20   20    4     -2.25     -1.29
  -23   21    4      0.98      0.21
   19   21    4      0.03     -0.16
  -22   22    4      2.57      1.13
  -21   23    4     -2.40      2.91
   19   23    4      0.89      3.83
  -20   24    4     -1.36     -0.89
   18   24    4     -0.83      0.84
  -19   25    4     -1.99      2.16
   17   25    4     -0.55      0.16
  -18   26    4      1.28      1.04
  -16   26    4      1.83     -2.23
   14   26    4      4.15     -2.79
   16   26    4      1.47      0.24
  -17   27    4      1.27      1.62
  -15   27    4     -0.13     -1.45
   13   27    4     -1.81      3.32
   15   27    4      1.45      3.04
  -16   28    4      0.24     -0.05
  -14   28    4     -2.38     -1.18
   12   28    4     -1.11     -3.25
   14   28    4     -0.85     -1.14
  -15   29    4     -2.03      1.66
  -13   29    4     -1.45      1.83
   11   29    4      0.12      2.33
   13   29    4     -2.32     -0.22
  -14   30    4      0.56      0.98
  -12   30    4     -1.31      0.06
   10   30    4      0.53      0.67
   12   30    4      1.54      2.49
  -13   31    4     -1.15     -0.17
  -11   31    4     -1.00      0.91
    9   31    4      0.88     -0.21
   11   31    4     -1.82     -0.55
  -12   32    4      1.23      1.11
  -10   32    4     -0.53     -0.02
   -2   32    4     -1.84     -0.89
    8   32    4      0.51      0.31
   -9   33    4     -0.75      1.58
   -5   33    4      0.07     -0.04
   -3   33    4      0.38     -0.78
   -1   33    4      0.03      0.29
    7   33    4      0.47     -0.63
   -6   34    4      0.47      0.79
   -4   34    4     -0.09      0.29
   -2   34    4      0.64     -0.44
    2   34    4      1.77     -1.75
    4   34    4      0.59     -1.72
  -28    0    5     -0.69      0.30
   24    0    5      0.90     -0.08
  -27    1    5     -0.26      0.02
  -28    2    5      1.42      0.65
   23    3    5      1.04     -2.12
   24    4    5      2.20      1.07
   24    6    5     -0.74     -0.53
  -27    7    5      0.61     -1.09
   23    7    5      0.49     -2.47
  -26    8    5     -0.63      0.79
   24    8    5      1.27     -1.20
  -27    9    5     -1.18      0.91
   23    9    5     -0.38      2.42
  -26   10    5     -2.16      0.00
  -25   11    5      2.33     -0.74
   23   11    5      0.03      0.30
  -26   12    5      0.70      0.22
  -24   12    5      0.20      0.61
   22   14    5      3.13      1.68
  -25   15    5      0.23     -0.68
   21   17    5      2.02     -3.55
  -24   18    5     -1.87      0.41
   20   18    5      3.25     -1.75
  -23   19    5     -0.66     -2.80
   19   19    5      0.00      1.72
   18   20    5      1.12     -1.78
   19   21    5     -0.55     -0.11
   18   22    5      0.54     -0.95
  -21   23    5     -2.40      4.69
   17   23    5     -0.89     -0.67
  -20   24    5     -2.67     -0.01
   16   24    5      0.13     -1.17
  -19   25    5     -0.83      1.19
  -17   25    5     -0.44     -1.14
  -18   26    5      2.21      1.49
  -16   26    5      1.47     -0.33
   14   26    5      1.60     -0.18
  -17   27    5     -1.81      0.67
  -15   27    5     -2.53     -1.24
   11   27    5     -0.73     -2.50
   13   27    5     -0.70      0.04
  -16   28    5     -0.29      1.02
  -14   28    5      2.11      0.00
   10   28    5      2.54     -0.36
   12   28    5     -1.78     -1.55
  -15   29    5      1.75      1.12
  -13   29    5      2.52     -1.03
    9   29    5      0.36      1.27
   11   29    5      0.68      0.69
  -12   30    5     -0.92     -0.98
    8   30    5     -1.28      1.76
   10   30    5     -3.09     -0.95
  -11   31    5     -1.56      0.02
   -1   31    5      0.01     -0.40
    5   31    5      2.92     -0.05
    7   31    5      2.78      0.55
  -10   32    5     -2.28     -0.57
   -4   32    5     -0.38      2.15
   -2   32    5     -0.80      0.27
    6   32    5     -0.45     -2.37
   -7   33    5      1.46     -0.23
   -5   33    5      1.00      0.32
   -3   33    5     -0.36     -1.46
   -1   33    5     -0.98     -0.24
    1   33    5      0.26      2.04
    3   33    5     -1.11      1.85
  -27    1    6      2.16      0.07
  -27    3    6      0.72     -1.48
   23    3    6      0.40     -1.88
  -27    5    6     -0.42      1.25
   23    5    6      0.23      2.11
  -26    6    6     -2.44     -0.26
   22    6    6      0.81     -0.98
  -26    8    6     -0.24      2.25
   22    8    6     -0.13     -1.37
  -25    9    6      0.93     -1.75
  -26   10    6     -0.85      0.40
   22   10    6      0.07     -1.04
  -25   11    6      2.13      1.16
  -24   12    6     -3.24      2.27
  -25   13    6      1.25     -1.40
  -23   13    6      4.93     -0.29
   21   13    6     -4.09      1.21
  -24   16    6     -1.27      0.04
   20   16    6      1.83      3.31
  -23   17    6     -0.07      0.08
   19   17    6      0.19      3.17
  -22   18    6     -0.74     -0.35
   18   18    6      0.48     -0.24
   17   19    6     -0.12      1.13
  -22   20    6     -1.24      0.60
   16   20    6      0.86     -0.56
   18   20    6      0.93     -0.87
  -21   21    6      1.05     -1.49
   17   21    6      0.73      0.99
   16   22    6      0.51      0.25
   15   23    6      0.32     -0.94
  -18   24    6      0.03      1.61
   14   24    6     -2.59     -1.24
  -17   25    6      1.52     -0.16
  -16   26    6      0.46     -1.23
  -14   26    6     -2.35      0.19
   12   26    6     -2.65     -1.25
  -15   27    6     -1.24      0.14
  -13   27    6     -0.64     -2.73
    9   27    6     -3.05      3.64
   11   27    6     -0.72      0.53
  -14   28    6      0.26     -0.92
  -12   28    6      0.89     -1.24
    8   28    6     -0.22     -2.50
   10   28    6      2.73      0.38
  -13   29    6     -1.80     -0.08
  -11   29    6     -2.40     -0.49
    7   29    6     -0.02      1.62
    9   29    6      1.95      2.00
  -12   30    6     -2.36     -0.20
  -10   30    6     -1.83     -2.18
    6   30    6      1.13      1.05
    8   30    6      1.17      1.67
   -9   31    6      0.86     -0.37
   -3   31    6      1.82     -1.77
   -1   31    6      0.18     -1.26
    1   31    6      0.38      0.65
    5   31    6      3.06     -0.97
   -6   32    6     -1.35     -0.05
   -4   32    6      0.32     -0.66
   -2   32    6      0.55      1.13
    0   32    6      0.56      2.54
    2   32    6      1.63      2.30
  -26    0    7      2.45     -0.60
   22    0    7     -1.45      0.45
  -26    2    7     -0.74     -0.14
   22    2    7      2.68     -1.09
   21    3    7      1.41     -1.95
  -26    4    7     -0.05      0.19
  -25    5    7     -0.49     -0.55
   21    5    7     -1.56     -1.05
  -26    6    7     -3.20     -1.06
   20    6    7     -4.93      0.61
  -25    7    7      3.18     -0.17
   21    7    7     -2.58      1.27
  -24    8    7     -2.96     -0.17
  -25    9    7     -0.38     -1.13
   21    9    7      1.65      3.49
  -24   10    7     -0.37     -0.06
  -25   11    7     -1.47     -0.97
  -24   12    7     -0.90      1.26
   20   12    7      2.10     -1.53
  -23   13    7      0.25     -0.12
   19   13    7      0.75      0.19
  -24   14    7      0.09     -0.13
  -23   15    7     -0.11     -0.84
   19   15    7      1.04     -1.29
   18   16    7      1.15      0.49
   17   17    7     -0.86      1.29
   16   18    7     -1.67     -1.32
  -21   19    7     -3.26      0.44
   15   19    7      1.43     -0.86
   17   19    7      0.72     -1.47
  -20   20    7     -1.43     -1.29
   14   20    7     -0.54      0.45
   16   20    7      1.89      0.59
   13   21    7      4.52     -0.28
   15   21    7      0.90     -0.34
  -18   22    7     -3.85      1.04
   14   22    7      1.36      0.72
   13   23    7      1.10     -2.06
  -16   24    7     -1.41      0.52
   12   24    7      0.49     -1.18
  -15   25    7     -1.09     -0.78
  -14   26    7      1.43      1.05
   10   26    7     -3.71      0.04
  -13   27    7      2.77     -1.21
  -11   27    7      3.46     -0.26
    7   27    7     -0.28     -2.14
    9   27    7     -1.34     -0.66
  -12   28    7      1.89     -0.66
  -10   28    7      4.07      1.06
   -8   28    7      0.03     -0.26
    4   28    7     -2.84     -0.42
    6   28    7     -3.62     -1.46
    8   28    7     -1.84      1.06
  -11   29    7     -0.43      0.45
   -9   29    7      0.85      1.21
   -7   29    7     -1.13      0.58
   -1   29    7      3.25     -2.40
    5   29    7     -1.22     -0.50
   -8   30    7      0.13      2.05
   -6   30    7      0.79      1.47
   -2   30    7     -0.06     -1.99
    0   30    7     -0.10     -0.27
    4   30    7      0.67      0.16
   -5   31    7      0.00     -2.44
   -3   31    7     -1.80     -2.91
   -1   31    7     -0.75     -2.04
   20    0    8     -1.27      0.16
  -25    1    8      0.70     -0.06
  -25    3    8     -1.35      0.47
  -24    4    8      0.86      1.09
   18    4    8     -0.41     -1.13
   20    4    8     -0.75     -1.00
  -25    5    8      1.14      1.11
   19    5    8      0.06     -2.78
  -24    6    8      2.18     -1.50
  -25    7    8      0.58     -1.33
   19    7    8      0.04      1.72
  -24    8    8     -2.90      0.31
   18    8    8     -0.01     -0.13
   19    9    8      1.45     -2.42
  -24   10    8      0.24      0.65
   18   10    8      1.18     -1.25
   17   11    8     -0.12     -2.57
   18   12    8     -3.16     -0.41
  -23   13    8     -1.60     -0.16
   17   13    8     -1.38     -0.29
  -22   14    8     -1.96     -0.87
   17   15    8      0.85     -0.21
  -22   16    8      1.42      0.84
   16   16    8     -0.35      1.48
   13   17    8     -0.39      1.72
   15   17    8      2.00      2.30
   12   18    8     -4.21      0.52
   14   18    8     -0.66      1.53
  -19   19    8     -1.21      2.90
   13   19    8      2.51     -1.36
  -18   20    8     -0.50     -3.04
   12   20    8      0.92      2.00
   14   20    8      0.52     -1.08
  -17   21    8      1.81     -0.33
   11   21    8      0.95      3.24
   13   21    8     -0.48     -0.38
   10   22    8      3.53      1.89
   12   22    8     -0.46      0.18
  -17   23    8     -1.78     -0.58
   11   23    8      4.40     -2.25
  -16   24    8     -1.63      0.08
   10   24    8      0.09     -0.07
    9   25    8     -0.67     -1.62
  -12   26    8     -0.16      0.56
    8   26    8     -0.34     -3.11
  -11   27    8      2.08      0.17
   -9   27    8      0.33     -1.83
   -7   27    8      0.39      0.25
    5   27    8     -0.18     -0.96
   -8   28    8     -2.65      0.11
   -6   28    8     -1.79      0.23
   -2   28    8     -1.20      1.34
    2   28    8     -2.61      0.50
    4   28    8     -1.67      0.66
   -5   29    8      0.79     -0.97
   -3   29    8      2.35     -0.34
   -1   29    8      1.31     -2.08
    1   29    8      1.22     -2.01
  -24    0    9     -1.27     -0.51
   16    0    9     -2.99     -0.05
   18    0    9     -0.59     -0.55
   17    1    9     -2.55      2.46
  -24    2    9     -0.29      1.36
   18    2    9     -1.12      2.59
  -24    4    9      2.34      0.90
   18    4    9      0.90     -0.19
  -23    5    9     -0.70      2.04
  -23    7    9      1.62     -0.88
   17    7    9      1.67      0.33
  -23    9    9      1.10     -0.42
   17    9    9      0.34     -2.72
  -22   10    9     -2.29     -1.79
   16   10    9      0.55     -1.39
  -21   11    9     -1.49     -3.14
   15   11    9      0.78     -2.79
  -22   12    9     -0.88     -1.20
   16   12    9     -2.20      0.20
  -21   13    9      0.39      3.64
   15   13    9      0.19      1.22
  -20   14    9     -0.34      0.75
   13   15    9     -1.68     -2.35
  -20   16    9      1.18     -1.33
   12   16    9     -2.55     -1.75
   14   16    9     -0.16      1.77
   11   17    9     -1.62     -0.07
   13   17    9     -1.07      4.63
  -18   18    9      2.30      2.46
   10   18    9     -0.12      0.37
   12   18    9     -1.12      3.00
  -17   19    9     -1.74      0.01
    9   19    9     -3.56     -0.58
   11   19    9     -0.20      2.57
  -16   20    9      1.43     -0.88
    8   20    9     -1.38     -0.01
   10   20    9     -2.10     -0.18
  -15   21    9      1.29     -1.00
    7   21    9     -0.39      0.63
    9   21    9      1.95      1.97
  -14   22    9      0.79     -1.37
    8   22    9     -0.23      1.33
  -13   23    9      3.86     -2.69
    7   23    9      0.69      0.69
  -12   24    9      0.00     -0.27
    6   24    9      0.41      2.21
  -11   25    9     -0.74     -3.19
   -7   25    9      0.13      1.06
    5   25    9      0.41     -0.67
   -8   26    9     -0.39      1.10
    2   26    9     -0.29      0.05
   -5   27    9     -0.51      1.98
   -3   27    9      0.61      0.21
   -1   27    9      2.21     -0.51
  -22    0   10      0.09      0.20
   12    0   10      0.24     -0.32
   14    0   10     -0.38     -0.13
   13    1   10     -0.78      1.62
   15    1   10      0.61      1.03
  -22    2   10      0.94      1.23
   14    2   10     -0.83     -0.30
   13    3   10     -1.41      0.02
   15    3   10     -0.63     -0.84
  -22    4   10      0.64      0.22
   15    5   10      0.72      1.48
  -22    6   10     -0.13      0.37
  -21    7   10     -0.18     -1.11
   15    7   10      2.73     -1.93
  -20    8   10     -1.21      0.77
  -21    9   10      0.46      1.32
  -20   10   10     -0.02      0.23
   14   10   10     -0.36     -0.11
  -19   11   10      2.78      0.87
   13   11   10      0.17      1.86
  -20   12   10     -0.41     -0.34
  -19   13   10      1.29     -1.81
   13   13   10      0.90     -1.18
  -18   14   10      1.45     -0.68
   12   14   10      1.73     -0.30
   11   15   10      1.43     -0.54
  -18   16   10     -2.29     -1.42
   10   16   10     -0.54      0.09
  -17   17   10      1.69     -1.52
    9   17   10      0.28     -1.17
  -16   18   10     -1.94     -0.83
    8   18   10      0.58     -0.65
  -15   19   10     -0.30     -3.17
    7   19   10     -0.34      0.34
  -14   20   10      0.05     -0.07
    6   20   10      0.81     -0.48
  -13   21   10     -2.33     -0.27
  -11   21   10     -0.76     -0.95
   -9   21   10     -0.45     -2.05
    5   21   10      0.67     -0.24
  -12   22   10     -1.04      1.65
  -10   22   10      2.30      0.56
   -8   22   10      1.11     -2.73
   -6   22   10     -1.82     -0.07
    4   22   10     -0.93      1.08
   -9   23   10      1.20     -1.02
   -7   23   10      0.12      0.32
   -1   23   10      0.14     -0.58
    3   23   10     -0.31      1.00
   -6   24   10     -1.43      1.23
   -2   24   10     -1.05      0.18
    0   24   10     -0.03      0.65
  -20    0   11     -0.48     -0.35
  -18    0   11      1.38     -0.28
  -16    0   11      3.35      0.67
    8    0   11      1.49     -0.03
   10    0   11     -0.99      0.12
   12    0   11      0.09      0.23
  -19    1   11      1.41     -3.39
  -17    1   11      0.42     -0.42
    9    1   11     -1.32     -0.21
   11    1   11     -1.84      0.51
  -20    2   11      1.32     -0.65
  -18    2   11      1.09     -0.60
   10    2   11      2.64      1.26
   12    2   11      0.20      0.98
  -19    3   11      1.80      0.04
  -17    3   11      1.69     -2.25
    9    3   11     -2.19      0.41
   11    3   11      1.06      0.62
  -20    4   11     -0.60     -0.09
  -18    4   11     -0.92      0.63
   10    4   11     -0.03      0.00
   12    4   11      0.34      0.03
  -19    5   11     -2.16     -3.00
    9    5   11      0.11     -1.88
   11    5   11     -0.87     -1.49
  -18    6   11      0.13     -1.14
   10    6   11      0.69     -2.09
   12    6   11      0.16     -1.81
  -19    7   11      0.49      0.27
   11    7   11     -0.32      0.48
  -18    8   11     -0.75      1.67
   11    9   11     -1.91     -0.28
  -18   10   11     -2.39      0.55
  -17   11   11      0.40     -1.11
  -16   12   11     -1.28     -1.28
   10   12   11     -1.19      2.15
    9   13   11     -0.04     -0.01
  -16   14   11     -1.51      0.61
    8   14   11      0.32     -0.51
    7   15   11      1.50     -0.35
  -14   16   11     -1.53      0.18
    6   16   11      0.06      1.14
  -13   17   11     -0.25     -1.25
   -7   17   11     -3.25     -0.95
   -5   17   11     -0.96     -2.51
    1   17   11      0.93     -1.25
    3   17   11      0.42     -0.82
    5   17   11      0.04     -1.34
  -12   18   11      0.31      1.64
   -8   18   11     -2.56      2.84
   -6   18   11     -0.82      2.77
   -4   18   11      0.88      2.08
   -2   18   11     -0.05      0.07
    0   18   11      1.94      0.86
    2   18   11      2.33      4.24
    4   18   11     -0.73      0.91
  -11   19   11     -0.63     -0.02
   -7   19   11     -0.13     -0.35
   -5   19   11      0.31     -0.48
   -3   19   11      0.21     -2.51
   -1   19   11     -0.38     -1.10
    1   19   11      0.43      0.67
    3   19   11     -0.12      0.77
   -8   20   11      0.54      1.34
   -6   20   11     -0.33     -0.12
   -4   20   11     -2.00     -0.45
   -2   20   11     -1.74      0.21
    0   20   11     -1.23     -0.33
    2   20   11      0.23     -1.42
   -5   21   11      0.14     -1.55
   -3   21   11     -0.26      0.88
   -1   21   11     -0.16      0.24
  -16    0   12     -0.26      0.24
  -14    0   12     -1.42     -0.28
  -12    0   12     -2.98     -1.05
  -10    0   12     -1.96     -0.05
    6    0   12     -0.18      0.50
    8    0   12      0.44      0.73
  -17    1   12     -0.05      0.25
  -15    1   12      1.10     -1.02
  -13    1   12      0.22     -1.66
  -11    1   12     -1.82      0.86
    7    1   12      0.18     -0.40
    9    1   12     -0.44      0.23
  -16    2   12      0.33     -1.03
  -14    2   12      0.93     -0.40
  -12    2   12     -0.63      2.95
    8    2   12      0.52      1.02
  -17    3   12      0.41     -0.70
  -15    3   12     -1.46     -0.77
  -13    3   12     -3.20      1.38
  -11    3   12     -0.77      0.11
    7    3   12     -1.00     -0.53
    9    3   12     -0.40     -0.38
  -16    4   12      0.19      1.37
  -14    4   12     -2.63      0.52
  -12    4   12     -1.05      1.22
    8    4   12      0.60      0.62
  -15    5   12      0.03     -0.95
  -13    5   12      2.27     -0.81
  -11    5   12      0.55      0.97
    7    5   12     -0.05      0.15
  -16    6   12     -0.30      0.79
  -14    6   12      1.40      3.10
  -12    6   12      0.02      3.18
    6    6   12      1.03     -0.46
    8    6   12      1.98     -0.27
  -15    7   12      1.22     -0.53
  -13    7   12      2.27      0.37
    5    7   12     -1.54     -0.86
    7    7   12     -0.73     -1.55
  -14    8   12     -1.80     -0.02
  -12    8   12      0.61      0.99
    4    8   12     -0.29     -0.79
    6    8   12     -0.75      0.34
  -15    9   12      0.51     -0.58
  -13    9   12      0.73     -1.85
    5    9   12     -0.94     -2.34
    7    9   12     -1.24     -0.63
  -14   10   12      0.60     -0.18
  -12   10   12      0.51     -2.02
  -10   10   12     -1.08     -2.41
    4   10   12     -0.74     -0.05
    6   10   12     -0.54      0.95
  -13   11   12      1.06     -0.86
    5   11   12     -2.00      1.95
  -12   12   12     -0.84     -0.23
  -11   13   12     -2.10      0.15
    0   14   12      0.05      0.12
    2   14   12      0.67      0.33
   -9   15   12      0.46     -1.00
   -7   15   12     -0.58     -0.16
   -5   15   12     -0.58     -1.72
   -3   15   12     -0.22     -0.23
    1   15   12      0.03     -0.84
   -8   16   12     -0.42      0.04
   -6   16   12     -0.45      0.99
   -4   16   12     -2.79      1.41
   -2   16   12     -1.52      1.03
    0   16   12     -1.19     -0.50
   -5   17   12     -0.36      0.77
   -3   17   12      0.39      0.03
  -12    0   13     -2.11     -0.14
  -10    0   13     -0.31      0.51
   -8    0   13      2.07      0.36
   -6    0   13      1.25     -0.23
   -4    0   13      3.53      0.38
   -2    0   13     -0.69      0.72
    0    0   13     -1.74     -0.68
    2    0   13     -4.56     -0.65
  -11    1   13      0.08      0.74
   -9    1   13     -0.03      1.28
   -7    1   13     -0.36     -2.48
   -5    1   13     -0.04     -1.89
   -3    1   13      0.49     -2.68
   -1    1   13     -2.30     -0.26
    1    1   13     -2.86     -1.59
    3    1   13     -1.01     -0.81
  -12    2   13     -0.11      1.18
  -10    2   13     -1.41      0.04
   -8    2   13     -1.46     -0.84
   -6    2   13      1.94     -0.73
   -4    2   13      0.73     -0.69
    2    2   13      1.14      2.01
  -11    3   13      2.30      0.38
   -9    3   13      1.18     -0.74
   -7    3   13      0.43      0.23
   -5    3   13      0.61     -2.43
    3    3   13      1.14      1.14
  -12    4   13     -0.57     -1.10
  -10    4   13      0.54      0.76
   -8    4   13     -0.65      1.59
   -6    4   13     -2.88     -0.64
   -4    4   13     -2.51     -0.26
  -11    5   13     -0.58     -0.80
   -9    5   13     -0.17      0.67
   -7    5   13     -0.34     -1.40
   -5    5   13     -0.43      0.24
    1    5   13      2.31      0.62
  -10    6   13     -1.13     -1.12
   -8    6   13      0.33     -0.52
   -6    6   13     -1.07      0.61
   -4    6   13     -0.66      0.06
    0    6   13     -0.68     -2.80
    2    6   13     -0.38     -1.01
   -9    7   13      0.91     -0.73
   -7    7   13     -0.48      1.59
   -5    7   13     -0.73      0.28
   -3    7   13      0.11     -0.57
   -1    7   13      0.93      0.24
    1    7   13      1.68      0.05
   -8    8   13     -0.68      0.72
   -6    8   13      0.36      0.92
   -4    8   13      0.78     -0.97
   -2    8   13     -1.19      0.24
    0    8   13     -0.21     -0.71
   -7    9   13      0.09     -1.14
   -5    9   13     -0.32      0.22
   -3    9   13     -1.71      0.25
   -1    9   13     -1.31     -0.36
   -6   10   13      0.87      0.33
   -4   10   13     -0.46      0.71
   -2   10   13      0.57     -0.02
    0    0    0      0.00      0.00
# SQUEEZE RESULTS (Version = 270519)
# Note: Data are Listed for all Voids in the P1 Unit Cell
# i.e. Centre of Gravity, Solvent Accessible Volume,
# Recovered number of Electrons in the Void and
# Details about the Squeezed Material
loop_
  _platon_squeeze_void_nr
  _platon_squeeze_void_average_x
  _platon_squeeze_void_average_y
  _platon_squeeze_void_average_z
  _platon_squeeze_void_volume
  _platon_squeeze_void_count_electrons
  _platon_squeeze_void_content
   1  0.002 -0.158 -0.010       954       240 ' '
   2  0.004  0.342 -0.011       954       240 ' '
   3  0.500  0.099  0.500        31        27 ' '
   4  1.000  0.599  0.500        31        27 ' '
# Missing Reflections Below sin(th)/lambda = 0.25
loop_
  _platon_missing_refln_index_h
  _platon_missing_refln_index_k
  _platon_missing_refln_index_l
  _platon_missing_refln_theta
    1    1    0     1.278
    0    2    0     1.574
    2    2    0     2.556
    1    3    0     2.567
    0    0    1     2.137
_platon_squeeze_void_probe_radius                  1.20
_platon_squeeze_details
)
TITL 20180205E2-1_c   C 2          R = 0.13
CELL   20.4932   25.8736    9.6520     90.00     99.11     90.00
SPGR C2
# Solvent Accessible Volume =      1964
# Electrons Found in S.A.V. =       528
# Note: Atoms in Void are Labelled as Cxxx and Qxxx for all Others
C101 0.500 0.047-0.001 !       5.53 eA-3
C102 0.483 0.108 0.471 !       4.86 eA-3
C103 0.793 0.223 0.026 !       4.80 eA-3
Q104 0.560 0.137 0.536 !       4.41 eA-3
C105 0.519 0.018 0.843 !       3.55 eA-3
C106 0.096 0.236 0.967 !       3.33 eA-3
C107 0.558 0.034 0.034 !       3.13 eA-3
C108 0.019 0.218 0.381 !       2.96 eA-3
C109 0.239 0.253 0.875 !       2.92 eA-3
C110 0.542 0.436 0.398 !       2.87 eA-3
C111 0.620 0.413 0.538 !       2.55 eA-3
C112 0.590 0.422 0.457 !       2.52 eA-3
C113 0.909 0.219 0.618 !       2.19 eA-3
C114 0.976 0.467 0.280 !       2.17 eA-3
C115 0.875 0.240 0.194 !       2.13 eA-3
Q116 0.346 0.427 0.523 !       2.04 eA-3
C117 0.390 0.327 0.878 !       2.01 eA-3
C118 0.886 0.259 0.051 !       1.96 eA-3
Q119 0.425 0.254 0.839 !       1.88 eA-3
Q120 0.573 0.291 0.198 !       1.69 eA-3
Q121 0.619 0.322 0.000 !       1.69 eA-3
Q122 0.299 0.039 0.128 !       1.65 eA-3
C123 0.020 0.205 0.977 !       1.59 eA-3
Q124 0.309 0.052 0.092 !       1.57 eA-3
C125 1.002 0.353 0.784 !       1.54 eA-3
C126 0.999 0.382-0.003 !       1.43 eA-3
C127 0.298 0.301 0.900 !       1.41 eA-3
C128 0.986 0.277 0.850 !       1.40 eA-3
C129 0.648 0.328 0.195 !       1.40 eA-3
C130 0.411 0.320 0.846 !       1.38 eA-3
C131 0.441 0.431 0.284 !       1.36 eA-3
C132 0.531 0.406 0.947 !       1.36 eA-3
Q133 0.706 0.116 0.371 !       1.32 eA-3
Q134 0.657 0.319 0.058 !       1.27 eA-3
C135 0.419 0.388 0.656 !       1.27 eA-3
Q136 0.336 0.105 0.659 !       1.21 eA-3
C137 1.004 0.930 0.822 !       1.20 eA-3
C138 0.504 0.430 0.822 !       1.20 eA-3
C139 0.526 0.442 0.971 !       1.19 eA-3
Q140 0.342 0.034 0.134 !       1.16 eA-3
C141 0.510 0.432 0.876 !       1.15 eA-3
C142 0.571 0.457 0.934 !       1.12 eA-3
C143 0.558 0.440 0.869 !       1.11 eA-3
Q144 0.082 0.477 0.035 !       1.11 eA-3
C145 0.591 0.353 0.121 !       1.10 eA-3
Q146 0.671 0.252 0.003 !       1.09 eA-3
C147 0.031 0.257 0.190 !       1.08 eA-3
Q148 0.306 0.438 0.532 !       1.07 eA-3
Q149 0.582 0.267 0.059 !       1.06 eA-3
C150 0.077 0.272 0.220 !       1.06 eA-3
C151 0.995 0.374 0.123 !       1.04 eA-3
Q152 0.696 0.260 0.024 !       1.02 eA-3
C153 0.992 0.251 0.214 !       1.00 eA-3
C154 0.434 0.390 0.748 !       0.98 eA-3
C155 0.030 0.216 0.063 !       0.96 eA-3
Q156 0.363 0.037 0.693 !       0.96 eA-3
Q157 0.602 0.263 0.216 !       0.96 eA-3
C158 0.595 0.384 0.217 !       0.94 eA-3
C159 0.374 0.367 0.719 !       0.94 eA-3
C160 0.512 0.394 0.879 !       0.93 eA-3
Q161 0.905 0.313 0.617 !       0.92 eA-3
C162 1.000 0.187 0.499 !       0.90 eA-3
C163 0.024 0.295 0.308 !       0.90 eA-3
C164 0.972 0.304 0.874 !       0.89 eA-3
Q165 0.858 0.288 0.052 !       0.88 eA-3
C166 0.764 0.290 0.120 !       0.87 eA-3
Q167 0.919 0.292 0.176 !       0.85 eA-3
C168 0.377 0.399 0.719 !       0.84 eA-3
Q169 0.111 0.034 0.254 !       0.84 eA-3
Q170 0.875 0.192 0.632 !       0.83 eA-3
C171 0.091 0.304 0.225 !       0.82 eA-3
C172 0.963 0.346 0.134 !       0.82 eA-3
Q173 0.048 0.319 0.342 !       0.81 eA-3
Q174 0.444 0.268 0.819 !       0.81 eA-3
C175 0.471 0.406 0.836 !       0.80 eA-3
C176 0.046 0.336 0.193 !       0.78 eA-3
Q177 0.516 0.354 0.876 !       0.77 eA-3
Q178 0.298 0.340 0.780 !       0.77 eA-3
Q179 0.798 0.840 0.780 !       0.77 eA-3
C180 0.379 0.374 0.878 !       0.77 eA-3
Q181 0.087 0.068 0.189 !       0.76 eA-3
C182 0.477 0.414 0.947 !       0.76 eA-3
Q183 0.640 0.112 0.813 !       0.75 eA-3
Q184 0.927 0.307 0.720 !       0.75 eA-3
Q185 0.906 0.102 0.279 !       0.74 eA-3
Q186 0.453 0.337 0.778 !       0.74 eA-3
Q187 0.172 0.276 0.742 !       0.72 eA-3
C188 0.591 0.408 0.879 !       0.72 eA-3
Q189 0.598 0.348 0.928 !       0.71 eA-3
Q190 0.626 0.243 0.027 !       0.71 eA-3
C191 0.455 0.391-0.003 !       0.69 eA-3
Q192 0.689 0.174 0.874 !       0.69 eA-3
Q193 0.830 0.203 0.562 !       0.69 eA-3
Q194 0.459 0.444 0.373 !       0.68 eA-3
Q195 0.585 0.227 0.006 !       0.67 eA-3
Q196 0.921 0.422 0.496 !       0.67 eA-3
Q197 0.065 0.109 0.121 !       0.66 eA-3
Q198 0.984 0.093 0.248 !       0.65 eA-3
C199 0.598 0.417 0.758 !       0.64 eA-3
)
;
_shelx_fab_checksum              4275
loop_
_space_group_symop_operation_xyz
'x, y, z'
'-x, y, -z'
'x+1/2, y+1/2, z'
'-x+1/2, y+1/2, -z'
loop_
_atom_site_label
_atom_site_type_symbol
_atom_site_fract_x
_atom_site_fract_y
_atom_site_fract_z
_atom_site_U_iso_or_equiv
_atom_site_adp_type
_atom_site_occupancy
_atom_site_site_symmetry_order
_atom_site_calc_flag
_atom_site_refinement_flags_posn
_atom_site_refinement_flags_adp
_atom_site_refinement_flags_occupancy
_atom_site_disorder_assembly
_atom_site_disorder_group
Zn1 Zn 0.81038(4) 0.60673(3) 0.62467(6) 0.0550(3) Uani 1 1 d . U . . .
Zn2 Zn 0.814269 0.543674 0.128322 0.0562(3) Uani 1 1 d . U . . .
N1_1 N 0.8033(4) 0.4728(2) 0.0289(6) 0.0615(15) Uani 1 1 d . U . . .
C1_1 C 0.7596(5) 0.4682(3) -0.0873(8) 0.071(2) Uani 1 1 d . U . . .
H1_1 H 0.736797 0.497419 -0.124041 0.085 Uiso 1 1 calc R U . . .
N2_1 N 0.6998(3) 0.17576(19) -0.5183(6) 0.0519(13) Uani 1 1 d . U . . .
C2_1 C 0.7462(5) 0.4201(2) -0.1582(8) 0.0662(18) Uani 1 1 d . U . . .
H2_1 H 0.712091 0.417279 -0.233775 0.079 Uiso 1 1 calc R U . . .
C3_1 C 0.7825(5) 0.3804(3) -0.1153(8) 0.0641(18) Uani 1 1 d . U . . .
C4_1 C 0.8322(5) 0.3860(3) 0.0049(9) 0.076(2) Uani 1 1 d . U . . .
H4_1 H 0.860503 0.358527 0.032666 0.091 Uiso 1 1 calc R U . . .
C5_1 C 0.8388(5) 0.4294(3) 0.0775(9) 0.072(2) Uani 1 1 d . U . . .
H5_1 H 0.867547 0.430670 0.162263 0.086 Uiso 1 1 calc R U . . .
C6_1 C 0.7737(4) 0.3277(2) -0.1844(7) 0.0620(18) Uani 1 1 d . U . . .
H6_1 H 0.799866 0.300574 -0.144085 0.074 Uiso 1 1 calc R U . . .
C7_1 C 0.7309(4) 0.3183(3) -0.2985(8) 0.0642(18) Uani 1 1 d . U . . .
H7_1 H 0.704717 0.345939 -0.335395 0.077 Uiso 1 1 calc R U . . .
C8_1 C 0.7203(4) 0.2708(2) -0.3711(7) 0.0583(16) Uani 1 1 d . U . . .
C9_1 C 0.6788(5) 0.2685(3) -0.4971(8) 0.0716(19) Uani 1 1 d . U . . .
H9_1 H 0.658089 0.298101 -0.537330 0.086 Uiso 1 1 calc R U . . .
C10_1 C 0.6679(5) 0.2183(3) -0.5665(9) 0.069(2) Uani 1 1 d . U . . .
H10_1 H 0.637228 0.216170 -0.648289 0.083 Uiso 1 1 calc R U . . .
C11_1 C 0.7414(5) 0.1799(3) -0.3956(8) 0.0681(19) Uani 1 1 d . U . . .
H11_1 H 0.764405 0.150282 -0.362499 0.082 Uiso 1 1 calc R U . . .
C12_1 C 0.7524(4) 0.2215(3) -0.3189(8) 0.0655(18) Uani 1 1 d . U . . .
H12_1 H 0.779973 0.220327 -0.232676 0.079 Uiso 1 1 calc R U . . .
N1_2 N 0.7134(4) 0.5932(2) 0.6418(6) 0.0625(16) Uani 1 1 d . U . . .
C1_2 C 0.6789(5) 0.6264(3) 0.7070(8) 0.076(2) Uani 1 1 d . U . . .
H1_2 H 0.698612 0.657476 0.739206 0.091 Uiso 1 1 calc R U . . .
N2_2 N 0.2863(4) 0.5560(2) 0.8566(6) 0.0629(16) Uani 1 1 d . U . . .
C2_2 C 0.6161(5) 0.6167(3) 0.7283(8) 0.075(2) Uani 1 1 d . U . . .
H2_2 H 0.595279 0.641817 0.774736 0.090 Uiso 1 1 calc R U . . .
C3_2 C 0.5823(5) 0.5745(4) 0.6882(8) 0.075(2) Uani 1 1 d . U . . .
C4_2 C 0.6203(5) 0.5358(4) 0.6202(8) 0.075(2) Uani 1 1 d . U . . .
H4_2 H 0.603473 0.502975 0.596894 0.090 Uiso 1 1 calc R U . . .
C5_2 C 0.6784(5) 0.5498(4) 0.5946(9) 0.080(2) Uani 1 1 d . U . . .
H5_2 H 0.698406 0.527783 0.537693 0.096 Uiso 1 1 calc R U . . .
C6_2 C 0.5148(6) 0.5578(4) 0.7096(10) 0.091(3) Uani 1 1 d . U . . .
H6_2 H 0.496408 0.527145 0.671184 0.110 Uiso 1 1 calc R U . . .
C7_2 C 0.4825(5) 0.5877(4) 0.7838(9) 0.080(2) Uani 1 1 d . U . . .
H7_2 H 0.503622 0.617540 0.821298 0.096 Uiso 1 1 calc R U . . .
C8_2 C 0.4126(5) 0.5774(4) 0.8140(10) 0.082(2) Uani 1 1 d . U . . .
C9_2 C 0.3816(5) 0.6065(4) 0.8824(9) 0.077(2) Uani 1 1 d . U . . .
H9_2 H 0.403683 0.635386 0.923820 0.092 Uiso 1 1 calc R U . . .
C10_2 C 0.3179(5) 0.5997(4) 0.9017(8) 0.070(2) Uani 1 1 d . U . . .
H10_2 H 0.296437 0.625056 0.945680 0.084 Uiso 1 1 calc R U . . .
C11_2 C 0.3167(4) 0.5205(3) 0.7916(8) 0.0676(19) Uani 1 1 d . U . . .
H11_2 H 0.293616 0.490486 0.762314 0.081 Uiso 1 1 calc R U . . .
C12_2 C 0.3820(5) 0.5255(4) 0.7638(10) 0.081(2) Uani 1 1 d . U . . .
H12A_2 H 0.403816 0.500197 0.720075 0.097 Uiso 1 1 calc R U . . .
O1_3 O 0.8006(3) 0.56496(18) 0.4299(5) 0.0648(15) Uani 1 1 d . U . . .
N1_3 N 0.8907(4) 0.5602(2) 0.6609(7) 0.084(2) Uani 1 1 d . U . . .
H1A_3 H 0.923245 0.565703 0.727327 0.101 Uiso 1 1 d R U . . .
C1_3 C 0.8888(5) 0.5174(3) 0.5660(7) 0.0736(19) Uani 1 1 d . U . . .
H1_3 H 0.933578 0.509250 0.549129 0.088 Uiso 1 1 calc R U . . .
O2_3 O 0.8570(3) 0.51043(18) 0.3161(5) 0.0627(13) Uani 1 1 d . U . . .
C2_3 C 0.8452(5) 0.5322(2) 0.4279(7) 0.0598(18) Uani 1 1 d . U . . .
C3_3 C 0.8590(6) 0.4706(3) 0.6312(9) 0.097(2) Uani 1 1 d . U . . .
H3A_3 H 0.886620 0.462196 0.719465 0.116 Uiso 1 1 calc R U . . .
H3AB_3 H 0.815684 0.479954 0.651521 0.116 Uiso 1 1 calc R U . . .
C4_3 C 0.8523(5) 0.4228(2) 0.5383(7) 0.117(3) Uani 1 1 d G U . . .
C5_3 C 0.9091(4) 0.3953(3) 0.5241(9) 0.135(3) Uani 1 1 d G U . . .
H5_3 H 0.949940 0.406261 0.571174 0.162 Uiso 1 1 calc R U . . .
C6_3 C 0.9051(5) 0.3516(3) 0.4397(10) 0.146(3) Uani 1 1 d G U . . .
H6_3 H 0.943118 0.333223 0.430184 0.175 Uiso 1 1 calc R U . . .
C7_3 C 0.8441(6) 0.3352(3) 0.3693(8) 0.140(3) Uani 1 1 d G U . . .
H7_3 H 0.841344 0.305968 0.312831 0.168 Uiso 1 1 calc R U . . .
C8_3 C 0.7872(4) 0.3627(3) 0.3835(9) 0.147(3) Uani 1 1 d G U . . .
H8_3 H 0.746390 0.351750 0.336469 0.177 Uiso 1 1 calc R U . . .
C9_3 C 0.7913(4) 0.4064(3) 0.4680(9) 0.126(3) Uani 1 1 d G U . . .
H9_3 H 0.753209 0.424788 0.477459 0.152 Uiso 1 1 calc R U . . .
O1_4 O 0.8370(3) 0.64591(17) 0.8113(4) 0.0590(12) Uani 1 1 d . U . . .
C1_4 C 0.8335(4) 0.6216(2) 0.9232(6) 0.0537(17) Uani 1 1 d . U . . .
N1_4 N 0.8750(4) 0.6081(3) 1.1718(5) 0.0747(17) Uani 1 1 d . U . . .
H1_4 H 0.904668 0.611149 1.244986 0.090 Uiso 1 1 d R U . . .
O2_4 O 0.8064(3) 0.57898(18) 0.9282(4) 0.0591(13) Uani 1 1 d . U . . .
C2_4 C 0.8608(4) 0.6483(2) 1.0608(6) 0.0565(16) Uani 1 1 d . U . . .
H2_4 H 0.826229 0.671009 1.085944 0.068 Uiso 1 1 calc R U . . .
C3_4 C 0.9205(5) 0.6811(3) 1.0496(7) 0.084(2) Uani 1 1 d D U . . .
H3A_4 H 0.912344 0.700023 0.961757 0.101 Uiso 0.868(6) 1 calc R U P A -1
H3B_4 H 0.957904 0.658462 1.045899 0.101 Uiso 0.868(6) 1 calc R U P A -1
H3C_4 H 0.938659 0.666676 0.971125 0.101 Uiso 0.132(6) 1 calc R U P A -2
H3D_4 H 0.951963 0.672703 1.132583 0.101 Uiso 0.132(6) 1 calc R U P A -2
C4_4 C 0.9399(5) 0.7209(3) 1.1725(7) 0.109(3) Uani 0.868(6) 1 d DG U P A -1
C5_4 C 0.9813(5) 0.7083(3) 1.2962(8) 0.121(3) Uani 0.868(6) 1 d DG U P A -1
H5_4 H 0.997756 0.674903 1.310063 0.146 Uiso 0.868(6) 1 calc R U P A -1
C6_4 C 0.9980(4) 0.7456(3) 1.3994(7) 0.120(3) Uani 0.868(6) 1 d DG U P A -1
H6_4 H 1.025717 0.737177 1.482164 0.144 Uiso 0.868(6) 1 calc R U P A -1
C7_4 C 0.9734(5) 0.7956(3) 1.3787(8) 0.125(3) Uani 0.868(6) 1 d DG U P A -1
H7_4 H 0.984620 0.820529 1.447689 0.149 Uiso 0.868(6) 1 calc R U P A -1
C8_4 C 0.9320(5) 0.8082(3) 1.2549(10) 0.126(3) Uani 0.868(6) 1 d DG U P A -1
H8_4 H 0.915563 0.841609 1.241113 0.151 Uiso 0.868(6) 1 calc R U P A -1
C9_4 C 0.9153(5) 0.7709(3) 1.1518(8) 0.117(3) Uani 0.868(6) 1 d DG U P A -1
H9_4 H 0.887601 0.779336 1.069010 0.140 Uiso 0.868(6) 1 calc R U P A -1
C4A_4 C 0.926682 0.742202 1.032524 0.113(4) Uani 0.132(6) 1 d D U P A -2
C5A_4 C 0.9869(17) 0.7653(16) 1.090(5) 0.120(4) Uani 0.132(6) 1 d D U P A -2
H5A_4 H 1.019298 0.745390 1.143829 0.144 Uiso 0.132(6) 1 calc R U P A -2
C6A_4 C 0.999(3) 0.8166(17) 1.069(7) 0.120(4) Uani 0.132(6) 1 d D U P A -2
H6A_4 H 1.041338 0.829048 1.097014 0.144 Uiso 0.132(6) 1 calc R U P A -2
C7A_4 C 0.950(3) 0.8515(17) 1.008(6) 0.121(5) Uani 0.132(6) 1 d D U P A -2
H7A_4 H 0.958109 0.886506 0.995804 0.146 Uiso 0.132(6) 1 calc R U P A -2
C8A_4 C 0.888(3) 0.8283(15) 0.967(6) 0.121(5) Uani 0.132(6) 1 d D U P A -2
H8A_4 H 0.851855 0.849540 0.940869 0.145 Uiso 0.132(6) 1 calc R U P A -2
C9A_4 C 0.879(2) 0.7748(14) 0.963(6) 0.121(5) Uani 0.132(6) 1 d D U P A -2
H9A_4 H 0.840222 0.760988 0.913039 0.145 Uiso 0.132(6) 1 calc R U P A -2
loop_
_atom_site_aniso_label
_atom_site_aniso_U_11
_atom_site_aniso_U_22
_atom_site_aniso_U_33
_atom_site_aniso_U_23
_atom_site_aniso_U_13
_atom_site_aniso_U_12
Zn1 0.1141(7) 0.0297(4) 0.0206(4) 0.0029(3) 0.0090(4) 0.0043(4)
Zn2 0.1207(8) 0.0280(4) 0.0213(4) -0.0025(3) 0.0158(4) -0.0096(4)
N1_1 0.115(4) 0.031(3) 0.036(3) -0.007(2) 0.006(3) -0.012(3)
C1_1 0.133(5) 0.034(3) 0.041(3) -0.009(3) 0.000(4) -0.001(3)
N2_1 0.102(4) 0.029(2) 0.029(2) -0.004(2) 0.020(3) -0.009(3)
C2_1 0.131(5) 0.025(3) 0.042(3) -0.007(2) 0.013(3) -0.014(3)
C3_1 0.116(4) 0.032(3) 0.043(3) -0.012(3) 0.011(3) -0.011(3)
C4_1 0.120(5) 0.034(3) 0.069(4) -0.014(3) -0.001(4) -0.007(3)
C5_1 0.119(5) 0.040(3) 0.053(4) -0.013(3) 0.007(4) -0.010(4)
C6_1 0.118(5) 0.027(3) 0.043(3) -0.014(2) 0.019(3) -0.008(3)
C7_1 0.116(5) 0.034(3) 0.042(3) -0.003(3) 0.010(3) -0.006(3)
C8_1 0.106(4) 0.034(3) 0.038(3) -0.009(2) 0.023(3) -0.013(3)
C9_1 0.115(5) 0.039(3) 0.056(4) -0.016(3) -0.003(4) -0.003(3)
C10_1 0.111(5) 0.044(3) 0.049(4) -0.012(3) 0.002(4) -0.003(3)
C11_1 0.123(5) 0.035(3) 0.042(3) -0.004(3) 0.001(4) -0.002(3)
C12_1 0.117(5) 0.041(3) 0.036(3) -0.003(3) 0.003(3) -0.006(3)
N1_2 0.114(4) 0.048(3) 0.026(3) -0.001(2) 0.014(3) -0.001(3)
C1_2 0.120(5) 0.065(4) 0.040(4) -0.009(3) 0.006(4) -0.004(4)
N2_2 0.099(4) 0.050(3) 0.039(3) 0.003(3) 0.010(3) 0.017(3)
C2_2 0.122(5) 0.063(4) 0.041(3) -0.018(3) 0.015(4) 0.005(4)
C3_2 0.113(5) 0.077(4) 0.033(3) -0.011(3) 0.000(3) -0.007(4)
C4_2 0.112(5) 0.063(4) 0.053(4) -0.016(3) 0.022(4) -0.013(4)
C5_2 0.133(6) 0.060(4) 0.047(4) -0.009(4) 0.016(4) -0.009(5)
C6_2 0.140(6) 0.070(5) 0.063(5) -0.017(4) 0.014(5) -0.012(5)
C7_2 0.117(5) 0.069(4) 0.052(4) -0.018(3) 0.005(4) -0.009(4)
C8_2 0.103(5) 0.087(5) 0.058(4) 0.005(4) 0.014(4) -0.004(4)
C9_2 0.102(5) 0.070(4) 0.058(4) -0.002(4) 0.012(4) 0.001(4)
C10_2 0.101(5) 0.065(4) 0.042(3) -0.001(3) 0.008(3) 0.002(4)
C11_2 0.103(5) 0.056(4) 0.046(4) -0.007(3) 0.020(4) 0.006(4)
C12_2 0.106(5) 0.080(5) 0.060(4) -0.008(4) 0.018(4) 0.016(4)
O1_3 0.135(4) 0.037(2) 0.022(2) 0.0025(18) 0.011(3) 0.013(3)
N1_3 0.146(5) 0.066(4) 0.033(3) -0.002(3) -0.003(3) 0.033(4)
C1_3 0.138(5) 0.051(3) 0.031(3) 0.002(3) 0.014(3) 0.019(4)
O2_3 0.124(4) 0.037(2) 0.027(2) -0.0026(17) 0.014(2) 0.002(2)
C2_3 0.127(5) 0.025(3) 0.029(3) 0.004(2) 0.018(3) 0.009(3)
C3_3 0.162(6) 0.065(4) 0.065(4) 0.038(4) 0.027(4) 0.014(5)
C4_3 0.191(7) 0.072(5) 0.091(5) 0.035(4) 0.035(5) 0.017(5)
C5_3 0.210(8) 0.080(5) 0.116(6) -0.003(5) 0.031(6) 0.015(6)
C6_3 0.210(8) 0.097(6) 0.131(7) 0.026(6) 0.029(7) 0.021(6)
C7_3 0.212(8) 0.094(6) 0.114(7) 0.021(5) 0.023(6) 0.011(6)
C8_3 0.217(8) 0.108(6) 0.118(7) 0.034(6) 0.029(7) -0.004(6)
C9_3 0.205(8) 0.077(5) 0.098(6) 0.026(5) 0.030(6) 0.007(6)
O1_4 0.124(4) 0.036(2) 0.0172(18) -0.0002(16) 0.012(2) -0.017(2)
C1_4 0.110(5) 0.033(3) 0.018(3) -0.003(2) 0.011(3) -0.009(3)
N1_4 0.126(4) 0.068(3) 0.023(2) 0.015(2) -0.008(3) -0.034(4)
O2_4 0.118(4) 0.036(2) 0.021(2) 0.0012(17) 0.003(2) -0.014(2)
C2_4 0.110(4) 0.039(3) 0.018(2) -0.001(2) 0.001(3) -0.022(3)
C3_4 0.134(5) 0.071(4) 0.042(3) 0.012(3) 0.000(4) -0.030(4)
C4_4 0.156(6) 0.092(5) 0.076(5) 0.001(4) 0.006(5) -0.007(5)
C5_4 0.166(7) 0.107(6) 0.083(5) -0.012(5) -0.004(5) -0.002(6)
C6_4 0.173(7) 0.091(5) 0.087(6) -0.010(5) -0.002(6) -0.015(6)
C7_4 0.175(7) 0.100(6) 0.094(6) -0.018(5) 0.006(6) -0.003(6)
C8_4 0.171(7) 0.097(5) 0.105(6) -0.010(5) 0.004(6) -0.006(5)
C9_4 0.164(6) 0.089(5) 0.092(5) 0.000(5) 0.005(5) -0.005(5)
C4A_4 0.159(7) 0.088(7) 0.087(7) 0.002(7) 0.002(7) -0.009(7)
C5A_4 0.165(7) 0.096(6) 0.092(7) -0.005(6) 0.001(6) -0.006(7)
C6A_4 0.165(8) 0.094(7) 0.096(8) -0.004(7) 0.002(7) -0.008(7)
C7A_4 0.166(10) 0.097(9) 0.094(9) -0.008(9) 0.001(9) -0.005(9)
C8A_4 0.165(9) 0.096(8) 0.096(8) -0.004(8) 0.001(8) -0.006(8)
C9A_4 0.166(9) 0.096(8) 0.095(8) -0.005(8) -0.001(8) -0.007(8)
loop_
_atom_type_symbol
_atom_type_description
_atom_type_scat_dispersion_real
_atom_type_scat_dispersion_imag
_atom_type_scat_source
C C 0.0033 0.0016 'International Tables Vol C Tables 4.2.6.8 and 6.1.1.4'
H H 0.0000 0.0000 'International Tables Vol C Tables 4.2.6.8 and 6.1.1.4'
N N 0.0061 0.0033 'International Tables Vol C Tables 4.2.6.8 and 6.1.1.4'
O O 0.0106 0.0060 'International Tables Vol C Tables 4.2.6.8 and 6.1.1.4'
Zn Zn 0.2839 1.4301 'International Tables Vol C Tables 4.2.6.8 and 6.1.1.4'
loop_
_geom_angle_atom_site_label_1
_geom_angle_atom_site_label_2
_geom_angle_atom_site_label_3
_geom_angle
_geom_angle_site_symmetry_1
_geom_angle_site_symmetry_3
N1_3 Zn1 N1_2 131.0(3) . .
N1_3 Zn1 N2_1 128.2(3) . 4_655
N1_2 Zn1 N2_1 99.6(2) . 4_655
N1_3 Zn1 O1_4 92.6(2) . .
N1_2 Zn1 O1_4 98.0(2) . .
N2_1 Zn1 O1_4 90.07(19) 4_655 .
N1_3 Zn1 O1_3 79.2(2) . .
N1_2 Zn1 O1_3 91.6(2) . .
N2_1 Zn1 O1_3 90.7(2) 4_655 .
O1_4 Zn1 O1_3 170.1(2) . .
N1_1 Zn2 O2_3 92.2(2) . .
N1_1 Zn2 N1_4 145.3(3) . 1_554
O2_3 Zn2 N1_4 90.0(2) . 1_554
N1_1 Zn2 N2_2 97.5(3) . 2_656
O2_3 Zn2 N2_2 106.5(2) . 2_656
N1_4 Zn2 N2_2 115.1(3) 1_554 2_656
N1_1 Zn2 O2_4 88.4(2) . 1_554
O2_3 Zn2 O2_4 159.6(2) . 1_554
N1_4 Zn2 O2_4 78.18(19) 1_554 1_554
N2_2 Zn2 O2_4 93.6(2) 2_656 1_554
C1_1 N1_1 C5_1 117.6(6) . .
C1_1 N1_1 Zn2 118.9(5) . .
C5_1 N1_1 Zn2 123.5(5) . .
N1_1 C1_1 C2_1 122.6(7) . .
N1_1 C1_1 H1_1 118.7 . .
C2_1 C1_1 H1_1 118.7 . .
C10_1 N2_1 C11_1 116.7(6) . .
C10_1 N2_1 Zn1 122.8(5) . 4_645
C11_1 N2_1 Zn1 120.5(5) . 4_645
C3_1 C2_1 C1_1 118.7(8) . .
C3_1 C2_1 H2_1 120.6 . .
C1_1 C2_1 H2_1 120.6 . .
C2_1 C3_1 C4_1 118.7(6) . .
C2_1 C3_1 C6_1 123.4(7) . .
C4_1 C3_1 C6_1 117.9(7) . .
C5_1 C4_1 C3_1 121.2(8) . .
C5_1 C4_1 H4_1 119.4 . .
C3_1 C4_1 H4_1 119.4 . .
C4_1 C5_1 N1_1 120.5(8) . .
C4_1 C5_1 H5_1 119.7 . .
N1_1 C5_1 H5_1 119.7 . .
C7_1 C6_1 C3_1 123.4(7) . .
C7_1 C6_1 H6_1 118.3 . .
C3_1 C6_1 H6_1 118.3 . .
C6_1 C7_1 C8_1 127.1(7) . .
C6_1 C7_1 H7_1 116.4 . .
C8_1 C7_1 H7_1 116.4 . .
C9_1 C8_1 C7_1 120.1(7) . .
C9_1 C8_1 C12_1 116.3(6) . .
C7_1 C8_1 C12_1 123.6(7) . .
C8_1 C9_1 C10_1 118.3(8) . .
C8_1 C9_1 H9_1 120.9 . .
C10_1 C9_1 H9_1 120.9 . .
N2_1 C10_1 C9_1 123.1(7) . .
N2_1 C10_1 H10_1 118.5 . .
C9_1 C10_1 H10_1 118.5 . .
C12_1 C11_1 N2_1 126.3(7) . .
C12_1 C11_1 H11_1 116.9 . .
N2_1 C11_1 H11_1 116.9 . .
C11_1 C12_1 C8_1 119.2(7) . .
C11_1 C12_1 H12_1 120.4 . .
C8_1 C12_1 H12_1 120.4 . .
C1_2 N1_2 C5_2 113.4(8) . .
C1_2 N1_2 Zn1 121.4(6) . .
C5_2 N1_2 Zn1 125.2(6) . .
N1_2 C1_2 C2_2 122.5(8) . .
N1_2 C1_2 H1_2 118.7 . .
C2_2 C1_2 H1_2 118.7 . .
C11_2 N2_2 C10_2 119.9(8) . .
C11_2 N2_2 Zn2 117.8(6) . 2_656
C10_2 N2_2 Zn2 122.1(6) . 2_656
C3_2 C2_2 C1_2 125.1(9) . .
C3_2 C2_2 H2_2 117.5 . .
C1_2 C2_2 H2_2 117.5 . .
C2_2 C3_2 C4_2 113.7(9) . .
C2_2 C3_2 C6_2 130.7(10) . .
C4_2 C3_2 C6_2 115.4(8) . .
C5_2 C4_2 C3_2 117.0(9) . .
C5_2 C4_2 H4_2 121.5 . .
C3_2 C4_2 H4_2 121.5 . .
C4_2 C5_2 N1_2 127.6(9) . .
C4_2 C5_2 H5_2 116.2 . .
N1_2 C5_2 H5_2 116.2 . .
C7_2 C6_2 C3_2 117.8(8) . .
C7_2 C6_2 H6_2 121.1 . .
C3_2 C6_2 H6_2 121.1 . .
C6_2 C7_2 C8_2 125.0(8) . .
C6_2 C7_2 H7_2 117.5 . .
C8_2 C7_2 H7_2 117.5 . .
C9_2 C8_2 C12_2 118.9(10) . .
C9_2 C8_2 C7_2 124.7(10) . .
C12_2 C8_2 C7_2 116.2(10) . .
C8_2 C9_2 C10_2 125.2(10) . .
C8_2 C9_2 H9_2 117.4 . .
C10_2 C9_2 H9_2 117.4 . .
N2_2 C10_2 C9_2 119.5(9) . .
N2_2 C10_2 H10_2 120.3 . .
C9_2 C10_2 H10_2 120.3 . .
N2_2 C11_2 C12_2 124.0(8) . .
N2_2 C11_2 H11_2 118.0 . .
C12_2 C11_2 H11_2 118.0 . .
C11_2 C12_2 C8_2 111.9(8) . .
C11_2 C12_2 H12A_2 124.0 . .
C8_2 C12_2 H12A_2 124.0 . .
C2_3 O1_3 Zn1 112.8(5) . .
C1_3 N1_3 Zn1 114.2(6) . .
C1_3 N1_3 H1A_3 122.8 . .
Zn1 N1_3 H1A_3 123.0 . .
N1_3 C1_3 C2_3 108.4(6) . .
N1_3 C1_3 C3_3 108.7(6) . .
C2_3 C1_3 C3_3 109.8(8) . .
N1_3 C1_3 H1_3 110.0 . .
C2_3 C1_3 H1_3 110.0 . .
C3_3 C1_3 H1_3 110.0 . .
C2_3 O2_3 Zn2 116.6(4) . .
O1_3 C2_3 O2_3 123.4(7) . .
O1_3 C2_3 C1_3 118.9(6) . .
O2_3 C2_3 C1_3 117.7(7) . .
C4_3 C3_3 C1_3 113.9(7) . .
C4_3 C3_3 H3A_3 108.8 . .
C1_3 C3_3 H3A_3 108.8 . .
C4_3 C3_3 H3AB_3 108.8 . .
C1_3 C3_3 H3AB_3 108.8 . .
H3A_3 C3_3 H3AB_3 107.7 . .
C5_3 C4_3 C9_3 120.0 . .
C5_3 C4_3 C3_3 118.3(8) . .
C9_3 C4_3 C3_3 121.7(8) . .
C4_3 C5_3 C6_3 120.0 . .
C4_3 C5_3 H5_3 120.0 . .
C6_3 C5_3 H5_3 120.0 . .
C7_3 C6_3 C5_3 120.0 . .
C7_3 C6_3 H6_3 120.0 . .
C5_3 C6_3 H6_3 120.0 . .
C6_3 C7_3 C8_3 120.0 . .
C6_3 C7_3 H7_3 120.0 . .
C8_3 C7_3 H7_3 120.0 . .
C7_3 C8_3 C9_3 120.0 . .
C7_3 C8_3 H8_3 120.0 . .
C9_3 C8_3 H8_3 120.0 . .
C8_3 C9_3 C4_3 120.0 . .
C8_3 C9_3 H9_3 120.0 . .
C4_3 C9_3 H9_3 120.0 . .
C1_4 O1_4 Zn1 117.3(4) . .
O2_4 C1_4 O1_4 124.4(6) . .
O2_4 C1_4 C2_4 118.4(6) . .
O1_4 C1_4 C2_4 117.2(5) . .
C2_4 N1_4 Zn2 111.9(4) . 1_556
C2_4 N1_4 H1_4 124.1 . .
Zn2 N1_4 H1_4 124.1 1_556 .
C1_4 O2_4 Zn2 116.7(4) . 1_556
N1_4 C2_4 C3_4 112.2(6) . .
N1_4 C2_4 C1_4 108.3(5) . .
C3_4 C2_4 C1_4 112.6(6) . .
N1_4 C2_4 H2_4 107.9 . .
C3_4 C2_4 H2_4 107.9 . .
C1_4 C2_4 H2_4 107.9 . .
C2_4 C3_4 C4_4 115.2(7) . .
C2_4 C3_4 C4A_4 130.1(8) . .
C2_4 C3_4 H3A_4 108.5 . .
C4_4 C3_4 H3A_4 108.5 . .
C2_4 C3_4 H3B_4 108.5 . .
C4_4 C3_4 H3B_4 108.5 . .
H3A_4 C3_4 H3B_4 107.5 . .
C2_4 C3_4 H3C_4 104.8 . .
C4A_4 C3_4 H3C_4 104.8 . .
C2_4 C3_4 H3D_4 104.8 . .
C4A_4 C3_4 H3D_4 104.8 . .
H3C_4 C3_4 H3D_4 105.8 . .
C5_4 C4_4 C9_4 120.0 . .
C5_4 C4_4 C3_4 122.7(6) . .
C9_4 C4_4 C3_4 117.2(6) . .
C4_4 C5_4 C6_4 120.0 . .
C4_4 C5_4 H5_4 120.0 . .
C6_4 C5_4 H5_4 120.0 . .
C7_4 C6_4 C5_4 120.0 . .
C7_4 C6_4 H6_4 120.0 . .
C5_4 C6_4 H6_4 120.0 . .
C6_4 C7_4 C8_4 120.0 . .
C6_4 C7_4 H7_4 120.0 . .
C8_4 C7_4 H7_4 120.0 . .
C7_4 C8_4 C9_4 120.0 . .
C7_4 C8_4 H8_4 120.0 . .
C9_4 C8_4 H8_4 120.0 . .
C8_4 C9_4 C4_4 120.0 . .
C8_4 C9_4 H9_4 120.0 . .
C4_4 C9_4 H9_4 120.0 . .
C9A_4 C4A_4 C5A_4 116(2) . .
C9A_4 C4A_4 C3_4 126.3(19) . .
C5A_4 C4A_4 C3_4 117.3(19) . .
C6A_4 C5A_4 C4A_4 121(3) . .
C6A_4 C5A_4 H5A_4 119.4 . .
C4A_4 C5A_4 H5A_4 119.4 . .
C5A_4 C6A_4 C7A_4 124(3) . .
C5A_4 C6A_4 H6A_4 118.1 . .
C7A_4 C6A_4 H6A_4 118.1 . .
C8A_4 C7A_4 C6A_4 113(3) . .
C8A_4 C7A_4 H7A_4 123.5 . .
C6A_4 C7A_4 H7A_4 123.5 . .
C9A_4 C8A_4 C7A_4 123(3) . .
C9A_4 C8A_4 H8A_4 118.3 . .
C7A_4 C8A_4 H8A_4 118.4 . .
C4A_4 C9A_4 C8A_4 120(3) . .
C4A_4 C9A_4 H9A_4 119.8 . .
C8A_4 C9A_4 H9A_4 119.8 . .
loop_
_geom_bond_atom_site_label_1
_geom_bond_atom_site_label_2
_geom_bond_distance
_geom_bond_site_symmetry_2
Zn1 N1_3 2.024(7) .
Zn1 N1_2 2.050(8) .
Zn1 N2_1 2.054(5) 4_655
Zn1 O1_4 2.064(4) .
Zn1 O1_3 2.151(5) .
Zn2 N1_1 2.065(5) .
Zn2 O2_3 2.071(5) .
Zn2 N1_4 2.083(6) 1_554
Zn2 N2_2 2.112(7) 2_656
Zn2 O2_4 2.120(4) 1_554
N1_1 C1_1 1.325(10) .
N1_1 C5_1 1.380(10) .
C1_1 C2_1 1.424(8) .
C1_1 H1_1 0.9300 .
N2_1 C10_1 1.327(10) .
N2_1 C11_1 1.349(9) .
C2_1 C3_1 1.296(11) .
C2_1 H2_1 0.9300 .
C3_1 C4_1 1.425(12) .
C3_1 C6_1 1.518(8) .
C4_1 C5_1 1.318(10) .
C4_1 H4_1 0.9300 .
C5_1 H5_1 0.9300 .
C6_1 C7_1 1.318(9) .
C6_1 H6_1 0.9300 .
C7_1 C8_1 1.414(9) .
C7_1 H7_1 0.9300 .
C8_1 C9_1 1.371(11) .
C8_1 C12_1 1.485(10) .
C9_1 C10_1 1.462(10) .
C9_1 H9_1 0.9300 .
C10_1 H10_1 0.9300 .
C11_1 C12_1 1.306(9) .
C11_1 H11_1 0.9300 .
C12_1 H12_1 0.9300 .
N1_2 C1_2 1.333(11) .
N1_2 C5_2 1.371(10) .
C1_2 C2_2 1.359(13) .
C1_2 H1_2 0.9300 .
N2_2 C11_2 1.322(9) .
N2_2 C10_2 1.341(10) .
C2_2 C3_2 1.319(12) .
C2_2 H2_2 0.9300 .
C3_2 C4_2 1.483(13) .
C3_2 C6_2 1.495(14) .
C4_2 C5_2 1.306(13) .
C4_2 H4_2 0.9300 .
C5_2 H5_2 0.9300 .
C6_2 C7_2 1.303(11) .
C6_2 H6_2 0.9300 .
C7_2 C8_2 1.530(14) .
C7_2 H7_2 0.9300 .
C8_2 C9_2 1.242(13) .
C8_2 C12_2 1.528(13) .
C9_2 C10_2 1.358(13) .
C9_2 H9_2 0.9300 .
C10_2 H10_2 0.9300 .
C11_2 C12_2 1.413(13) .
C11_2 H11_2 0.9300 .
C12_2 H12A_2 0.9300 .
O1_3 C2_3 1.249(9) .
N1_3 C1_3 1.434(9) .
N1_3 H1A_3 0.8600 .
C1_3 C2_3 1.531(10) .
C1_3 C3_3 1.536(12) .
C1_3 H1_3 0.9800 .
O2_3 C2_3 1.274(8) .
C3_3 C4_3 1.521(11) .
C3_3 H3A_3 0.9700 .
C3_3 H3AB_3 0.9700 .
C4_3 C5_3 1.3900 .
C4_3 C9_3 1.3900 .
C5_3 C6_3 1.3900 .
C5_3 H5_3 0.9300 .
C6_3 C7_3 1.3900 .
C6_3 H6_3 0.9300 .
C7_3 C8_3 1.3900 .
C7_3 H7_3 0.9300 .
C8_3 C9_3 1.3900 .
C8_3 H8_3 0.9300 .
C9_3 H9_3 0.9300 .
O1_4 C1_4 1.261(7) .
C1_4 O2_4 1.238(8) .
C1_4 C2_4 1.524(8) .
N1_4 C2_4 1.488(8) .
N1_4 H1_4 0.8600 .
C2_4 C3_4 1.507(11) .
C2_4 H2_4 0.9800 .
C3_4 C4_4 1.574(9) .
C3_4 C4A_4 1.596(8) .
C3_4 H3A_4 0.9700 .
C3_4 H3B_4 0.9700 .
C3_4 H3C_4 0.9700 .
C3_4 H3D_4 0.9700 .
C4_4 C5_4 1.3900 .
C4_4 C9_4 1.3900 .
C5_4 C6_4 1.3900 .
C5_4 H5_4 0.9300 .
C6_4 C7_4 1.3900 .
C6_4 H6_4 0.9300 .
C7_4 C8_4 1.3900 .
C7_4 H7_4 0.9300 .
C8_4 C9_4 1.3900 .
C8_4 H8_4 0.9300 .
C9_4 H9_4 0.9300 .
C4A_4 C9A_4 1.38(2) .
C4A_4 C5A_4 1.40(2) .
C5A_4 C6A_4 1.37(3) .
C5A_4 H5A_4 0.9300 .
C6A_4 C7A_4 1.40(3) .
C6A_4 H6A_4 0.9300 .
C7A_4 C8A_4 1.40(3) .
C7A_4 H7A_4 0.9300 .
C8A_4 C9A_4 1.40(3) .
C8A_4 H8A_4 0.9300 .
C9A_4 H9A_4 0.9300 .
