#------------------------------------------------------------------------------
#$Date: 2019-11-23 19:22:06 +0200 (Sat, 23 Nov 2019) $
#$Revision: 234623 $
#$URL: file:///home/coder/svn-repositories/cod/cif/7/12/52/7125242.cif $
#------------------------------------------------------------------------------
#
# This file is available in the Crystallography Open Database (COD),
# http://www.crystallography.net/
#
# All data on this site have been placed in the public domain by the
# contributors.
#
data_7125242
loop_
_publ_author_name
'Sarkar, Koushik'
'Paul, Mithun'
'Dastidar, Parthasarathi'
_publ_section_title
;
 Multifunctional single-layered vesicles derived from
 Cu(ii)-metal-organic-polyhedra.
;
_journal_issue                   89
_journal_name_full
'Chemical communications (Cambridge, England)'
_journal_page_first              13124
_journal_page_last               13127
_journal_paper_doi               10.1039/c6cc07804d
_journal_volume                  52
_journal_year                    2016
_chemical_formula_moiety         '0.5(C120 H120 Cu2 N24 O12), 2(N O3)'
_chemical_formula_sum            'C60 H60 Cu N14 O12'
_chemical_formula_weight         1232.76
_chemical_name_systematic        CP3
_space_group_crystal_system      monoclinic
_space_group_IT_number           15
_space_group_name_Hall           '-C 2yc'
_space_group_name_H-M_alt        'C 1 2/c 1'
_atom_sites_solution_hydrogens   geom
_audit_creation_date             2016-05-02
_audit_creation_method
;
Olex2 1.2
(compiled 2015.09.30 svn.r3233 for OlexSys, GUI svn.r5103)
;
_audit_update_record
;
2016-07-25 deposited with the CCDC.
2016-10-13 downloaded from the CCDC.
;
_cell_angle_alpha                90
_cell_angle_beta                 108.369(19)
_cell_angle_gamma                90
_cell_formula_units_Z            4
_cell_length_a                   35.509(10)
_cell_length_b                   14.304(4)
_cell_length_c                   15.395(4)
_cell_measurement_reflns_used    3073
_cell_measurement_temperature    100
_cell_measurement_theta_max      20.660
_cell_measurement_theta_min      2.305
_cell_volume                     7421(4)
_computing_cell_refinement       'SAINT v8.34A (Bruker, 2013)'
_computing_data_reduction        'SAINT v8.34A (Bruker, 2013)'
_computing_molecular_graphics    'Olex2 (Dolomanov et al., 2009)'
_computing_publication_material  'Olex2 (Dolomanov et al., 2009)'
_computing_structure_refinement  'XL (Sheldrick, 2008)'
_computing_structure_solution    'ShelXS (Sheldrick, 2008)'
_diffrn_ambient_temperature      100
_diffrn_measured_fraction_theta_full 0.670
_diffrn_measured_fraction_theta_max 0.966
_diffrn_measurement_device_type  'Bruker APEX-II CCD'
_diffrn_measurement_method       '\f and \w scans'
_diffrn_radiation_type           MoK\a
_diffrn_radiation_wavelength     0.71073
_diffrn_reflns_av_R_equivalents  0.1386
_diffrn_reflns_av_unetI/netI     0.1310
_diffrn_reflns_Laue_measured_fraction_full 0.670
_diffrn_reflns_Laue_measured_fraction_max 0.966
_diffrn_reflns_limit_h_max       38
_diffrn_reflns_limit_h_min       -38
_diffrn_reflns_limit_k_max       15
_diffrn_reflns_limit_k_min       -15
_diffrn_reflns_limit_l_max       15
_diffrn_reflns_limit_l_min       -16
_diffrn_reflns_number            16405
_diffrn_reflns_point_group_measured_fraction_full 0.670
_diffrn_reflns_point_group_measured_fraction_max 0.966
_diffrn_reflns_theta_full        26.000
_diffrn_reflns_theta_max         22.835
_diffrn_reflns_theta_min         1.547
_diffrn_standards_number         0
_exptl_absorpt_coefficient_mu    0.354
_exptl_absorpt_correction_T_max  0.7448
_exptl_absorpt_correction_T_min  0.4501
_exptl_absorpt_correction_type   multi-scan
_exptl_absorpt_process_details
;
SADABS-2014/4 (Bruker,2014/4) was used for absorption correction.
wR2(int) was 0.1133 before and 0.0640 after correction.
The Ratio of minimum to maximum transmission is 0.6043.
The \l/2 correction factor is 0.00150.
;
_exptl_crystal_colour            'light violet'
_exptl_crystal_colour_modifier   light
_exptl_crystal_colour_primary    violet
_exptl_crystal_density_diffrn    1.103
_exptl_crystal_description       block
_exptl_crystal_F_000             2572
_exptl_crystal_size_max          0.36
_exptl_crystal_size_mid          0.34
_exptl_crystal_size_min          0.2
_refine_diff_density_max         0.581
_refine_diff_density_min         -0.600
_refine_diff_density_rms         0.092
_refine_ls_extinction_method     none
_refine_ls_goodness_of_fit_ref   0.985
_refine_ls_hydrogen_treatment    constr
_refine_ls_matrix_type           full
_refine_ls_number_parameters     469
_refine_ls_number_reflns         4893
_refine_ls_number_restraints     0
_refine_ls_restrained_S_all      0.985
_refine_ls_R_factor_all          0.1559
_refine_ls_R_factor_gt           0.0844
_refine_ls_shift/su_max          0.000
_refine_ls_shift/su_mean         0.000
_refine_ls_structure_factor_coef Fsqd
_refine_ls_weighting_details
'w=1/[\s^2^(Fo^2^)+(0.1690P)^2^] where P=(Fo^2^+2Fc^2^)/3'
_refine_ls_weighting_scheme      calc
_refine_ls_wR_factor_gt          0.2365
_refine_ls_wR_factor_ref         0.2962
_reflns_Friedel_coverage         0.000
_reflns_number_gt                2306
_reflns_number_total             4893
_reflns_threshold_expression     'I > 2\s(I)'
_cod_data_source_file            c6cc07804d3.cif
_cod_data_source_block           CP-3
_cod_original_sg_symbol_H-M      'C 2/c'
_cod_database_code               7125242
_shelxl_version_number           2014/6
_shelx_space_group_comment
;
The symmetry employed for this shelxl refinement is uniquely defined
by the following loop, which should always be used as a source of
symmetry information in preference to the above space-group names.
They are only intended as comments.
;
_olex2_refinement_description
;
1. Fixed Uiso
 At 1.2 times of:
  All C(H) groups, All C(H,H) groups, All N(H) groups
 At 1.5 times of:
  All C(H,H,H) groups
2. Rigid bond restraints
 N7, O6A
 with sigma for 1-2 distances of 0.01 and sigma for 1-3 distances of 0.01
 N7, O5A
 with sigma for 1-2 distances of 0.01 and sigma for 1-3 distances of 0.01
3. Others
 Sof(C30B)=Sof(H30B)=Sof(C24B)=Sof(H24B)=Sof(C28B)=Sof(H28B)=Sof(C29B)=
 Sof(H29B)=Sof(C23B)=Sof(H23B)=Sof(C21B)=Sof(H21B)=Sof(C22B)=Sof(H22B)=
 Sof(C27B)=Sof(H27B)=1-FVAR(1)
 Sof(C24A)=Sof(H24A)=Sof(C27A)=Sof(H27A)=Sof(C21A)=Sof(H21A)=Sof(C30A)=
 Sof(H30A)=Sof(C22A)=Sof(H22A)=Sof(C23A)=Sof(H23A)=Sof(C29A)=Sof(H29A)=
 Sof(C28A)=Sof(H28A)=FVAR(1)
 Sof(O5B)=Sof(O6B)=1-FVAR(2)
 Sof(O5A)=Sof(O6A)=FVAR(2)
4.a Secondary CH2 refined with riding coordinates:
 C8(H8A,H8B), C7(H7A,H7B), C9(H9A,H9B)
4.b Aromatic/amide H refined with riding coordinates:
 N2(H2), N6(H6), N4(H4), C15(H15), C16(H16), C18(H18), C17(H17), C24A(H24A),
 C27A(H27A), C21A(H21A), C30A(H30A), C22A(H22A), C30B(H30B), C23A(H23A),
 C24B(H24B), C28B(H28B), C29A(H29A), C29B(H29B), C23B(H23B), C21B(H21B),
 C22B(H22B), C27B(H27B), C28A(H28A)
4.c Idealised Me refined as rotating group:
 C12(H12A,H12B,H12C), C10(H10A,H10B,H10C), C11(H11A,H11B,H11C)
;
_shelx_res_file
;
TITL KS4PYCU_0m_a.res in C2/c
REM Old TITL KS4PYCU_0m in C2/c
REM SHELXT solution in C2/c
REM R1 0.299, Rweak 0.035, Alpha 0.066, Orientation as input
REM Formula found by SHELXT: C66 N12 O16 Cu
CELL 0.71073 35.5087 14.3041 15.3953 90 108.369 90
ZERR 4 0.0104 0.0039 0.0042 0 0.019 0
LATT 7
SYMM -X,+Y,0.5-Z
SFAC C H Cu N O
UNIT 240 240 4 56 48
DELU N7 O6A
DELU N7 O5A

L.S. 20 0 106
PLAN  10
TEMP -173.15
BOND $H
HTAB
MORE -1
CONF
ABIN
fmap 2
acta 52
REM <olex2.extras>
REM <HklSrc "%.\\KS4PYCU_0m_a.hkl">
REM </olex2.extras>

WGHT    0.169000
FVAR       0.20088   0.52607   0.64062
CU1   3    0.500000    1.000000    0.500000    10.50000    0.04219    0.07719 =
         0.04008   -0.01758   -0.01058    0.01174
O2    5    0.879013    0.768710    0.636952    11.00000    0.06251    0.09394 =
         0.06891    0.04909    0.02157    0.02089
O4    5    0.468533    0.956169    0.616594    11.00000    0.05843    0.09972 =
         0.05342   -0.00148    0.01689   -0.01110
O3    5    0.808385    0.431919    0.302706    11.00000    0.05578    0.08589 =
         0.05742   -0.00917    0.01751    0.00746
N2    4    0.752932    0.511290    0.305200    11.00000    0.05419    0.05866 =
         0.04021   -0.00472    0.01251    0.01187
AFIX  43
H2    2    0.734658    0.552516    0.277776    11.00000   -1.20000
AFIX   0
N6    4    0.638722    0.638020    0.554733    11.00000    0.05665    0.06702 =
         0.04374    0.02341    0.01592    0.02786
AFIX  43
H6    2    0.636609    0.672117    0.505844    11.00000   -1.20000
AFIX   0
N4    4    0.832929    0.683003    0.677522    11.00000    0.04955    0.06468 =
         0.02617    0.01608   -0.00818   -0.00079
AFIX  43
H4    2    0.829066    0.640955    0.715573    11.00000   -1.20000
AFIX   0
N3    4    0.960837    0.573926    0.900200    11.00000    0.03587    0.05079 =
         0.04394    0.00448    0.00290   -0.00408
C3    1    0.732706    0.639779    0.590978    11.00000    0.05270    0.04311 =
         0.02383    0.00419   -0.00507    0.02450
N5    4    0.535246    0.889063    0.533933    11.00000    0.04208    0.09234 =
         0.04543   -0.01054    0.00217    0.00769
C1    1    0.706188    0.522238    0.471794    11.00000    0.03336    0.05306 =
         0.03783    0.00052   -0.00141    0.00714
C4    1    0.767246    0.644227    0.564262    11.00000    0.04205    0.04910 =
         0.02739    0.00598   -0.01051    0.01108
C6    1    0.742177    0.522346    0.453602    11.00000    0.04964    0.05015 =
         0.03183    0.00333    0.00531    0.01287
C5    1    0.772895    0.583036    0.500757    11.00000    0.03876    0.07161 =
         0.02244    0.00977   -0.00407    0.00974
C20   1    0.901621    0.661456    0.762874    11.00000    0.03873    0.04875 =
         0.03541    0.00878    0.00295   -0.00111
C2    1    0.702834    0.575258    0.544847    11.00000    0.05154    0.05985 =
         0.03758    0.02274    0.00373    0.02454
C13   1    0.783980    0.499701    0.273311    11.00000    0.05437    0.06396 =
         0.04429   -0.02210    0.01280   -0.00824
C8    1    0.667546    0.561937    0.578427    11.00000    0.06073    0.07556 =
         0.04832    0.01692    0.01926    0.01795
AFIX  23
H8A   2    0.653979    0.503032    0.552503    11.00000   -1.20000
H8B   2    0.677218    0.555090    0.645843    11.00000   -1.20000
AFIX   0
O1    5    0.618915    0.614693    0.676323    11.00000    0.13963    0.13506 =
         0.11497    0.06816    0.08907    0.08599
C19   1    0.869892    0.711660    0.686459    11.00000    0.04675    0.07406 =
         0.02809    0.01306    0.00338    0.00387
C7    1    0.747965    0.459893    0.381799    11.00000    0.06173    0.06222 =
         0.05205   -0.00107    0.02393    0.01263
AFIX  23
H7A   2    0.771686    0.420479    0.408940    11.00000   -1.20000
H7B   2    0.724731    0.417944    0.359475    11.00000   -1.20000
AFIX   0
C14   1    0.789697    0.564898    0.208349    11.00000    0.06422    0.03825 =
         0.05039   -0.01446    0.02604    0.00475
C26   1    0.588015    0.737813    0.580493    11.00000    0.04779    0.07255 =
         0.04225    0.02068    0.01698    0.01047
C25   1    0.615881    0.656502    0.605079    11.00000    0.07542    0.07112 =
         0.05586    0.02588    0.03312    0.03666
C9    1    0.798706    0.720998    0.604832    11.00000    0.04498    0.08838 =
         0.03292    0.01158   -0.01625    0.01014
AFIX  23
H9A   2    0.807866    0.747534    0.555587    11.00000   -1.20000
H9B   2    0.786498    0.772063    0.630165    11.00000   -1.20000
AFIX   0
C15   1    0.758705    0.622471    0.153879    11.00000    0.07947    0.10249 =
         0.03811    0.00370    0.02420   -0.00312
AFIX  43
H15   2    0.732660    0.617904    0.158174    11.00000   -1.20000
AFIX   0
C12   1    0.728956    0.700191    0.666700    11.00000    0.07654    0.10183 =
         0.02792   -0.00059   -0.00431    0.03570
AFIX 137
H12A  2    0.754891    0.705956    0.713844    11.00000   -1.50000
H12B  2    0.709982    0.672056    0.693453    11.00000   -1.50000
H12C  2    0.719528    0.762286    0.642593    11.00000   -1.50000
AFIX   0
C10   1    0.813121    0.578760    0.483432    11.00000    0.05106    0.08364 =
         0.05182   -0.00549    0.00400    0.01154
AFIX 137
H10A  2    0.810755    0.607601    0.424204    11.00000   -1.50000
H10B  2    0.821289    0.513371    0.482936    11.00000   -1.50000
H10C  2    0.833007    0.612576    0.532092    11.00000   -1.50000
AFIX   0
C11   1    0.672194    0.466382    0.414660    11.00000    0.06478    0.08408 =
         0.07406    0.00240    0.00761   -0.00063
AFIX 137
H11A  2    0.671977    0.467521    0.350856    11.00000   -1.50000
H11B  2    0.647367    0.493030    0.418655    11.00000   -1.50000
H11C  2    0.674777    0.401690    0.436718    11.00000   -1.50000
AFIX   0
N1    4    0.801320    0.699135    0.083093    11.00000    0.10927    0.08501 =
         0.08427    0.00351    0.04190   -0.01020

N7    4    0.441990    0.909774    0.630482    11.00000    0.13092    0.12910 =
         0.09800    0.00378    0.04358    0.01438
C16   1    0.766995    0.684213    0.095502    11.00000    0.09636    0.11419 =
         0.05141    0.00831    0.01920    0.01167
AFIX  43
H16   2    0.745396    0.720851    0.059465    11.00000   -1.20000
AFIX   0
C18   1    0.825900    0.581604    0.197001    11.00000    0.07442    0.08095 =
         0.10376    0.00836    0.04462    0.01685
AFIX  43
H18   2    0.848517    0.549542    0.235103    11.00000   -1.20000
AFIX   0
C17   1    0.830622    0.642114    0.133491    11.00000    0.08179    0.12949 =
         0.09954    0.01032    0.04583    0.00285
AFIX  43
H17   2    0.855724    0.644742    0.123763    11.00000   -1.20000
AFIX   0
PART 1
C24A  1    0.895232    0.617964    0.835496    21.00000    0.03298    0.08933 =
         0.04251    0.02725    0.01728    0.00677
AFIX  43
H24A  2    0.869410    0.617875    0.841484    21.00000   -1.20000
AFIX   0
C27A  1    0.574737    0.784049    0.646943    21.00000    0.06200    0.04713 =
         0.04507    0.01405    0.02310    0.02285
AFIX  43
H27A  2    0.586167    0.770708    0.710279    21.00000   -1.20000
AFIX   0
C21A  1    0.943275    0.671994    0.768823    21.00000    0.03326    0.07419 =
         0.05628    0.01491    0.00702    0.01838
AFIX  43
H21A  2    0.951182    0.708624    0.726094    21.00000   -1.20000
AFIX   0
C30A  1    0.570762    0.764642    0.490573    21.00000    0.06307    0.06572 =
         0.06804    0.00434    0.01485    0.03325
AFIX  43
H30A  2    0.577586    0.733445    0.443146    21.00000   -1.20000
AFIX   0
C22A  1    0.970673    0.625483    0.840418    21.00000    0.03643    0.10014 =
         0.05092    0.03191    0.00259   -0.00607
AFIX  43
H22A  2    0.998021    0.631374    0.846359    21.00000   -1.20000
AFIX   0
PART 0
PART 2
C30B  1    0.528151    0.812376    0.570643   -21.00000    0.06237    0.07838 =
         0.11372   -0.02257    0.01753   -0.03148
AFIX  43
H30B  2    0.503457    0.808330    0.582225   -21.00000   -1.20000
AFIX   0
PART 0
PART 1
C23A  1    0.925028    0.575351    0.898493    21.00000    0.03038    0.12522 =
         0.02713    0.01909    0.00284    0.01403
AFIX  43
H23A  2    0.918743    0.543307    0.946194    21.00000   -1.20000
AFIX   0
PART 0
PART 2
C24B  1    0.923525    0.603723    0.741079   -21.00000    0.06817    0.06657 =
         0.02518    0.01483   -0.00155    0.02640
AFIX  43
H24B  2    0.920971    0.592948    0.678591   -21.00000   -1.20000
AFIX   0
C28B  1    0.597951    0.811965    0.539183   -21.00000    0.07630    0.09209 =
         0.10914    0.02323    0.05360    0.05539
AFIX  43
H28B  2    0.621638    0.811315    0.522949   -21.00000   -1.20000
AFIX   0
PART 0
PART 1
C29A  1    0.544532    0.834314    0.470309    21.00000    0.08340    0.07813 =
         0.03536   -0.00267    0.01774    0.04114
AFIX  43
H29A  2    0.531337    0.846992    0.407476    21.00000   -1.20000
AFIX   0

O5A   5    0.445985    0.822953    0.627434    31.00000    0.21194
O6A   5    0.421259    0.952684    0.669323    31.00000    0.21081
PART 0
PART 2
C29B  1    0.552620    0.737078    0.594222   -21.00000    0.10471    0.04746 =
         0.15257    0.04027    0.07622    0.03590
AFIX  43
H29B  2    0.544564    0.683694    0.620563   -21.00000   -1.20000
AFIX   0
C23B  1    0.951976    0.555126    0.810816   -21.00000    0.04535    0.19694 =
         0.03021   -0.00588   -0.00169    0.02839
AFIX  43
H23B  2    0.965878    0.505542    0.793363   -21.00000   -1.20000
AFIX   0
C21B  1    0.906397    0.690193    0.849309   -21.00000    0.06672    0.14698 =
         0.05796    0.02905    0.01214    0.02619
AFIX  43
H21B  2    0.890980    0.738135    0.864269   -21.00000   -1.20000
AFIX   0
C22B  1    0.937116    0.640639    0.915541   -21.00000    0.07256    0.07658 =
         0.04498    0.00191   -0.00724   -0.00462
AFIX  43
H22B  2    0.941285    0.656685    0.977751   -21.00000   -1.20000
AFIX   0
C27B  1    0.573067    0.890541    0.520130   -21.00000    0.09000    0.03834 =
         0.09952    0.00021    0.02984   -0.01539
AFIX  43
H27B  2    0.581593    0.945782    0.497599   -21.00000   -1.20000
AFIX   0
PART 0
PART 1
C28A  1    0.547215    0.843592    0.619332    21.00000    0.04417    0.06689 =
         0.05180   -0.00772    0.01877    0.02236
AFIX  43
H28A  2    0.533148    0.859262    0.660563    21.00000   -1.20000
AFIX   0

PART 0
PART 2
O5B   5    0.406731    0.939312    0.582438   -31.00000    0.13065
O6B   5    0.441904    0.849867    0.683363   -31.00000    0.17430
HKLF 4

REM  KS4PYCU_0m_a.res in C2/c
REM R1 =  0.0844 for    2306 Fo > 4sig(Fo)  and  0.1559 for all    4893 data
REM    469 parameters refined using      0 restraints

END

WGHT      0.1703      0.0000

REM Instructions for potential hydrogen bonds
EQIV $1 -x+3/2, -y+3/2, -z+1
HTAB N6 O2_$1
EQIV $2 x, -y+1, z+1/2
HTAB N4 O3_$2
EQIV $3 -x+3/2, -y+3/2, -z
HTAB C16 N1_$3
EQIV $4 x+1/2, -y+3/2, z-1/2
HTAB C17 O6A_$4
HTAB C17 O5B_$4
HTAB C24A O3_$2
HTAB C30A O2_$1
HTAB C30B O4
EQIV $5 x+1/2, y-1/2, z
HTAB C24B O5B_$5
EQIV $6 -x+3/2, y-1/2, -z+3/2
HTAB C23B O4_$6
EQIV $7 x+1/2, -y+3/2, z+1/2
HTAB C22B O4_$7
HTAB C22B N7_$7
EQIV $8 -x+1, -y+2, -z+1
HTAB C27B O4_$8
HTAB C27B O5B_$8
HTAB C28A O4

REM Highest difference peak  0.581,  deepest hole -0.600,  1-sigma level  0.092
Q1    1   0.5082  1.0527  0.4424  11.00000  0.05    0.58
Q2    1   0.9093  0.8083  0.6564  11.00000  0.05    0.41
Q3    1   0.4071  0.9996  0.5995  11.00000  0.05    0.38
Q4    1   0.6019  0.6055  0.7140  11.00000  0.05    0.36
Q5    1   0.6031  0.5638  0.6304  11.00000  0.05    0.35
Q6    1   0.8700  0.7805  0.7702  11.00000  0.05    0.34
Q7    1   0.6790  0.5616  0.5639  11.00000  0.05    0.31
Q8    1   0.4279  0.8270  0.6383  11.00000  0.05    0.31
Q9    1   0.6745  0.4458  0.5589  11.00000  0.05    0.30
Q10   1   0.5082  0.9448  0.4423  11.00000  0.05    0.30
;
_shelx_res_checksum              94292
_shelx_fab_checksum              92584
_shelx_fab_file
;
    4    0    0     -1.61      0.00
    6    0    0     89.99      0.00
    8    0    0    -44.22      0.00
   10    0    0      8.00      0.00
   12    0    0     32.57      0.00
   14    0    0    -37.75      0.00
   16    0    0     25.06      0.00
   18    0    0     -5.63      0.00
   20    0    0    -16.72      0.00
   22    0    0     14.54      0.00
   26    0    0      1.53      0.00
   28    0    0     11.59      0.00
   30    0    0     -6.41      0.00
   32    0    0     -0.18      0.00
   34    0    0      3.41      0.00
   36    0    0     -2.35      0.00
    1    1    0    443.41      0.00
    3    1    0     95.34      0.00
    5    1    0     20.53      0.00
    7    1    0     -4.71      0.00
    9    1    0    -27.43      0.00
   11    1    0     22.30      0.00
   13    1    0    -17.80      0.00
   15    1    0     -8.22      0.00
   17    1    0     14.15      0.00
   19    1    0    -10.69      0.00
   21    1    0      4.41      0.00
   23    1    0     -1.53      0.00
   25    1    0     -6.90      0.00
   27    1    0     10.20      0.00
   29    1    0      0.95      0.00
   31    1    0     -4.51      0.00
   33    1    0      1.36      0.00
   35    1    0      0.15      0.00
    0    2    0     86.94      0.00
    2    2    0    136.56      0.00
    4    2    0     52.97      0.00
    6    2    0    -67.43      0.00
    8    2    0    -13.06      0.00
   10    2    0     -7.08      0.00
   12    2    0    -21.93      0.00
   14    2    0     -8.81      0.00
   16    2    0     -8.30      0.00
   18    2    0     10.23      0.00
   20    2    0      8.10      0.00
   22    2    0     -4.99      0.00
   24    2    0     -3.58      0.00
   26    2    0      1.29      0.00
   28    2    0      1.10      0.00
   30    2    0     -0.47      0.00
   32    2    0     -2.80      0.00
   34    2    0     -3.41      0.00
   36    2    0      2.30      0.00
    1    3    0    -66.55      0.00
    3    3    0     76.52      0.00
    5    3    0    -17.52      0.00
    7    3    0    -30.34      0.00
    9    3    0      5.89      0.00
   11    3    0    -27.30      0.00
   13    3    0     -1.19      0.00
   15    3    0    -13.52      0.00
   17    3    0     -5.26      0.00
   19    3    0     21.03      0.00
   21    3    0     -3.93      0.00
   23    3    0     -3.94      0.00
   25    3    0     -1.23      0.00
   27    3    0     -8.24      0.00
   29    3    0      0.78      0.00
   31    3    0     -0.10      0.00
   33    3    0     -7.65      0.00
   35    3    0     -1.86      0.00
    0    4    0    -75.29      0.00
    2    4    0      0.74      0.00
    6    4    0      5.97      0.00
    8    4    0     20.06      0.00
   10    4    0    -15.00      0.00
   12    4    0     -3.42      0.00
   14    4    0     11.99      0.00
   16    4    0    -21.12      0.00
   18    4    0      7.46      0.00
   20    4    0     10.61      0.00
   22    4    0     -8.63      0.00
   24    4    0      3.45      0.00
   26    4    0     -8.76      0.00
   28    4    0     -6.12      0.00
   30    4    0      2.60      0.00
   32    4    0     -7.03      0.00
   34    4    0     -4.42      0.00
    1    5    0     -5.81      0.00
    3    5    0     38.92      0.00
    5    5    0     13.03      0.00
    7    5    0     20.40      0.00
    9    5    0     15.32      0.00
   11    5    0    -21.56      0.00
   13    5    0     13.82      0.00
   15    5    0      6.15      0.00
   17    5    0    -17.83      0.00
   19    5    0     10.42      0.00
   21    5    0      0.02      0.00
   23    5    0     -0.57      0.00
   25    5    0      5.80      0.00
   27    5    0     -8.13      0.00
   29    5    0     -2.63      0.00
   31    5    0     -3.97      0.00
   33    5    0     -5.49      0.00
    0    6    0    -12.04      0.00
    2    6    0     17.27      0.00
    6    6    0     -5.00      0.00
    8    6    0      8.40      0.00
   10    6    0      3.30      0.00
   12    6    0    -12.78      0.00
   14    6    0      7.42      0.00
   16    6    0      3.46      0.00
   18    6    0     -8.74      0.00
   20    6    0      0.62      0.00
   22    6    0      3.47      0.00
   24    6    0      6.23      0.00
   26    6    0      2.44      0.00
   28    6    0     -7.51      0.00
   30    6    0     -7.08      0.00
   32    6    0     -4.33      0.00
    1    7    0     -5.27      0.00
    3    7    0     -7.44      0.00
    5    7    0     19.56      0.00
    9    7    0      0.07      0.00
   11    7    0     17.50      0.00
   13    7    0    -11.56      0.00
   15    7    0      5.47      0.00
   17    7    0      8.38      0.00
   19    7    0    -15.82      0.00
   21    7    0      4.51      0.00
   23    7    0      6.06      0.00
   25    7    0     -2.40      0.00
   27    7    0      0.66      0.00
   29    7    0     -7.58      0.00
   31    7    0     -6.57      0.00
    0    8    0     16.15      0.00
    2    8    0    -19.58      0.00
    4    8    0      2.80      0.00
    6    8    0     36.23      0.00
   10    8    0     16.94      0.00
   12    8    0     16.81      0.00
   14    8    0     -1.88      0.00
   16    8    0     12.48      0.00
   18    8    0     -6.03      0.00
   20    8    0     -5.27      0.00
   22    8    0      7.10      0.00
   24    8    0     -6.87      0.00
   26    8    0     -1.96      0.00
   28    8    0      4.19      0.00
   30    8    0     -1.07      0.00
    1    9    0      2.46      0.00
    3    9    0     -6.43      0.00
    5    9    0     21.29      0.00
    7    9    0     21.56      0.00
    9    9    0      6.29      0.00
   11    9    0     10.59      0.00
   13    9    0     13.72      0.00
   15    9    0     11.06      0.00
   17    9    0      0.47      0.00
   19    9    0     -0.30      0.00
   21    9    0      2.69      0.00
   23    9    0     -4.03      0.00
   25    9    0     -3.82      0.00
   27    9    0      3.66      0.00
   29    9    0      9.81      0.00
    0   10    0    -10.86      0.00
    2   10    0     -0.39      0.00
    4   10    0      3.45      0.00
    6   10    0      3.68      0.00
    8   10    0      5.18      0.00
   10   10    0     -5.13      0.00
   12   10    0      2.89      0.00
   14   10    0     11.51      0.00
   16   10    0      4.90      0.00
   18   10    0      4.67      0.00
   20   10    0      2.42      0.00
   22   10    0     -1.90      0.00
   24   10    0     -1.89      0.00
   26   10    0     -0.22      0.00
    1   11    0     -7.67      0.00
    3   11    0     -0.31      0.00
    5   11    0     -7.13      0.00
    7   11    0     -2.58      0.00
    9   11    0     -8.18      0.00
   11   11    0     -8.68      0.00
   13   11    0      1.26      0.00
   15   11    0      3.04      0.00
   17   11    0      9.02      0.00
   19   11    0      1.54      0.00
   21   11    0     -3.06      0.00
   23   11    0      0.24      0.00
   25   11    0     -3.16      0.00
    0   12    0     -1.45      0.00
    2   12    0      0.73      0.00
    4   12    0     -2.68      0.00
    6   12    0     -1.57      0.00
    8   12    0      0.73      0.00
   10   12    0     -6.74      0.00
   12   12    0     -4.97      0.00
   14   12    0      0.20      0.00
   16   12    0      5.61      0.00
   18   12    0      4.06      0.00
   20   12    0     -5.81      0.00
   22   12    0     -4.50      0.00
    1   13    0     -1.53      0.00
    3   13    0      3.70      0.00
    5   13    0      3.50      0.00
    7   13    0      2.66      0.00
    9   13    0      4.70      0.00
   11   13    0     -1.98      0.00
   13   13    0     -2.61      0.00
   15   13    0      3.04      0.00
   17   13    0      1.29      0.00
   19   13    0     -1.82      0.00
    0   14    0    -11.42      0.00
    2   14    0     -5.54      0.00
    4   14    0      3.83      0.00
    6   14    0      1.08      0.00
    8   14    0      0.75      0.00
   10   14    0      4.79      0.00
   12   14    0     -1.52      0.00
   14   14    0     -1.49      0.00
    1   15    0    -11.45      0.00
    3   15    0     -5.99      0.00
    5   15    0     -1.14      0.00
    7   15    0     -1.10      0.00
  -35    1    1      1.10      0.00
  -33    1    1     -2.19      0.00
  -31    1    1      8.02      0.00
  -29    1    1      6.59      0.00
  -27    1    1     -6.25      0.00
  -25    1    1     12.29      0.00
  -23    1    1      7.76      0.00
  -21    1    1     -9.31      0.00
  -19    1    1     17.05      0.00
  -17    1    1     -7.32      0.00
  -15    1    1      6.88      0.00
  -13    1    1     31.91      0.00
  -11    1    1    -33.72      0.00
   -9    1    1     35.05      0.00
   -7    1    1    -15.80      0.00
   -5    1    1    -70.05      0.00
   -3    1    1    179.07      0.00
    1    1    1   -204.03      0.00
    3    1    1     12.42      0.00
    5    1    1      7.47      0.00
    7    1    1    -35.54      0.00
    9    1    1     32.44      0.00
   11    1    1    -24.37      0.00
   13    1    1      5.84      0.00
   15    1    1      6.67      0.00
   17    1    1    -30.26      0.00
   19    1    1      8.52      0.00
   21    1    1      2.92      0.00
   23    1    1     -3.35      0.00
   25    1    1      1.83      0.00
   27    1    1    -10.58      0.00
   29    1    1     -2.02      0.00
   31    1    1      4.95      0.00
   33    1    1     -3.54      0.00
   35    1    1     -2.27      0.00
  -36    2    1     -1.90      0.00
  -34    2    1     -2.13      0.00
  -32    2    1      2.73      0.00
  -30    2    1     12.27      0.00
  -28    2    1     -2.65      0.00
  -26    2    1     -0.74      0.00
  -24    2    1     16.33      0.00
  -22    2    1     -5.14      0.00
  -20    2    1      7.96      0.00
  -18    2    1      7.95      0.00
  -16    2    1    -13.99      0.00
  -14    2    1     33.70      0.00
  -12    2    1     -3.36      0.00
  -10    2    1     -7.06      0.00
   -8    2    1     15.11      0.00
   -6    2    1    -72.59      0.00
   -4    2    1    103.80      0.00
   -2    2    1    137.73      0.00
    0    2    1   -167.06      0.00
    2    2    1    -89.84      0.00
    4    2    1     31.44      0.00
    6    2    1    -29.12      0.00
    8    2    1     28.80      0.00
   10    2    1     -9.02      0.00
   12    2    1    -14.73      0.00
   14    2    1     29.48      0.00
   16    2    1    -25.90      0.00
   18    2    1     -6.46      0.00
   20    2    1     11.33      0.00
   22    2    1     -6.20      0.00
   24    2    1     10.20      0.00
   26    2    1     -5.02      0.00
   28    2    1    -11.14      0.00
   30    2    1      6.84      0.00
   32    2    1      2.24      0.00
   34    2    1     -3.63      0.00
  -35    3    1     -4.10      0.00
  -33    3    1      2.16      0.00
  -31    3    1      6.01      0.00
  -29    3    1      1.95      0.00
  -27    3    1     -7.52      0.00
  -25    3    1      4.64      0.00
  -23    3    1      1.49      0.00
  -21    3    1     -0.46      0.00
  -19    3    1      9.00      0.00
  -17    3    1    -14.21      0.00
  -15    3    1      2.70      0.00
  -13    3    1     12.94      0.00
  -11    3    1     -4.34      0.00
   -9    3    1     -7.68      0.00
   -7    3    1    -31.32      0.00
   -5    3    1     49.99      0.00
   -1    3    1    -61.19      0.00
    1    3    1    -50.01      0.00
    3    3    1     12.62      0.00
    7    3    1     29.30      0.00
    9    3    1      9.05      0.00
   11    3    1    -24.96      0.00
   13    3    1     19.28      0.00
   15    3    1      7.80      0.00
   17    3    1    -11.34      0.00
   19    3    1      5.87      0.00
   21    3    1     -4.04      0.00
   23    3    1      5.39      0.00
   25    3    1     10.22      0.00
   27    3    1     -6.96      0.00
   29    3    1      3.38      0.00
   31    3    1      6.67      0.00
   33    3    1      0.37      0.00
  -34    4    1      2.13      0.00
  -32    4    1      5.97      0.00
  -30    4    1      2.85      0.00
  -28    4    1     -5.82      0.00
  -26    4    1     -5.00      0.00
  -24    4    1      0.67      0.00
  -22    4    1     -1.53      0.00
  -20    4    1      2.05      0.00
  -18    4    1     -9.60      0.00
  -16    4    1    -10.16      0.00
  -14    4    1      5.46      0.00
  -12    4    1      3.00      0.00
  -10    4    1     -7.69      0.00
   -8    4    1    -13.23      0.00
   -6    4    1     25.21      0.00
   -4    4    1     20.62      0.00
   -2    4    1    -36.07      0.00
    0    4    1    -12.54      0.00
    2    4    1     20.43      0.00
    4    4    1     18.98      0.00
    6    4    1     16.31      0.00
    8    4    1      6.80      0.00
   10    4    1     -2.20      0.00
   12    4    1    -11.32      0.00
   14    4    1      8.18      0.00
   16    4    1     12.22      0.00
   18    4    1     -9.15      0.00
   20    4    1     -5.99      0.00
   22    4    1     -0.70      0.00
   24    4    1      5.07      0.00
   26    4    1      7.59      0.00
   28    4    1      5.94      0.00
   30    4    1      5.81      0.00
   32    4    1      3.67      0.00
   34    4    1      2.73      0.00
  -35    5    1      4.64      0.00
  -33    5    1      5.19      0.00
  -31    5    1      6.09      0.00
  -29    5    1      0.82      0.00
  -27    5    1     -1.42      0.00
  -25    5    1     -5.41      0.00
  -23    5    1      1.89      0.00
  -21    5    1      7.76      0.00
  -19    5    1    -14.99      0.00
  -17    5    1     -4.25      0.00
  -15    5    1      6.67      0.00
  -13    5    1     -2.68      0.00
  -11    5    1      7.90      0.00
   -9    5    1     -2.66      0.00
   -7    5    1     14.65      0.00
   -5    5    1      3.11      0.00
   -3    5    1    -42.50      0.00
   -1    5    1     -1.52      0.00
    1    5    1      1.62      0.00
    3    5    1      2.48      0.00
    5    5    1     35.23      0.00
    7    5    1    -15.37      0.00
    9    5    1    -10.93      0.00
   11    5    1     11.98      0.00
   13    5    1    -18.65      0.00
   15    5    1      8.20      0.00
   17    5    1      8.33      0.00
   19    5    1    -20.50      0.00
   21    5    1     -3.67      0.00
   23    5    1     -0.45      0.00
   25    5    1      3.62      0.00
   27    5    1     16.66      0.00
   29    5    1      4.59      0.00
   31    5    1      0.69      0.00
   33    5    1      5.79      0.00
  -34    6    1      4.48      0.00
  -32    6    1      3.39      0.00
  -30    6    1      0.04      0.00
  -28    6    1      6.79      0.00
  -26    6    1      3.21      0.00
  -24    6    1     -8.84      0.00
  -22    6    1     15.96      0.00
  -20    6    1     -1.83      0.00
  -18    6    1    -12.93      0.00
  -16    6    1     20.38      0.00
  -14    6    1     -7.02      0.00
  -12    6    1      9.91      0.00
  -10    6    1     24.03      0.00
   -6    6    1     21.14      0.00
   -4    6    1    -14.68      0.00
    0    6    1     10.97      0.00
    2    6    1    -23.59      0.00
    4    6    1     -0.56      0.00
    6    6    1     22.68      0.00
    8    6    1    -34.28      0.00
   10    6    1      0.73      0.00
   12    6    1     16.11      0.00
   14    6    1    -15.70      0.00
   16    6    1      9.82      0.00
   18    6    1     -3.07      0.00
   20    6    1    -15.83      0.00
   22    6    1      3.88      0.00
   24    6    1     -1.39      0.00
   26    6    1      9.42      0.00
   28    6    1     10.74      0.00
   30    6    1     -4.99      0.00
   32    6    1     -0.47      0.00
  -33    7    1     -1.46      0.00
  -31    7    1     -5.88      0.00
  -29    7    1     -0.74      0.00
  -27    7    1     11.58      0.00
  -25    7    1     -2.90      0.00
  -23    7    1     -1.12      0.00
  -21    7    1     10.68      0.00
  -19    7    1     -2.85      0.00
  -17    7    1      5.55      0.00
  -15    7    1      0.51      0.00
  -13    7    1      2.04      0.00
  -11    7    1     31.21      0.00
   -9    7    1     -1.32      0.00
   -7    7    1      3.58      0.00
   -3    7    1    -22.30      0.00
   -1    7    1    -19.07      0.00
    1    7    1      5.57      0.00
    3    7    1    -23.56      0.00
    5    7    1      9.44      0.00
    7    7    1      8.03      0.00
    9    7    1    -21.74      0.00
   11    7    1     12.24      0.00
   13    7    1      9.77      0.00
   15    7    1     -2.97      0.00
   17    7    1      3.65      0.00
   19    7    1     -6.17      0.00
   21    7    1      0.36      0.00
   23    7    1      2.45      0.00
   25    7    1     -0.66      0.00
   27    7    1      3.42      0.00
   29    7    1     -2.87      0.00
   31    7    1     -7.65      0.00
  -30    8    1     -4.46      0.00
  -28    8    1      2.06      0.00
  -26    8    1      1.72      0.00
  -24    8    1      0.28      0.00
  -22    8    1     -1.67      0.00
  -20    8    1      5.91      0.00
  -18    8    1      6.20      0.00
  -16    8    1    -13.40      0.00
  -14    8    1      2.41      0.00
  -12    8    1     18.77      0.00
  -10    8    1      1.90      0.00
   -8    8    1      7.26      0.00
   -6    8    1     19.58      0.00
   -4    8    1     10.53      0.00
   -2    8    1     -4.84      0.00
    0    8    1     -6.22      0.00
    2    8    1      1.56      0.00
    4    8    1      1.19      0.00
    6    8    1      4.44      0.00
    8    8    1      3.27      0.00
   10    8    1     -4.93      0.00
   12    8    1      2.20      0.00
   14    8    1      8.70      0.00
   16    8    1     -2.06      0.00
   18    8    1     -3.69      0.00
   20    8    1      4.52      0.00
   22    8    1      0.65      0.00
   24    8    1     -1.24      0.00
   26    8    1     -1.86      0.00
   28    8    1     -6.27      0.00
   30    8    1     -5.42      0.00
  -29    9    1      1.24      0.00
  -27    9    1     -5.80      0.00
  -25    9    1      1.17      0.00
  -23    9    1      4.68      0.00
  -21    9    1     -1.90      0.00
  -19    9    1      8.09      0.00
  -17    9    1     -4.49      0.00
  -15    9    1     -9.67      0.00
  -13    9    1     10.23      0.00
  -11    9    1     -3.55      0.00
   -9    9    1      7.99      0.00
   -5    9    1    -12.03      0.00
   -3    9    1     10.00      0.00
   -1    9    1      3.52      0.00
    1    9    1     -9.63      0.00
    3    9    1     13.70      0.00
    5    9    1     -1.74      0.00
    7    9    1     -3.58      0.00
    9    9    1      3.27      0.00
   11    9    1     -9.54      0.00
   13    9    1      0.69      0.00
   15    9    1     -1.01      0.00
   17    9    1     -6.19      0.00
   19    9    1      3.11      0.00
   21    9    1      0.96      0.00
   23    9    1      0.61      0.00
   25    9    1      1.06      0.00
   27    9    1     -3.09      0.00
  -28   10    1     -5.00      0.00
  -26   10    1     -4.30      0.00
  -24   10    1      6.93      0.00
  -22   10    1      6.13      0.00
  -20   10    1      0.83      0.00
  -18   10    1      3.99      0.00
  -16   10    1     -0.24      0.00
  -14   10    1     -2.56      0.00
  -12   10    1     -1.80      0.00
  -10   10    1      4.81      0.00
   -8   10    1     11.17      0.00
   -6   10    1    -13.09      0.00
   -4   10    1    -12.65      0.00
   -2   10    1      2.37      0.00
    0   10    1     -9.22      0.00
    2   10    1      4.32      0.00
    4   10    1      3.37      0.00
    6   10    1     -9.15      0.00
    8   10    1      0.87      0.00
   10   10    1     -5.09      0.00
   12   10    1     -3.83      0.00
   14   10    1     -4.94      0.00
   16   10    1     -7.66      0.00
   18   10    1      3.12      0.00
   20   10    1     -1.33      0.00
   22   10    1      2.42      0.00
   24   10    1      6.86      0.00
   26   10    1      1.31      0.00
  -25   11    1      4.48      0.00
  -23   11    1      8.58      0.00
  -21   11    1      3.56      0.00
  -19   11    1      0.40      0.00
  -17   11    1      2.19      0.00
  -15   11    1      0.84      0.00
  -13   11    1     -2.81      0.00
  -11   11    1      5.31      0.00
   -9   11    1     10.84      0.00
   -7   11    1     -3.06      0.00
   -5   11    1     -9.88      0.00
   -3   11    1     -8.79      0.00
   -1   11    1    -12.53      0.00
    1   11    1     -1.70      0.00
    3   11    1      5.09      0.00
    5   11    1     -3.18      0.00
    7   11    1     -0.11      0.00
    9   11    1      2.04      0.00
   11   11    1     -1.19      0.00
   13   11    1     -3.21      0.00
   15   11    1     -7.34      0.00
   17   11    1     -1.44      0.00
   19   11    1      2.51      0.00
   21   11    1      1.05      0.00
   23   11    1      5.98      0.00
  -22   12    1      3.30      0.00
  -20   12    1      0.38      0.00
  -18   12    1     -4.37      0.00
  -16   12    1     -3.35      0.00
  -14   12    1     -0.09      0.00
  -12   12    1      0.34      0.00
  -10   12    1     10.53      0.00
   -8   12    1      5.29      0.00
   -6   12    1     -3.52      0.00
   -4   12    1     -0.50      0.00
   -2   12    1     -5.92      0.00
    0   12    1     -7.62      0.00
    2   12    1     -2.11      0.00
    4   12    1      4.89      0.00
    6   12    1      4.10      0.00
    8   12    1      1.06      0.00
   10   12    1      4.11      0.00
   12   12    1     -0.13      0.00
   14   12    1     -1.81      0.00
   16   12    1     -4.40      0.00
   18   12    1     -2.98      0.00
   20   12    1      5.89      0.00
  -19   13    1     -2.97      0.00
  -17   13    1     -7.73      0.00
  -15   13    1     -4.06      0.00
  -13   13    1     -3.57      0.00
  -11   13    1      3.23      0.00
   -9   13    1      6.04      0.00
   -7   13    1     -1.10      0.00
   -5   13    1      0.85      0.00
   -3   13    1      3.42      0.00
   -1   13    1      1.56      0.00
    1   13    1     -7.11      0.00
    3   13    1     -4.62      0.00
    5   13    1      7.67      0.00
    7   13    1      0.27      0.00
    9   13    1     -1.34      0.00
   11   13    1      4.88      0.00
   13   13    1      3.18      0.00
   15   13    1      0.08      0.00
   17   13    1     -5.85      0.00
  -14   14    1     -5.45      0.00
  -12   14    1     -0.77      0.00
  -10   14    1     -0.56      0.00
   -8   14    1     -2.51      0.00
   -6   14    1      1.12      0.00
   -4   14    1      0.40      0.00
   -2   14    1      3.64      0.00
    0   14    1      2.44      0.00
    2   14    1     -6.51      0.00
    4   14    1     -2.53      0.00
    6   14    1      1.24      0.00
    8   14    1     -1.42      0.00
   10   14    1      3.13      0.00
   12   14    1      8.23      0.00
   14   14    1      4.87      0.00
   -7   15    1      0.53      0.00
   -5   15    1      1.43      0.00
   -3   15    1     -0.58      0.00
   -1   15    1      1.44      0.00
    1   15    1      1.51      0.00
    3   15    1     -1.39      0.00
    5   15    1     -2.80      0.00
    7   15    1      1.97      0.00
  -36    0    2      1.34      0.00
  -34    0    2      0.98      0.00
  -32    0    2      3.70      0.00
  -30    0    2     16.53      0.00
  -26    0    2    -10.31      0.00
  -24    0    2     15.40      0.00
  -20    0    2      2.05      0.00
  -18    0    2      8.59      0.00
  -16    0    2    -23.71      0.00
  -12    0    2      0.28      0.00
  -10    0    2    -39.98      0.00
   -8    0    2     34.34      0.00
   -6    0    2   -138.76      0.00
   -4    0    2   -128.69      0.00
   -2    0    2     73.32      0.00
    0    0    2   -117.61      0.00
    2    0    2   -111.55      0.00
    4    0    2     81.62      0.00
    6    0    2     25.11      0.00
    8    0    2     39.36      0.00
   10    0    2     13.75      0.00
   12    0    2    -32.73      0.00
   14    0    2     18.80      0.00
   16    0    2    -19.00      0.00
   18    0    2    -20.35      0.00
   20    0    2     10.29      0.00
   22    0    2     -0.24      0.00
   24    0    2     11.47      0.00
   26    0    2     -2.18      0.00
   28    0    2    -16.19      0.00
   30    0    2     -1.39      0.00
   32    0    2      1.41      0.00
   34    0    2     -3.46      0.00
  -37    1    2      0.40      0.00
  -35    1    2      0.22      0.00
  -33    1    2      0.84      0.00
  -31    1    2     10.26      0.00
  -29    1    2      6.80      0.00
  -25    1    2      1.69      0.00
  -23    1    2      2.07      0.00
  -21    1    2     -6.22      0.00
  -17    1    2    -13.04      0.00
  -15    1    2      7.52      0.00
  -13    1    2     26.14      0.00
  -11    1    2    -17.00      0.00
   -9    1    2     17.11      0.00
   -7    1    2    -48.24      0.00
   -5    1    2   -107.95      0.00
   -3    1    2     29.87      0.00
   -1    1    2    -35.82      0.00
    1    1    2   -108.26      0.00
    3    1    2     38.94      0.00
    5    1    2     44.30      0.00
    7    1    2     29.71      0.00
    9    1    2     35.58      0.00
   11    1    2    -25.36      0.00
   13    1    2      1.66      0.00
   15    1    2      1.74      0.00
   17    1    2    -23.94      0.00
   19    1    2      5.06      0.00
   21    1    2      1.33      0.00
   23    1    2      2.22      0.00
   25    1    2      7.12      0.00
   27    1    2     -9.66      0.00
   29    1    2     -5.82      0.00
   31    1    2      1.22      0.00
   33    1    2     -1.63      0.00
  -36    2    2     -0.90      0.00
  -34    2    2     -0.56      0.00
  -32    2    2      6.92      0.00
  -30    2    2      4.86      0.00
  -28    2    2     -3.57      0.00
  -26    2    2     -3.67      0.00
  -24    2    2     -5.48      0.00
  -22    2    2     -6.38      0.00
  -16    2    2      3.93      0.00
  -14    2    2     12.36      0.00
  -12    2    2     10.79      0.00
   -8    2    2    -33.37      0.00
   -6    2    2    -18.75      0.00
   -4    2    2     70.77      0.00
   -2    2    2    -36.64      0.00
    0    2    2    -52.96      0.00
    2    2    2     60.29      0.00
    4    2    2     36.42      0.00
    6    2    2     25.42      0.00
    8    2    2     28.53      0.00
   10    2    2     -7.41      0.00
   12    2    2     -2.60      0.00
   14    2    2     -2.84      0.00
   16    2    2     -7.04      0.00
   18    2    2      3.23      0.00
   20    2    2      1.62      0.00
   22    2    2     -2.36      0.00
   24    2    2     -0.14      0.00
   26    2    2     -1.01      0.00
   28    2    2     -0.61      0.00
   30    2    2      0.77      0.00
   32    2    2     -1.83      0.00
   34    2    2      0.04      0.00
  -35    3    2      0.74      0.00
  -33    3    2      6.38      0.00
  -31    3    2      3.66      0.00
  -29    3    2     -0.76      0.00
  -27    3    2      2.13      0.00
  -25    3    2     -6.39      0.00
  -23    3    2     -3.48      0.00
  -21    3    2      4.39      0.00
  -19    3    2    -12.66      0.00
  -17    3    2      2.17      0.00
  -15    3    2      3.35      0.00
  -13    3    2      0.08      0.00
  -11    3    2     34.66      0.00
   -9    3    2    -27.06      0.00
   -7    3    2      2.23      0.00
   -5    3    2     92.33      0.00
   -3    3    2    -32.46      0.00
   -1    3    2    -31.84      0.00
    1    3    2     62.32      0.00
    3    3    2     17.64      0.00
    5    3    2     33.32      0.00
    7    3    2      6.55      0.00
    9    3    2    -20.82      0.00
   11    3    2     21.73      0.00
   13    3    2    -15.64      0.00
   15    3    2     -7.80      0.00
   17    3    2     17.80      0.00
   19    3    2     -6.87      0.00
   21    3    2      1.07      0.00
   23    3    2     -3.53      0.00
   25    3    2     -9.54      0.00
   27    3    2      4.99      0.00
   29    3    2      2.77      0.00
   31    3    2     -3.24      0.00
   33    3    2     -0.05      0.00
  -36    4    2      0.65      0.00
  -34    4    2      8.06      0.00
  -32    4    2      3.72      0.00
  -30    4    2     -3.89      0.00
  -28    4    2      5.53      0.00
  -26    4    2      4.00      0.00
  -24    4    2     -8.71      0.00
  -22    4    2     13.51      0.00
  -20    4    2      0.44      0.00
  -18    4    2     -7.69      0.00
  -16    4    2     11.64      0.00
  -14    4    2    -15.36      0.00
  -12    4    2     13.61      0.00
  -10    4    2     -9.36      0.00
   -8    4    2    -23.33      0.00
   -6    4    2     74.45      0.00
   -4    4    2    -27.53      0.00
   -2    4    2    -55.60      0.00
    0    4    2     68.19      0.00
    2    4    2    -15.71      0.00
    4    4    2     -5.48      0.00
    6    4    2     37.79      0.00
    8    4    2    -44.74      0.00
   10    4    2      7.47      0.00
   12    4    2     16.93      0.00
   14    4    2    -26.90      0.00
   16    4    2     15.54      0.00
   18    4    2      2.24      0.00
   20    4    2     -9.61      0.00
   22    4    2      5.06      0.00
   24    4    2    -14.71      0.00
   26    4    2     -3.44      0.00
   28    4    2      8.55      0.00
   30    4    2     -6.17      0.00
   32    4    2     -2.93      0.00
  -35    5    2      3.66      0.00
  -33    5    2      6.16      0.00
  -31    5    2     -2.87      0.00
  -29    5    2     -6.22      0.00
  -27    5    2      9.02      0.00
  -25    5    2     -2.36      0.00
  -23    5    2     -3.65      0.00
  -21    5    2     12.49      0.00
  -19    5    2     -4.60      0.00
  -17    5    2      8.10      0.00
  -15    5    2      1.43      0.00
  -13    5    2    -16.73      0.00
  -11    5    2      7.92      0.00
   -9    5    2    -10.65      0.00
   -7    5    2      4.38      0.00
   -3    5    2    -46.07      0.00
   -1    5    2     14.54      0.00
    1    5    2     18.30      0.00
    3    5    2    -41.35      0.00
    5    5    2     11.79      0.00
    7    5    2     15.01      0.00
    9    5    2    -20.43      0.00
   11    5    2     10.58      0.00
   13    5    2      4.80      0.00
   15    5    2     -7.14      0.00
   17    5    2      3.93      0.00
   19    5    2     -5.67      0.00
   21    5    2      0.41      0.00
   23    5    2     -0.89      0.00
   25    5    2     -8.58      0.00
   27    5    2      4.62      0.00
   29    5    2      0.63      0.00
   31    5    2     -4.88      0.00
  -34    6    2      0.05      0.00
  -32    6    2      3.20      0.00
  -30    6    2     -6.97      0.00
  -28    6    2     -5.80      0.00
  -26    6    2      2.70      0.00
  -24    6    2     -3.66      0.00
  -22    6    2     -7.28      0.00
  -20    6    2     -0.85      0.00
  -18    6    2      9.90      0.00
  -16    6    2      2.74      0.00
  -14    6    2    -10.99      0.00
  -12    6    2     -3.65      0.00
  -10    6    2      8.76      0.00
   -8    6    2     -6.97      0.00
   -6    6    2    -24.28      0.00
   -2    6    2      4.03      0.00
    0    6    2     -2.74      0.00
    2    6    2      2.84      0.00
    4    6    2    -15.29      0.00
    6    6    2      9.46      0.00
    8    6    2     24.35      0.00
   10    6    2     -9.66      0.00
   12    6    2      2.11      0.00
   14    6    2     10.39      0.00
   16    6    2     -5.97      0.00
   18    6    2     -2.62      0.00
   20    6    2      2.57      0.00
   22    6    2      5.00      0.00
   24    6    2      5.78      0.00
   26    6    2      2.17      0.00
   28    6    2     -0.73      0.00
   30    6    2      3.40      0.00
  -33    7    2     -2.16      0.00
  -31    7    2     -1.51      0.00
  -29    7    2     -3.94      0.00
  -27    7    2     -7.88      0.00
  -25    7    2     -0.05      0.00
  -23    7    2     -2.72      0.00
  -21    7    2    -17.66      0.00
  -19    7    2     10.34      0.00
  -17    7    2      6.14      0.00
  -15    7    2    -15.62      0.00
  -13    7    2      4.80      0.00
  -11    7    2     -9.96      0.00
   -9    7    2     -6.46      0.00
   -3    7    2     15.05      0.00
   -1    7    2      0.96      0.00
    1    7    2    -11.35      0.00
    3    7    2     13.85      0.00
    7    7    2      5.42      0.00
    9    7    2     17.52      0.00
   11    7    2     -9.99      0.00
   13    7    2      2.33      0.00
   15    7    2      6.40      0.00
   17    7    2     -4.80      0.00
   19    7    2      4.34      0.00
   21    7    2      6.70      0.00
   23    7    2     10.34      0.00
   25    7    2     12.46      0.00
   27    7    2     -2.37      0.00
   29    7    2     -1.29      0.00
  -32    8    2     -6.79      0.00
  -30    8    2      0.96      0.00
  -28    8    2     -2.05      0.00
  -26    8    2     -8.65      0.00
  -24    8    2      4.65      0.00
  -22    8    2     -5.82      0.00
  -20    8    2     -5.31      0.00
  -18    8    2      8.39      0.00
  -16    8    2     -7.87      0.00
  -14    8    2      4.85      0.00
  -12    8    2     -6.63      0.00
  -10    8    2    -28.67      0.00
   -8    8    2      6.31      0.00
   -6    8    2    -12.86      0.00
   -4    8    2    -22.81      0.00
    0    8    2    -13.73      0.00
    2    8    2     -3.44      0.00
    4    8    2      7.66      0.00
    6    8    2    -17.51      0.00
    8    8    2      2.41      0.00
   10    8    2      3.90      0.00
   12    8    2     -7.40      0.00
   14    8    2      2.64      0.00
   16    8    2     -1.40      0.00
   18    8    2      4.28      0.00
   20    8    2      4.84      0.00
   22    8    2      2.79      0.00
   24    8    2     13.40      0.00
   26    8    2      3.25      0.00
   28    8    2     -7.01      0.00
  -29    9    2      2.09      0.00
  -27    9    2     -4.92      0.00
  -25    9    2     -0.44      0.00
  -23    9    2      4.78      0.00
  -21    9    2      0.77      0.00
  -19    9    2     -2.69      0.00
  -17    9    2      0.52      0.00
  -15    9    2     14.30      0.00
  -13    9    2      1.14      0.00
   -9    9    2      1.66      0.00
   -7    9    2      5.51      0.00
   -5    9    2    -11.34      0.00
   -3    9    2     -3.58      0.00
   -1    9    2     -7.84      0.00
    1    9    2    -10.07      0.00
    3    9    2      4.55      0.00
    5    9    2     -7.37      0.00
    7    9    2     -7.54      0.00
    9    9    2      1.91      0.00
   11    9    2     -3.77      0.00
   13    9    2      0.23      0.00
   15    9    2     -4.51      0.00
   17    9    2      0.56      0.00
   19    9    2      6.64      0.00
   21    9    2     -4.92      0.00
   23    9    2      4.47      0.00
   25    9    2      6.81      0.00
   27    9    2     -4.97      0.00
  -28   10    2     -1.78      0.00
  -26   10    2      1.00      0.00
  -24   10    2      3.21      0.00
  -22   10    2      3.75      0.00
  -20   10    2      0.63      0.00
  -18   10    2     -4.29      0.00
  -16   10    2     12.08      0.00
  -14   10    2     11.80      0.00
  -12   10    2     -1.95      0.00
   -8   10    2      7.20      0.00
   -6   10    2      1.86      0.00
   -4   10    2     11.33      0.00
   -2   10    2     -0.88      0.00
    0   10    2     -5.26      0.00
    4   10    2      1.11      0.00
    6   10    2      0.49      0.00
    8   10    2      1.86      0.00
   10   10    2     -0.56      0.00
   12   10    2     -0.67      0.00
   14   10    2     -2.20      0.00
   16   10    2     -3.19      0.00
   18   10    2      1.65      0.00
   20   10    2      0.78      0.00
   22   10    2     -1.31      0.00
   24   10    2      3.43      0.00
  -25   11    2      4.58      0.00
  -23   11    2      0.13      0.00
  -21   11    2      1.10      0.00
  -19   11    2     -1.39      0.00
  -17   11    2     -1.69      0.00
  -15   11    2      4.92      0.00
  -13   11    2      5.74      0.00
  -11   11    2     11.37      0.00
   -9   11    2      7.60      0.00
   -7   11    2     -0.63      0.00
   -5   11    2      8.08      0.00
   -3   11    2      6.58      0.00
   -1   11    2      6.56      0.00
    1   11    2      5.90      0.00
    3   11    2     -2.64      0.00
    5   11    2      6.44      0.00
    7   11    2      4.07      0.00
    9   11    2     -2.76      0.00
   11   11    2     -0.56      0.00
   13   11    2     -3.57      0.00
   15   11    2      1.76      0.00
   17   11    2     -0.81      0.00
   19   11    2     -1.35      0.00
   21   11    2      5.04      0.00
   23   11    2     -0.37      0.00
  -22   12    2     -3.09      0.00
  -20   12    2     -0.80      0.00
  -18   12    2     -4.05      0.00
  -16   12    2     -4.13      0.00
  -14   12    2     -0.92      0.00
  -12   12    2      3.61      0.00
  -10   12    2     -0.43      0.00
   -8   12    2     -8.12      0.00
   -6   12    2     -2.04      0.00
   -4   12    2     -3.19      0.00
   -2   12    2      2.82      0.00
    0   12    2     13.67      0.00
    2   12    2     -4.44      0.00
    4   12    2     -5.27      0.00
    6   12    2      4.99      0.00
    8   12    2     -6.07      0.00
   10   12    2     -5.62      0.00
   12   12    2     -2.55      0.00
   14   12    2      0.08      0.00
   16   12    2      5.17      0.00
   18   12    2      0.23      0.00
   20   12    2      0.44      0.00
  -19   13    2     -3.10      0.00
  -17   13    2     -0.40      0.00
  -15   13    2     -2.34      0.00
  -13   13    2     -2.27      0.00
  -11   13    2     -3.58      0.00
   -9   13    2    -14.80      0.00
   -7   13    2     -9.90      0.00
   -5   13    2     -2.17      0.00
   -3   13    2     -4.19      0.00
   -1   13    2      5.15      0.00
    1   13    2      3.20      0.00
    3   13    2     -7.55      0.00
    5   13    2     -5.19      0.00
    7   13    2     -5.30      0.00
    9   13    2     -6.28      0.00
   11   13    2     -0.71      0.00
   13   13    2      1.63      0.00
   15   13    2      2.20      0.00
   17   13    2      5.64      0.00
  -16   14    2      3.21      0.00
  -14   14    2      0.39      0.00
  -12   14    2      0.47      0.00
  -10   14    2     -9.34      0.00
   -8   14    2    -10.97      0.00
   -6   14    2     -1.72      0.00
   -4   14    2      4.45      0.00
   -2   14    2      4.23      0.00
    0   14    2     -0.15      0.00
    2   14    2      0.71      0.00
    4   14    2     -3.45      0.00
    6   14    2     -8.55      0.00
    8   14    2     -2.02      0.00
   10   14    2      4.14      0.00
   12   14    2      5.58      0.00
   -7   15    2     -1.89      0.00
   -5   15    2      2.75      0.00
   -3   15    2     11.05      0.00
   -1   15    2      3.25      0.00
    1   15    2     -0.20      0.00
    3   15    2      2.38      0.00
    5   15    2     -4.02      0.00
  -37    1    3      0.39      0.00
  -35    1    3      0.95      0.00
  -33    1    3      1.07      0.00
  -31    1    3     -4.50      0.00
  -29    1    3     -6.83      0.00
  -27    1    3      7.23      0.00
  -25    1    3      1.51      0.00
  -23    1    3     -5.04      0.00
  -21    1    3      8.16      0.00
  -19    1    3     -2.03      0.00
  -17    1    3      4.60      0.00
  -15    1    3     -3.11      0.00
  -13    1    3    -40.78      0.00
  -11    1    3      4.73      0.00
   -9    1    3      2.74      0.00
   -7    1    3    -24.91      0.00
   -5    1    3     55.61      0.00
   -3    1    3      6.99      0.00
   -1    1    3    -61.16      0.00
    1    1    3     11.57      0.00
    3    1    3     13.53      0.00
    5    1    3      6.14      0.00
    7    1    3      9.28      0.00
    9    1    3    -13.90      0.00
   11    1    3      8.31      0.00
   13    1    3     -5.60      0.00
   15    1    3    -13.36      0.00
   17    1    3     11.73      0.00
   19    1    3      5.15      0.00
   21    1    3      6.88      0.00
   23    1    3      2.51      0.00
   25    1    3     -7.39      0.00
   27    1    3      0.48      0.00
   29    1    3      3.06      0.00
   31    1    3      2.58      0.00
   33    1    3      2.53      0.00
  -36    2    3     -2.72      0.00
  -34    2    3      2.33      0.00
  -32    2    3      0.78      0.00
  -30    2    3    -10.70      0.00
  -28    2    3      2.38      0.00
  -26    2    3      7.20      0.00
  -24    2    3    -11.27      0.00
  -22    2    3      7.98      0.00
  -20    2    3      3.04      0.00
  -18    2    3      2.10      0.00
  -14    2    3    -48.14      0.00
  -12    2    3    -17.75      0.00
  -10    2    3      7.50      0.00
   -8    2    3    -48.39      0.00
   -6    2    3     75.06      0.00
   -4    2    3     40.61      0.00
   -2    2    3    -94.92      0.00
    0    2    3     26.66      0.00
    2    2    3     18.97      0.00
    4    2    3    -19.98      0.00
    6    2    3     42.25      0.00
    8    2    3    -23.65      0.00
   10    2    3     -6.28      0.00
   12    2    3     17.19      0.00
   14    2    3    -34.69      0.00
   16    2    3      4.89      0.00
   18    2    3     10.82      0.00
   20    2    3     -3.03      0.00
   22    2    3     10.54      0.00
   24    2    3     -8.73      0.00
   26    2    3     -6.46      0.00
   28    2    3      3.87      0.00
   30    2    3     -1.10      0.00
   32    2    3      2.31      0.00
  -37    3    3     -7.25      0.00
  -35    3    3     -2.08      0.00
  -33    3    3      6.17      0.00
  -31    3    3     -3.29      0.00
  -29    3    3     -6.55      0.00
  -27    3    3      7.63      0.00
  -25    3    3     -5.52      0.00
  -23    3    3     -5.23      0.00
  -21    3    3      7.49      0.00
  -19    3    3     -2.84      0.00
  -17    3    3     21.59      0.00
  -15    3    3    -11.91      0.00
  -13    3    3    -36.95      0.00
  -11    3    3      4.69      0.00
   -9    3    3    -40.97      0.00
   -7    3    3     36.34      0.00
   -5    3    3     74.26      0.00
   -3    3    3    -90.23      0.00
   -1    3    3      1.29      0.00
    1    3    3     71.94      0.00
    3    3    3    -49.40      0.00
    5    3    3     10.69      0.00
    7    3    3     19.12      0.00
    9    3    3    -29.13      0.00
   11    3    3     15.26      0.00
   13    3    3    -14.06      0.00
   15    3    3    -18.73      0.00
   17    3    3      8.80      0.00
   19    3    3    -10.07      0.00
   21    3    3      1.04      0.00
   23    3    3      2.06      0.00
   25    3    3    -11.26      0.00
   27    3    3      0.53      0.00
   29    3    3     -0.74      0.00
   31    3    3     -4.64      0.00
  -36    4    3     -2.33      0.00
  -34    4    3      1.76      0.00
  -32    4    3      3.48      0.00
  -30    4    3     -3.49      0.00
  -28    4    3     -3.58      0.00
  -26    4    3      2.92      0.00
  -24    4    3     -1.26      0.00
  -22    4    3     -6.23      0.00
  -20    4    3     -2.88      0.00
  -18    4    3      7.48      0.00
  -16    4    3      5.44      0.00
  -14    4    3     -9.89      0.00
  -12    4    3    -21.87      0.00
  -10    4    3    -14.19      0.00
   -8    4    3     31.49      0.00
   -6    4    3     22.49      0.00
   -4    4    3    -37.91      0.00
   -2    4    3     -9.03      0.00
    0    4    3     37.49      0.00
    2    4    3      7.43      0.00
    4    4    3    -26.79      0.00
    6    4    3     -9.13      0.00
    8    4    3     15.16      0.00
   10    4    3     -3.96      0.00
   12    4    3    -12.71      0.00
   14    4    3     -2.10      0.00
   16    4    3     -7.69      0.00
   18    4    3     -9.38      0.00
   20    4    3     -5.70      0.00
   22    4    3     -0.37      0.00
   24    4    3      0.94      0.00
   26    4    3     -2.87      0.00
   28    4    3     -3.24      0.00
   30    4    3     -2.92      0.00
   32    4    3     -0.91      0.00
  -35    5    3      3.32      0.00
  -33    5    3     -1.71      0.00
  -31    5    3      1.20      0.00
  -29    5    3     -1.95      0.00
  -27    5    3     -6.32      0.00
  -25    5    3      6.85      0.00
  -23    5    3      1.64      0.00
  -21    5    3    -18.62      0.00
  -19    5    3      1.12      0.00
  -17    5    3     -1.22      0.00
  -15    5    3     -3.75      0.00
  -13    5    3     -1.34      0.00
  -11    5    3    -27.07      0.00
   -9    5    3     41.76      0.00
   -7    5    3     25.25      0.00
   -5    5    3    -57.96      0.00
   -3    5    3     25.02      0.00
   -1    5    3     14.12      0.00
    1    5    3    -19.58      0.00
    3    5    3     25.79      0.00
    5    5    3    -34.94      0.00
    7    5    3     -9.49      0.00
    9    5    3     32.49      0.00
   11    5    3    -22.39      0.00
   13    5    3     -3.10      0.00
   15    5    3      3.60      0.00
   17    5    3    -15.53      0.00
   19    5    3     -0.72      0.00
   21    5    3     -5.80      0.00
   23    5    3      0.03      0.00
   25    5    3      9.64      0.00
   27    5    3     -6.74      0.00
   29    5    3     -8.13      0.00
   31    5    3      3.05      0.00
  -34    6    3      2.92      0.00
  -32    6    3     -4.13      0.00
  -30    6    3      0.70      0.00
  -28    6    3     -1.82      0.00
  -26    6    3     -4.36      0.00
  -24    6    3     11.04      0.00
  -22    6    3     -7.83      0.00
  -20    6    3    -14.65      0.00
  -18    6    3      3.06      0.00
  -16    6    3    -16.10      0.00
  -14    6    3      1.18      0.00
  -12    6    3      1.03      0.00
  -10    6    3      1.51      0.00
   -8    6    3     38.79      0.00
   -6    6    3    -18.65      0.00
   -4    6    3     -7.47      0.00
   -2    6    3     36.00      0.00
    0    6    3    -27.25      0.00
    2    6    3      3.25      0.00
    4    6    3     17.54      0.00
    6    6    3    -29.29      0.00
    8    6    3      7.30      0.00
   10    6    3      7.96      0.00
   12    6    3     -8.49      0.00
   14    6    3      3.03      0.00
   16    6    3     -9.73      0.00
   18    6    3     -1.14      0.00
   20    6    3      2.46      0.00
   22    6    3     -8.22      0.00
   24    6    3      6.32      0.00
   26    6    3      2.91      0.00
   28    6    3    -11.63      0.00
   30    6    3     -2.86      0.00
  -33    7    3      2.04      0.00
  -31    7    3     -6.52      0.00
  -29    7    3      2.37      0.00
  -27    7    3     -0.70      0.00
  -25    7    3      0.20      0.00
  -23    7    3      4.63      0.00
  -21    7    3     -3.85      0.00
  -19    7    3     -1.30      0.00
  -17    7    3    -12.07      0.00
  -15    7    3     -8.79      0.00
  -13    7    3     13.51      0.00
  -11    7    3      1.27      0.00
   -9    7    3      1.96      0.00
   -5    7    3      4.48      0.00
   -3    7    3     10.44      0.00
   -1    7    3      1.54      0.00
    1    7    3     -7.84      0.00
    3    7    3     11.99      0.00
    5    7    3      3.53      0.00
    7    7    3    -12.60      0.00
    9    7    3     -0.27      0.00
   11    7    3      5.87      0.00
   13    7    3      3.68      0.00
   15    7    3     -6.47      0.00
   17    7    3     -4.91      0.00
   19    7    3      9.27      0.00
   21    7    3     -0.91      0.00
   23    7    3     -4.55      0.00
   25    7    3      0.35      0.00
   27    7    3     -5.47      0.00
   29    7    3     -3.77      0.00
  -32    8    3     -4.08      0.00
  -30    8    3     -3.43      0.00
  -28    8    3      2.94      0.00
  -26    8    3      1.10      0.00
  -24    8    3     -0.74      0.00
  -22    8    3      5.51      0.00
  -20    8    3      9.11      0.00
  -18    8    3    -11.39      0.00
  -16    8    3     -6.10      0.00
  -14    8    3     12.23      0.00
  -12    8    3      2.30      0.00
  -10    8    3     -0.55      0.00
   -8    8    3     -1.68      0.00
   -6    8    3      6.90      0.00
   -4    8    3     11.76      0.00
   -2    8    3     -1.75      0.00
    0    8    3      1.11      0.00
    2    8    3      5.47      0.00
    4    8    3      3.84      0.00
    6    8    3     -1.49      0.00
    8    8    3     -4.70      0.00
   10    8    3      2.70      0.00
   12    8    3      6.02      0.00
   14    8    3      0.99      0.00
   16    8    3     -5.80      0.00
   18    8    3      2.85      0.00
   20    8    3      7.85      0.00
   22    8    3     -1.56      0.00
   24    8    3     -5.63      0.00
   26    8    3     -6.95      0.00
   28    8    3     -2.01      0.00
  -29    9    3     -1.45      0.00
  -27    9    3      3.33      0.00
  -25    9    3      2.25      0.00
  -23    9    3     -0.87      0.00
  -21    9    3     10.02      0.00
  -19    9    3     -0.81      0.00
  -17    9    3     -5.00      0.00
  -15    9    3     10.12      0.00
  -13    9    3     -1.73      0.00
  -11    9    3      4.00      0.00
   -9    9    3      5.54      0.00
   -7    9    3     -7.79      0.00
   -5    9    3      8.06      0.00
   -3    9    3      2.53      0.00
   -1    9    3     -3.98      0.00
    1    9    3      5.74      0.00
    3    9    3     -0.90      0.00
    5    9    3      1.83      0.00
    7    9    3      1.87      0.00
    9    9    3     -1.65      0.00
   11    9    3      2.42      0.00
   13    9    3     -1.24      0.00
   15    9    3     -0.80      0.00
   17    9    3     -1.02      0.00
   19    9    3     -1.56      0.00
   21    9    3      5.08      0.00
   23    9    3     -1.14      0.00
   25    9    3    -10.25      0.00
  -28   10    3     -0.02      0.00
  -26   10    3      6.55      0.00
  -24   10    3      0.20      0.00
  -22   10    3      0.28      0.00
  -20   10    3      1.15      0.00
  -18   10    3      0.85      0.00
  -16   10    3      5.27      0.00
  -14   10    3     -6.35      0.00
  -12   10    3      1.78      0.00
  -10   10    3     11.74      0.00
   -8   10    3     -4.60      0.00
   -6   10    3      4.42      0.00
   -4   10    3      3.26      0.00
   -2   10    3     -9.65      0.00
    0   10    3      6.51      0.00
    2   10    3     -0.45      0.00
    4   10    3     -5.02      0.00
    6   10    3      8.49      0.00
    8   10    3     -3.26      0.00
   10   10    3     -4.42      0.00
   12   10    3     -3.79      0.00
   14   10    3     -7.55      0.00
   16   10    3      2.32      0.00
   18   10    3     -6.15      0.00
   20   10    3     -4.11      0.00
   22   10    3      7.42      0.00
   24   10    3     -4.90      0.00
  -25   11    3      3.23      0.00
  -23   11    3      0.42      0.00
  -21   11    3      0.01      0.00
  -19   11    3      0.29      0.00
  -17   11    3      2.60      0.00
  -15   11    3     -5.30      0.00
  -13   11    3     -2.97      0.00
  -11   11    3      7.47      0.00
   -9   11    3     -2.75      0.00
   -7   11    3      2.01      0.00
   -5   11    3      7.67      0.00
   -3   11    3    -10.56      0.00
   -1   11    3     -0.14      0.00
    1   11    3      9.76      0.00
    3   11    3     -6.58      0.00
    5   11    3     -0.77      0.00
    7   11    3      1.29      0.00
    9   11    3     -8.60      0.00
   11   11    3     -5.82      0.00
   13   11    3     -8.24      0.00
   15   11    3     -5.13      0.00
   17   11    3     -0.84      0.00
   19   11    3     -4.50      0.00
   21   11    3      2.08      0.00
  -24   12    3      1.64      0.00
  -22   12    3      5.55      0.00
  -20   12    3      1.17      0.00
  -18   12    3     -0.61      0.00
  -16   12    3     -1.71      0.00
  -14   12    3     -0.56      0.00
  -12   12    3      2.59      0.00
  -10   12    3     -2.42      0.00
   -8   12    3     -3.66      0.00
   -6   12    3      0.25      0.00
   -4   12    3     -2.50      0.00
   -2   12    3     -1.08      0.00
    0   12    3      6.03      0.00
    2   12    3      4.52      0.00
    4   12    3     -2.69      0.00
    6   12    3     -5.08      0.00
    8   12    3     -4.76      0.00
   10   12    3     -5.50      0.00
   12   12    3     -4.24      0.00
   14   12    3     -4.17      0.00
   16   12    3     -4.30      0.00
   18   12    3      0.90      0.00
  -19   13    3      0.46      0.00
  -17   13    3      0.92      0.00
  -15   13    3      1.01      0.00
  -13   13    3      4.58      0.00
  -11   13    3     -0.20      0.00
   -9   13    3     -2.96      0.00
   -7   13    3     -4.61      0.00
   -5   13    3     -7.98      0.00
   -3   13    3      3.71      0.00
   -1   13    3      3.74      0.00
    1   13    3      0.16      0.00
    3   13    3      6.39      0.00
    5   13    3     -3.42      0.00
    7   13    3     -6.90      0.00
    9   13    3     -0.59      0.00
   11   13    3     -2.32      0.00
   13   13    3     -1.41      0.00
   15   13    3     -0.96      0.00
  -14   14    3      3.05      0.00
  -12   14    3      3.73      0.00
  -10   14    3     -1.36      0.00
   -8   14    3     -0.43      0.00
   -6   14    3     -6.70      0.00
   -4   14    3     -3.54      0.00
   -2   14    3      3.54      0.00
    0   14    3     -4.06      0.00
    2   14    3      1.56      0.00
    4   14    3      2.24      0.00
    6   14    3     -5.08      0.00
    8   14    3      0.70      0.00
   10   14    3     -0.10      0.00
   -7   15    3     -2.66      0.00
   -5   15    3     -2.07      0.00
   -3   15    3     -1.82      0.00
   -1   15    3     -4.79      0.00
    1   15    3     -2.39      0.00
  -38    0    4     -4.43      0.00
  -36    0    4     -1.02      0.00
  -34    0    4      7.29      0.00
  -32    0    4      5.68      0.00
  -30    0    4    -10.06      0.00
  -28    0    4     -1.94      0.00
  -26    0    4      9.07      0.00
  -24    0    4     -9.27      0.00
  -22    0    4     -4.73      0.00
  -20    0    4     -7.03      0.00
  -18    0    4     -1.69      0.00
  -16    0    4     25.74      0.00
  -14    0    4    -12.02      0.00
  -12    0    4     -6.40      0.00
  -10    0    4     13.87      0.00
   -8    0    4    -24.75      0.00
   -6    0    4     36.75      0.00
   -4    0    4     47.14      0.00
   -2    0    4     -9.73      0.00
    0    0    4     20.13      0.00
    4    0    4    -44.71      0.00
    6    0    4     14.13      0.00
    8    0    4     -6.64      0.00
   10    0    4     20.98      0.00
   12    0    4     35.44      0.00
   14    0    4    -15.56      0.00
   16    0    4     -7.36      0.00
   18    0    4     -2.55      0.00
   20    0    4      0.45      0.00
   22    0    4     16.23      0.00
   24    0    4      3.02      0.00
   26    0    4      1.54      0.00
   28    0    4      1.65      0.00
   30    0    4     -5.02      0.00
   32    0    4      0.01      0.00
  -37    1    4     -1.29      0.00
  -35    1    4      1.47      0.00
  -33    1    4      5.25      0.00
  -31    1    4     -2.30      0.00
  -29    1    4     -5.30      0.00
  -27    1    4      9.58      0.00
  -25    1    4     -1.72      0.00
  -23    1    4     -9.74      0.00
  -21    1    4     -0.92      0.00
  -19    1    4    -12.18      0.00
  -17    1    4     14.67      0.00
  -15    1    4      6.67      0.00
  -13    1    4    -26.02      0.00
  -11    1    4     17.03      0.00
   -9    1    4    -16.88      0.00
   -7    1    4    -11.44      0.00
   -5    1    4     64.26      0.00
   -3    1    4    -18.47      0.00
   -1    1    4    -20.93      0.00
    1    1    4     29.61      0.00
    3    1    4    -44.65      0.00
    5    1    4    -15.93      0.00
    7    1    4     15.67      0.00
    9    1    4     -6.13      0.00
   11    1    4     30.05      0.00
   13    1    4      6.01      0.00
   15    1    4    -16.40      0.00
   17    1    4      2.76      0.00
   19    1    4     -4.60      0.00
   21    1    4      6.63      0.00
   23    1    4      9.33      0.00
   25    1    4     -1.38      0.00
   27    1    4      4.24      0.00
   29    1    4      0.68      0.00
   31    1    4     -2.92      0.00
  -36    2    4      0.63      0.00
  -34    2    4     -1.52      0.00
  -32    2    4     -0.04      0.00
  -30    2    4      1.67      0.00
  -28    2    4      6.43      0.00
  -26    2    4      3.08      0.00
  -24    2    4     -6.30      0.00
  -22    2    4     -3.70      0.00
  -20    2    4     -6.06      0.00
  -18    2    4     -1.54      0.00
  -16    2    4      5.51      0.00
  -14    2    4    -15.49      0.00
  -12    2    4     -6.71      0.00
  -10    2    4     -2.41      0.00
   -8    2    4    -15.43      0.00
   -6    2    4     28.39      0.00
   -4    2    4     -8.09      0.00
   -2    2    4    -67.93      0.00
    0    2    4     10.57      0.00
    2    2    4     24.62      0.00
    4    2    4    -28.12      0.00
    6    2    4     -0.57      0.00
    8    2    4     11.35      0.00
   10    2    4      0.88      0.00
   12    2    4      2.90      0.00
   14    2    4     -4.98      0.00
   16    2    4      0.35      0.00
   18    2    4      1.87      0.00
   20    2    4     -4.44      0.00
   22    2    4      1.67      0.00
   24    2    4      2.21      0.00
   26    2    4      0.32      0.00
   28    2    4      5.68      0.00
   30    2    4      3.82      0.00
   32    2    4     -4.32      0.00
  -37    3    4      2.57      0.00
  -35    3    4      0.30      0.00
  -33    3    4     -2.45      0.00
  -31    3    4      5.11      0.00
  -29    3    4      8.97      0.00
  -27    3    4     -4.66      0.00
  -25    3    4     -0.54      0.00
  -23    3    4      1.06      0.00
  -21    3    4    -10.55      0.00
  -19    3    4      7.87      0.00
  -17    3    4     -6.62      0.00
  -15    3    4     -9.58      0.00
  -13    3    4     12.45      0.00
  -11    3    4    -30.48      0.00
   -9    3    4     16.19      0.00
   -7    3    4     46.38      0.00
   -5    3    4    -53.39      0.00
   -3    3    4    -31.21      0.00
   -1    3    4     -2.70      0.00
    1    3    4    -10.54      0.00
    3    3    4     37.68      0.00
    5    3    4     -9.69      0.00
    7    3    4    -13.69      0.00
    9    3    4     28.68      0.00
   11    3    4    -17.27      0.00
   13    3    4     -7.81      0.00
   15    3    4     13.27      0.00
   17    3    4     -2.37      0.00
   19    3    4      3.09      0.00
   21    3    4     -7.10      0.00
   23    3    4     -4.25      0.00
   25    3    4      7.22      0.00
   27    3    4      0.87      0.00
   29    3    4      5.13      0.00
   31    3    4      4.07      0.00
  -36    4    4      2.90      0.00
  -34    4    4      2.05      0.00
  -32    4    4     -0.24      0.00
  -30    4    4      9.67      0.00
  -28    4    4     -1.19      0.00
  -26    4    4    -11.47      0.00
  -24    4    4      8.25      0.00
  -22    4    4     -5.57      0.00
  -20    4    4     -0.54      0.00
  -18    4    4     10.75      0.00
  -16    4    4    -21.25      0.00
  -14    4    4     17.76      0.00
  -12    4    4     -5.49      0.00
  -10    4    4    -18.96      0.00
   -8    4    4     76.47      0.00
   -6    4    4    -32.04      0.00
   -4    4    4    -57.28      0.00
   -2    4    4     61.70      0.00
    0    4    4    -31.63      0.00
    2    4    4     -8.25      0.00
    4    4    4     51.02      0.00
    6    4    4    -31.52      0.00
    8    4    4     10.22      0.00
   10    4    4     13.83      0.00
   12    4    4    -20.73      0.00
   14    4    4     16.62      0.00
   16    4    4      0.98      0.00
   18    4    4      1.23      0.00
   20    4    4      8.09      0.00
   22    4    4    -12.70      0.00
   24    4    4      4.07      0.00
   26    4    4     10.32      0.00
   28    4    4     -1.67      0.00
   30    4    4      3.59      0.00
  -35    5    4      2.04      0.00
  -33    5    4     -0.19      0.00
  -31    5    4     -1.14      0.00
  -29    5    4      3.49      0.00
  -27    5    4     -5.77      0.00
  -25    5    4     -2.99      0.00
  -23    5    4      3.16      0.00
  -21    5    4     -2.83      0.00
  -19    5    4      6.74      0.00
  -17    5    4     -3.84      0.00
  -15    5    4     -6.46      0.00
  -13    5    4      5.58      0.00
  -11    5    4     -7.53      0.00
   -9    5    4     17.12      0.00
   -7    5    4     -3.79      0.00
   -5    5    4    -36.25      0.00
   -3    5    4     35.81      0.00
   -1    5    4     16.08      0.00
    1    5    4    -36.82      0.00
    3    5    4     13.58      0.00
    5    5    4     12.49      0.00
    7    5    4     -5.07      0.00
    9    5    4      3.00      0.00
   11    5    4     -3.87      0.00
   13    5    4     10.51      0.00
   15    5    4      4.41      0.00
   17    5    4     -4.94      0.00
   19    5    4     11.38      0.00
   21    5    4      2.59      0.00
   23    5    4     -3.19      0.00
   25    5    4      7.92      0.00
   27    5    4      3.55      0.00
   29    5    4     -0.83      0.00
  -34    6    4     -2.40      0.00
  -32    6    4     -4.03      0.00
  -30    6    4     -5.36      0.00
  -28    6    4      1.85      0.00
  -26    6    4      1.20      0.00
  -24    6    4     -4.84      0.00
  -22    6    4     -0.46      0.00
  -20    6    4      6.16      0.00
  -18    6    4     -2.23      0.00
  -16    6    4     -4.56      0.00
  -14    6    4     -7.43      0.00
  -12    6    4      0.69      0.00
  -10    6    4      5.43      0.00
   -8    6    4    -36.97      0.00
   -6    6    4    -16.37      0.00
   -4    6    4     30.23      0.00
   -2    6    4     -0.94      0.00
    0    6    4     -9.83      0.00
    2    6    4     -7.87      0.00
    4    6    4     -4.61      0.00
    6    6    4     17.43      0.00
    8    6    4     -4.36      0.00
   10    6    4    -12.12      0.00
   12    6    4      8.48      0.00
   14    6    4      4.63      0.00
   16    6    4     -3.02      0.00
   18    6    4     -0.77      0.00
   20    6    4      4.83      0.00
   22    6    4      6.28      0.00
   24    6    4      2.15      0.00
   26    6    4     -1.16      0.00
   28    6    4      0.97      0.00
  -33    7    4     -3.09      0.00
  -31    7    4     -5.55      0.00
  -29    7    4     -2.96      0.00
  -27    7    4      5.66      0.00
  -25    7    4     -1.35      0.00
  -23    7    4     -8.64      0.00
  -21    7    4      7.44      0.00
  -19    7    4      1.89      0.00
  -17    7    4     -7.63      0.00
  -15    7    4      0.07      0.00
  -13    7    4     -3.17      0.00
  -11    7    4      9.11      0.00
   -9    7    4    -18.91      0.00
   -5    7    4     25.78      0.00
   -3    7    4      3.67      0.00
   -1    7    4    -13.39      0.00
    1    7    4      5.68      0.00
    3    7    4    -11.63      0.00
    5    7    4      7.38      0.00
    7    7    4      6.84      0.00
    9    7    4    -12.57      0.00
   11    7    4     -0.76      0.00
   13    7    4     -3.20      0.00
   15    7    4      1.73      0.00
   17    7    4      1.90      0.00
   19    7    4     -8.10      0.00
   21    7    4      3.23      0.00
   23    7    4      6.08      0.00
   25    7    4     -3.06      0.00
   27    7    4     -0.30      0.00
  -32    8    4      0.38      0.00
  -30    8    4      0.74      0.00
  -28    8    4      0.25      0.00
  -26    8    4      2.42      0.00
  -24    8    4     -5.36      0.00
  -22    8    4      0.59      0.00
  -20    8    4      3.20      0.00
  -18    8    4     -8.26      0.00
  -16    8    4      4.91      0.00
  -14    8    4      3.27      0.00
  -12    8    4      3.29      0.00
  -10    8    4      8.29      0.00
   -8    8    4    -10.61      0.00
   -4    8    4     11.72      0.00
   -2    8    4     -6.50      0.00
    0    8    4      8.97      0.00
    2    8    4     -4.23      0.00
    4    8    4     -7.04      0.00
    6    8    4      9.27      0.00
    8    8    4     -4.71      0.00
   10    8    4     -3.70      0.00
   12    8    4     -4.81      0.00
   14    8    4     -6.08      0.00
   16    8    4     11.46      0.00
   18    8    4     -1.38      0.00
   20    8    4    -12.00      0.00
   22    8    4      1.87      0.00
   24    8    4      0.59      0.00
   26    8    4      2.04      0.00
  -31    9    4      8.52      0.00
  -29    9    4      2.76      0.00
  -27    9    4     -0.44      0.00
  -25    9    4     -0.67      0.00
  -23    9    4      0.52      0.00
  -21    9    4      0.77      0.00
  -19    9    4     -9.62      0.00
  -17    9    4      3.34      0.00
  -15    9    4      8.07      0.00
  -13    9    4     -2.33      0.00
  -11    9    4     10.23      0.00
   -9    9    4      4.98      0.00
   -7    9    4      2.55      0.00
   -5    9    4     11.03      0.00
   -3    9    4     -3.62      0.00
   -1    9    4      1.77      0.00
    1    9    4      6.14      0.00
    3    9    4    -12.76      0.00
    5    9    4     -2.82      0.00
    7    9    4      6.81      0.00
    9    9    4     -3.97      0.00
   11    9    4     -3.20      0.00
   13    9    4     -4.33      0.00
   15    9    4      4.27      0.00
   17    9    4     11.50      0.00
   19    9    4     -8.82      0.00
   21    9    4    -11.46      0.00
   23    9    4     -0.62      0.00
   25    9    4      2.19      0.00
  -28   10    4      2.76      0.00
  -26   10    4     -1.68      0.00
  -24   10    4     -1.81      0.00
  -22   10    4      0.67      0.00
  -20   10    4     -4.28      0.00
  -18   10    4      0.16      0.00
  -16   10    4      3.38      0.00
  -14   10    4     -1.27      0.00
  -12   10    4      3.19      0.00
  -10   10    4     -0.22      0.00
   -8   10    4     -1.99      0.00
   -6   10    4      4.35      0.00
   -4   10    4     -2.45      0.00
   -2   10    4    -10.58      0.00
    0   10    4     -4.02      0.00
    2   10    4     -0.71      0.00
    4   10    4     -6.67      0.00
    6   10    4     -0.21      0.00
    8   10    4      4.27      0.00
   10   10    4     -2.25      0.00
   12   10    4     -0.84      0.00
   14   10    4      3.44      0.00
   16   10    4      4.66      0.00
   18   10    4     -0.62      0.00
   20   10    4     -8.64      0.00
   22   10    4     -8.72      0.00
  -25   11    4     -8.40      0.00
  -23   11    4     -5.27      0.00
  -21   11    4     -1.76      0.00
  -19   11    4      4.50      0.00
  -17   11    4      0.87      0.00
  -15   11    4     -3.66      0.00
  -13   11    4      4.73      0.00
  -11   11    4     -6.23      0.00
   -9   11    4     -6.11      0.00
   -7   11    4      2.86      0.00
   -5   11    4     -8.66      0.00
   -3   11    4     -9.32      0.00
   -1   11    4    -11.50      0.00
    1   11    4     -8.12      0.00
    3   11    4      6.04      0.00
    5   11    4     -0.66      0.00
    7   11    4     -1.19      0.00
    9   11    4      5.45      0.00
   11   11    4      0.31      0.00
   13   11    4      3.26      0.00
   15   11    4      2.65      0.00
   17   11    4     -5.72      0.00
   19   11    4     -2.38      0.00
   21   11    4     -3.19      0.00
  -24   12    4    -12.56      0.00
  -22   12    4     -8.44      0.00
  -20   12    4     -1.91      0.00
  -18   12    4      3.41      0.00
  -16   12    4     -1.60      0.00
  -14   12    4      1.47      0.00
  -12   12    4     -1.38      0.00
  -10   12    4     -6.43      0.00
   -8   12    4      5.30      0.00
   -6   12    4     -5.49      0.00
   -4   12    4    -11.23      0.00
   -2   12    4      0.94      0.00
    0   12    4     -7.62      0.00
    2   12    4     -1.05      0.00
    4   12    4      8.02      0.00
    6   12    4     -2.61      0.00
    8   12    4      2.50      0.00
   10   12    4      5.54      0.00
   12   12    4     -0.25      0.00
   14   12    4     -0.38      0.00
   16   12    4     -4.30      0.00
   18   12    4     -3.54      0.00
  -19   13    4     -6.19      0.00
  -17   13    4      0.19      0.00
  -15   13    4     -0.61      0.00
  -13   13    4     -2.12      0.00
  -11   13    4     -0.73      0.00
   -9   13    4      2.25      0.00
   -7   13    4     -1.70      0.00
   -5   13    4     -7.24      0.00
   -3   13    4      3.79      0.00
   -1   13    4      7.96      0.00
    1   13    4      0.46      0.00
    3   13    4      3.15      0.00
    5   13    4      0.00      0.00
    7   13    4     -1.88      0.00
    9   13    4      2.82      0.00
   11   13    4     -1.18      0.00
   13   13    4     -5.12      0.00
  -14   14    4     -2.83      0.00
  -12   14    4     -2.65      0.00
  -10   14    4      3.20      0.00
   -8   14    4     -4.54      0.00
   -6   14    4     -8.23      0.00
   -4   14    4      2.15      0.00
   -2   14    4      8.54      0.00
    0   14    4     10.66      0.00
    2   14    4      6.41      0.00
    4   14    4     -1.40      0.00
    6   14    4     -3.53      0.00
    8   14    4     -2.52      0.00
  -37    1    5      3.16      0.00
  -35    1    5      4.32      0.00
  -33    1    5     -3.54      0.00
  -31    1    5     -3.08      0.00
  -29    1    5      2.78      0.00
  -27    1    5     -3.88      0.00
  -25    1    5      0.96      0.00
  -23    1    5      3.27      0.00
  -21    1    5     -2.81      0.00
  -19    1    5      8.33      0.00
  -17    1    5     -3.77      0.00
  -15    1    5      3.88      0.00
  -13    1    5     11.86      0.00
  -11    1    5    -25.66      0.00
   -9    1    5      0.19      0.00
   -7    1    5      0.30      0.00
   -5    1    5    -15.15      0.00
   -3    1    5     37.01      0.00
   -1    1    5    -12.28      0.00
    1    1    5    -26.45      0.00
    3    1    5     38.16      0.00
    5    1    5     -7.17      0.00
    7    1    5     -9.11      0.00
    9    1    5     18.21      0.00
   11    1    5    -19.57      0.00
   13    1    5    -12.60      0.00
   15    1    5     -2.82      0.00
   17    1    5     -2.11      0.00
   19    1    5     10.65      0.00
   21    1    5     -4.19      0.00
   23    1    5     -6.00      0.00
   25    1    5     -1.28      0.00
   27    1    5    -10.32      0.00
   29    1    5     -1.61      0.00
  -38    2    5      0.30      0.00
  -36    2    5      2.81      0.00
  -34    2    5     -2.58      0.00
  -32    2    5     -7.14      0.00
  -30    2    5      5.39      0.00
  -28    2    5     -0.29      0.00
  -26    2    5    -11.32      0.00
  -24    2    5      9.57      0.00
  -22    2    5     -1.88      0.00
  -20    2    5     -0.40      0.00
  -18    2    5     13.04      0.00
  -16    2    5    -16.54      0.00
  -14    2    5     22.63      0.00
  -12    2    5      2.74      0.00
  -10    2    5    -48.14      0.00
   -8    2    5     30.81      0.00
   -6    2    5     -7.47      0.00
   -4    2    5    -24.76      0.00
   -2    2    5     51.93      0.00
    0    2    5    -27.51      0.00
    2    2    5    -12.20      0.00
    4    2    5     42.58      0.00
    6    2    5    -23.85      0.00
    8    2    5      5.02      0.00
   10    2    5      9.61      0.00
   12    2    5    -27.14      0.00
   14    2    5      1.21      0.00
   16    2    5     -1.31      0.00
   18    2    5      6.70      0.00
   20    2    5     13.48      0.00
   22    2    5    -10.02      0.00
   24    2    5     -2.28      0.00
   26    2    5     -2.80      0.00
   28    2    5    -10.57      0.00
   30    2    5      3.90      0.00
  -37    3    5     -1.67      0.00
  -35    3    5     -2.58      0.00
  -33    3    5     -4.44      0.00
  -31    3    5      0.14      0.00
  -29    3    5      5.00      0.00
  -27    3    5    -10.39      0.00
  -25    3    5     -3.43      0.00
  -23    3    5      8.32      0.00
  -21    3    5     -4.79      0.00
  -19    3    5      9.25      0.00
  -17    3    5     -4.11      0.00
  -15    3    5     -5.58      0.00
  -13    3    5     29.12      0.00
  -11    3    5    -23.65      0.00
   -9    3    5     -5.73      0.00
   -7    3    5     33.37      0.00
   -5    3    5    -48.94      0.00
   -3    3    5      7.85      0.00
   -1    3    5     50.33      0.00
    1    3    5    -37.37      0.00
    3    3    5      1.93      0.00
    5    3    5     18.17      0.00
    7    3    5    -16.87      0.00
    9    3    5      7.36      0.00
   11    3    5     -5.25      0.00
   13    3    5     -0.41      0.00
   15    3    5      9.91      0.00
   17    3    5     -5.64      0.00
   19    3    5     11.56      0.00
   21    3    5      8.79      0.00
   23    3    5     -5.85      0.00
   25    3    5      1.53      0.00
   27    3    5     -0.53      0.00
   29    3    5     -3.28      0.00
  -36    4    5     -2.16      0.00
  -34    4    5      1.56      0.00
  -32    4    5      1.88      0.00
  -30    4    5     -1.64      0.00
  -28    4    5     -4.32      0.00
  -26    4    5     -2.78      0.00
  -24    4    5     -0.55      0.00
  -22    4    5      4.77      0.00
  -20    4    5      7.37      0.00
  -18    4    5     -4.28      0.00
  -16    4    5     -0.36      0.00
  -14    4    5      5.05      0.00
  -12    4    5      3.79      0.00
  -10    4    5     19.80      0.00
   -8    4    5     -2.09      0.00
   -6    4    5    -29.68      0.00
   -4    4    5      2.85      0.00
   -2    4    5     25.25      0.00
    0    4    5      7.21      0.00
    2    4    5    -15.62      0.00
    4    4    5    -13.30      0.00
    6    4    5      6.62      0.00
    8    4    5     -1.66      0.00
   10    4    5    -10.86      0.00
   12    4    5      7.58      0.00
   14    4    5     10.86      0.00
   16    4    5     -5.23      0.00
   18    4    5     -7.92      0.00
   20    4    5      4.06      0.00
   22    4    5      8.32      0.00
   24    4    5      0.78      0.00
   26    4    5      0.87      0.00
   28    4    5      4.60      0.00
  -35    5    5      2.25      0.00
  -33    5    5      6.65      0.00
  -31    5    5      0.92      0.00
  -29    5    5     -8.32      0.00
  -27    5    5      1.41      0.00
  -25    5    5      1.33      0.00
  -23    5    5     -2.94      0.00
  -21    5    5     14.62      0.00
  -19    5    5      0.10      0.00
  -17    5    5     -2.56      0.00
  -15    5    5      5.67      0.00
  -13    5    5    -14.84      0.00
  -11    5    5     33.51      0.00
   -9    5    5     11.47      0.00
   -7    5    5    -57.74      0.00
   -5    5    5     21.24      0.00
   -3    5    5     24.79      0.00
   -1    5    5    -16.87      0.00
    1    5    5     15.64      0.00
    3    5    5    -21.45      0.00
    5    5    5    -14.73      0.00
    7    5    5     14.78      0.00
    9    5    5    -15.12      0.00
   11    5    5      0.36      0.00
   13    5    5      6.09      0.00
   15    5    5     -6.22      0.00
   17    5    5     -5.83      0.00
   19    5    5    -15.72      0.00
   21    5    5      0.53      0.00
   23    5    5     12.22      0.00
   25    5    5     -0.30      0.00
   27    5    5      2.90      0.00
   29    5    5      6.76      0.00
  -34    6    5      1.89      0.00
  -32    6    5      5.32      0.00
  -30    6    5     -2.70      0.00
  -28    6    5     -2.55      0.00
  -26    6    5      4.27      0.00
  -24    6    5     -4.66      0.00
  -22    6    5      5.05      0.00
  -20    6    5      9.19      0.00
  -18    6    5     -2.18      0.00
  -16    6    5      4.92      0.00
  -14    6    5    -13.06      0.00
  -12    6    5      3.74      0.00
  -10    6    5     18.07      0.00
   -8    6    5    -37.64      0.00
   -6    6    5      2.54      0.00
   -4    6    5     30.15      0.00
   -2    6    5    -22.09      0.00
    0    6    5      8.65      0.00
    2    6    5      3.23      0.00
    4    6    5    -18.56      0.00
    6    6    5     10.02      0.00
    8    6    5     -7.72      0.00
   10    6    5     -0.65      0.00
   12    6    5      6.39      0.00
   14    6    5    -13.94      0.00
   16    6    5      1.27      0.00
   18    6    5     -7.10      0.00
   20    6    5    -14.85      0.00
   22    6    5      6.87      0.00
   24    6    5      3.78      0.00
   26    6    5     -0.37      0.00
   28    6    5      7.11      0.00
  -33    7    5     -0.93      0.00
  -31    7    5      3.01      0.00
  -29    7    5      1.05      0.00
  -27    7    5     -0.03      0.00
  -25    7    5     -4.02      0.00
  -23    7    5     -1.50      0.00
  -21    7    5      6.97      0.00
  -19    7    5     -0.68      0.00
  -17    7    5      1.01      0.00
  -15    7    5     -1.45      0.00
  -13    7    5     -7.44      0.00
  -11    7    5     -1.83      0.00
   -9    7    5    -14.66      0.00
   -7    7    5      7.22      0.00
   -5    7    5     18.84      0.00
   -3    7    5    -22.33      0.00
   -1    7    5     -1.66      0.00
    1    7    5     18.25      0.00
    3    7    5     -5.30      0.00
    5    7    5      3.45      0.00
    7    7    5     -0.22      0.00
    9    7    5     -2.14      0.00
   11    7    5     10.86      0.00
   13    7    5     -5.84      0.00
   15    7    5     -5.40      0.00
   17    7    5      5.91      0.00
   19    7    5     -5.43      0.00
   21    7    5     -3.85      0.00
   23    7    5     -0.02      0.00
   25    7    5     -4.21      0.00
  -32    8    5     -1.13      0.00
  -30    8    5      3.86      0.00
  -28    8    5     -0.70      0.00
  -26    8    5     -4.72      0.00
  -24    8    5     -2.23      0.00
  -22    8    5      4.08      0.00
  -20    8    5      0.70      0.00
  -18    8    5     -3.81      0.00
  -16    8    5      0.67      0.00
  -14    8    5      1.83      0.00
  -12    8    5     -6.36      0.00
  -10    8    5    -10.64      0.00
   -8    8    5     10.93      0.00
   -6    8    5     13.02      0.00
   -4    8    5    -15.61      0.00
   -2    8    5    -12.03      0.00
    0    8    5      8.82      0.00
    2    8    5     13.27      0.00
    4    8    5      1.60      0.00
    6    8    5     -5.97      0.00
    8    8    5      3.62      0.00
   10    8    5      4.93      0.00
   12    8    5      1.13      0.00
   14    8    5     -0.32      0.00
   16    8    5     -0.22      0.00
   18    8    5      4.62      0.00
   20    8    5      0.96      0.00
   22    8    5     -5.16      0.00
   24    8    5     -4.92      0.00
  -31    9    5     -0.66      0.00
  -29    9    5     -2.11      0.00
  -27    9    5     -2.54      0.00
  -25    9    5      1.61      0.00
  -23    9    5      4.28      0.00
  -21    9    5     -1.32      0.00
  -19    9    5      0.78      0.00
  -17    9    5      0.91      0.00
  -15    9    5     -1.52      0.00
  -13    9    5      5.53      0.00
  -11    9    5     -4.56      0.00
   -9    9    5      2.12      0.00
   -7    9    5      6.78      0.00
   -5    9    5    -15.03      0.00
   -3    9    5     -3.13      0.00
   -1    9    5     -0.12      0.00
    1    9    5     -0.93      0.00
    3    9    5     13.66      0.00
    5    9    5     -6.36      0.00
    7    9    5     -7.24      0.00
    9    9    5      5.69      0.00
   11    9    5     -3.17      0.00
   13    9    5      2.54      0.00
   15    9    5      2.66      0.00
   17    9    5     -3.31      0.00
   19    9    5      4.77      0.00
   21    9    5      2.13      0.00
   23    9    5     -4.22      0.00
  -28   10    5     -1.30      0.00
  -26   10    5      5.04      0.00
  -24   10    5      8.94      0.00
  -22   10    5     -1.12      0.00
  -20   10    5     -2.87      0.00
  -18   10    5      9.86      0.00
  -16   10    5     -2.56      0.00
  -14   10    5      0.57      0.00
  -12   10    5      6.74      0.00
  -10   10    5     -6.44      0.00
   -8   10    5      0.19      0.00
   -6   10    5    -11.99      0.00
   -4   10    5     -9.13      0.00
   -2   10    5     13.71      0.00
    0   10    5     -2.83      0.00
    2   10    5      1.15      0.00
    4   10    5      9.42      0.00
    6   10    5     -8.91      0.00
    8   10    5     -4.38      0.00
   10   10    5      0.62      0.00
   12   10    5     -0.64      0.00
   14   10    5      5.26      0.00
   16   10    5     -2.25      0.00
   18   10    5     -3.55      0.00
   20   10    5      7.39      0.00
  -25   11    5      8.84      0.00
  -23   11    5      5.18      0.00
  -21   11    5     -3.94      0.00
  -19   11    5      2.37      0.00
  -17   11    5      4.23      0.00
  -15   11    5     -0.39      0.00
  -13   11    5      1.89      0.00
  -11   11    5     -5.46      0.00
   -9   11    5     -4.87      0.00
   -7   11    5     -2.96      0.00
   -5   11    5    -11.01      0.00
   -3   11    5      4.90      0.00
   -1   11    5     17.14      0.00
    3   11    5      7.32      0.00
    5   11    5      3.60      0.00
    7   11    5     -4.87      0.00
    9   11    5     -0.10      0.00
   11   11    5      4.69      0.00
   13   11    5      4.74      0.00
   15   11    5     -1.26      0.00
   17   11    5     -3.86      0.00
   19   11    5      4.26      0.00
  -22   12    5      1.97      0.00
  -20   12    5     -2.06      0.00
  -18   12    5     -3.40      0.00
  -16   12    5      2.73      0.00
  -14   12    5     -0.17      0.00
  -12   12    5     -7.63      0.00
  -10   12    5      0.54      0.00
   -8   12    5      1.08      0.00
   -6   12    5     -4.42      0.00
   -4   12    5     -2.55      0.00
   -2   12    5     10.05      0.00
    0   12    5     22.06      0.00
    2   12    5     13.71      0.00
    4   12    5      4.72      0.00
    6   12    5      2.81      0.00
    8   12    5      2.55      0.00
   10   12    5      6.77      0.00
   12   12    5      8.01      0.00
   14   12    5      0.47      0.00
   16   12    5     -4.69      0.00
  -19   13    5     -3.84      0.00
  -17   13    5     -4.48      0.00
  -15   13    5      0.05      0.00
  -13   13    5     -5.08      0.00
  -11   13    5      2.75      0.00
   -9   13    5      9.14      0.00
   -7   13    5     -1.58      0.00
   -5   13    5     -2.46      0.00
   -3   13    5      0.81      0.00
   -1   13    5     11.41      0.00
    1   13    5     16.99      0.00
    3   13    5      5.66      0.00
    5   13    5      3.16      0.00
    7   13    5      5.81      0.00
    9   13    5      7.13      0.00
   11   13    5      7.44      0.00
  -14   14    5     -0.25      0.00
  -12   14    5      4.72      0.00
  -10   14    5      8.32      0.00
   -8   14    5      4.78      0.00
   -6   14    5     -0.45      0.00
   -4   14    5     -1.67      0.00
   -2   14    5      0.49      0.00
    0   14    5      7.18      0.00
    2   14    5      3.31      0.00
    4   14    5     -0.76      0.00
    6   14    5      5.22      0.00
  -38    0    6     -2.82      0.00
  -36    0    6      0.67      0.00
  -34    0    6      0.19      0.00
  -32    0    6     -5.98      0.00
  -30    0    6      4.44      0.00
  -28    0    6      0.32      0.00
  -26    0    6    -12.01      0.00
  -24    0    6      4.39      0.00
  -22    0    6     -5.74      0.00
  -20    0    6     -3.91      0.00
  -18    0    6     -0.37      0.00
  -16    0    6    -25.89      0.00
  -14    0    6     22.36      0.00
  -12    0    6      0.55      0.00
  -10    0    6    -35.23      0.00
   -8    0    6     33.16      0.00
   -6    0    6    -34.57      0.00
   -4    0    6    -24.54      0.00
   -2    0    6     66.38      0.00
    0    0    6    -34.14      0.00
    2    0    6    -12.73      0.00
    6    0    6    -22.69      0.00
   10    0    6     14.13      0.00
   12    0    6    -14.48      0.00
   16    0    6    -10.13      0.00
   18    0    6      4.80      0.00
   20    0    6     18.38      0.00
   22    0    6     -6.44      0.00
   24    0    6      0.33      0.00
   26    0    6      4.37      0.00
   28    0    6     -6.32      0.00
  -37    1    6      0.57      0.00
  -35    1    6      1.52      0.00
  -33    1    6     -4.68      0.00
  -31    1    6     -3.17      0.00
  -29    1    6      5.68      0.00
  -27    1    6     -5.68      0.00
  -25    1    6     -4.06      0.00
  -23    1    6      5.31      0.00
  -21    1    6     -6.74      0.00
  -19    1    6      1.90      0.00
  -17    1    6     -9.70      0.00
  -15    1    6     -9.55      0.00
  -13    1    6     24.24      0.00
  -11    1    6    -15.20      0.00
   -9    1    6    -11.37      0.00
   -7    1    6     14.87      0.00
   -5    1    6    -29.82      0.00
   -3    1    6     14.48      0.00
   -1    1    6     26.06      0.00
    1    1    6    -27.47      0.00
    3    1    6     13.95      0.00
    5    1    6     11.80      0.00
    7    1    6    -12.49      0.00
    9    1    6     10.52      0.00
   11    1    6     -3.75      0.00
   13    1    6     -3.65      0.00
   15    1    6      0.88      0.00
   17    1    6     -6.74      0.00
   19    1    6     11.30      0.00
   21    1    6      6.59      0.00
   23    1    6     -5.90      0.00
   25    1    6      1.98      0.00
   27    1    6     -0.62      0.00
   29    1    6     -3.26      0.00
  -38    2    6      2.25      0.00
  -36    2    6      0.90      0.00
  -34    2    6     -2.68      0.00
  -32    2    6     -3.25      0.00
  -30    2    6     -1.22      0.00
  -28    2    6      1.09      0.00
  -26    2    6      0.64      0.00
  -24    2    6      1.55      0.00
  -22    2    6      3.46      0.00
  -20    2    6     -0.25      0.00
  -18    2    6     -0.45      0.00
  -16    2    6     -2.48      0.00
  -14    2    6     -2.14      0.00
  -12    2    6     13.57      0.00
  -10    2    6     -2.38      0.00
   -8    2    6    -13.41      0.00
   -6    2    6     14.50      0.00
   -4    2    6     -3.86      0.00
   -2    2    6     -5.76      0.00
    0    2    6     24.09      0.00
    2    2    6     -7.69      0.00
    4    2    6    -13.31      0.00
    6    2    6      9.80      0.00
    8    2    6     -5.39      0.00
   10    2    6     -7.15      0.00
   12    2    6      0.27      0.00
   14    2    6      2.48      0.00
   16    2    6      2.72      0.00
   18    2    6     -4.73      0.00
   20    2    6      1.26      0.00
   22    2    6      5.60      0.00
   24    2    6     -3.70      0.00
   26    2    6     -3.34      0.00
   28    2    6      2.15      0.00
  -37    3    6     -0.95      0.00
  -35    3    6     -4.35      0.00
  -33    3    6      0.79      0.00
  -31    3    6      0.39      0.00
  -29    3    6     -6.72      0.00
  -27    3    6      5.45      0.00
  -25    3    6      6.42      0.00
  -23    3    6     -5.94      0.00
  -21    3    6      7.72      0.00
  -19    3    6     -1.38      0.00
  -17    3    6     -0.70      0.00
  -15    3    6      8.69      0.00
  -13    3    6    -18.72      0.00
  -11    3    6     13.72      0.00
   -9    3    6     13.40      0.00
   -7    3    6    -26.36      0.00
   -5    3    6     15.43      0.00
   -3    3    6     -0.79      0.00
   -1    3    6    -10.61      0.00
    1    3    6     25.72      0.00
    3    3    6    -20.15      0.00
    5    3    6    -16.14      0.00
    7    3    6     13.85      0.00
    9    3    6    -11.90      0.00
   11    3    6     -3.04      0.00
   13    3    6      5.44      0.00
   15    3    6      3.82      0.00
   17    3    6      4.47      0.00
   19    3    6    -11.95      0.00
   21    3    6     -0.54      0.00
   23    3    6     10.04      0.00
   25    3    6     -6.15      0.00
   27    3    6     -1.82      0.00
  -36    4    6     -4.43      0.00
  -34    4    6     -1.98      0.00
  -32    4    6      3.16      0.00
  -30    4    6     -4.41      0.00
  -28    4    6     -2.29      0.00
  -26    4    6     10.66      0.00
  -24    4    6     -6.04      0.00
  -22    4    6     -3.56      0.00
  -20    4    6      4.58      0.00
  -18    4    6     -8.00      0.00
  -16    4    6     15.11      0.00
  -14    4    6    -10.35      0.00
  -12    4    6    -19.57      0.00
  -10    4    6     35.31      0.00
   -8    4    6    -16.66      0.00
   -6    4    6    -23.05      0.00
   -4    4    6     29.75      0.00
   -2    4    6    -17.81      0.00
    0    4    6     -3.78      0.00
    2    4    6     13.96      0.00
    4    4    6    -23.15      0.00
    6    4    6      1.86      0.00
    8    4    6      2.54      0.00
   10    4    6     -3.15      0.00
   12    4    6     10.16      0.00
   14    4    6     -4.34      0.00
   16    4    6      5.91      0.00
   18    4    6      3.32      0.00
   20    4    6    -12.07      0.00
   22    4    6      5.21      0.00
   24    4    6      4.88      0.00
   26    4    6     -4.32      0.00
   28    4    6      3.67      0.00
  -35    5    6     -1.75      0.00
  -33    5    6     -2.53      0.00
  -31    5    6     -1.52      0.00
  -29    5    6     -2.36      0.00
  -27    5    6      4.59      0.00
  -25    5    6     -1.43      0.00
  -23    5    6     -6.69      0.00
  -21    5    6     -1.61      0.00
  -19    5    6     -8.62      0.00
  -17    5    6      6.84      0.00
  -15    5    6      4.53      0.00
  -13    5    6    -12.75      0.00
  -11    5    6     13.62      0.00
   -9    5    6     -7.68      0.00
   -7    5    6    -17.26      0.00
   -5    5    6     26.89      0.00
   -3    5    6     -7.63      0.00
   -1    5    6    -19.18      0.00
    1    5    6     12.61      0.00
    3    5    6     -7.45      0.00
    5    5    6     -0.30      0.00
    7    5    6      3.57      0.00
    9    5    6     -4.16      0.00
   11    5    6     16.56      0.00
   13    5    6     -0.01      0.00
   15    5    6     -7.29      0.00
   17    5    6     10.98      0.00
   19    5    6      0.66      0.00
   21    5    6     -2.50      0.00
   23    5    6      1.05      0.00
   25    5    6     -2.44      0.00
   27    5    6      1.88      0.00
  -34    6    6     -3.15      0.00
  -32    6    6     -4.78      0.00
  -30    6    6     -1.17      0.00
  -28    6    6      1.09      0.00
  -26    6    6     -2.83      0.00
  -24    6    6     -4.25      0.00
  -22    6    6     -2.95      0.00
  -20    6    6     -8.11      0.00
  -18    6    6     -1.65      0.00
  -16    6    6      0.40      0.00
  -14    6    6      3.23      0.00
  -12    6    6     12.25      0.00
  -10    6    6    -17.88      0.00
   -8    6    6    -10.38      0.00
   -6    6    6     33.71      0.00
   -4    6    6      0.30      0.00
    0    6    6      2.19      0.00
    2    6    6      1.17      0.00
    4    6    6      2.28      0.00
    6    6    6      2.76      0.00
    8    6    6     -3.30      0.00
   10    6    6      8.22      0.00
   12    6    6      6.84      0.00
   14    6    6     -3.61      0.00
   16    6    6     -0.01      0.00
   18    6    6      6.27      0.00
   20    6    6      5.66      0.00
   22    6    6     -3.02      0.00
   24    6    6     -6.73      0.00
   26    6    6     -0.90      0.00
  -33    7    6     -3.85      0.00
  -31    7    6     -1.26      0.00
  -29    7    6      1.28      0.00
  -27    7    6     -5.68      0.00
  -25    7    6     -4.12      0.00
  -23    7    6     -0.55      0.00
  -21    7    6     -6.74      0.00
  -19    7    6      0.37      0.00
  -17    7    6     -6.02      0.00
  -15    7    6     -5.14      0.00
  -13    7    6     15.54      0.00
  -11    7    6    -15.72      0.00
   -9    7    6     -9.72      0.00
   -7    7    6     31.57      0.00
   -5    7    6     -0.56      0.00
   -3    7    6     -8.78      0.00
   -1    7    6     -2.12      0.00
    1    7    6    -10.72      0.00
    3    7    6     13.54      0.00
    5    7    6      0.57      0.00
    7    7    6     -8.69      0.00
    9    7    6      9.81      0.00
   11    7    6     -1.91      0.00
   13    7    6      0.80      0.00
   15    7    6      1.87      0.00
   17    7    6     -5.90      0.00
   19    7    6      8.66      0.00
   21    7    6      2.16      0.00
   23    7    6    -10.56      0.00
   25    7    6     -1.17      0.00
  -32    8    6      0.76      0.00
  -30    8    6      4.20      0.00
  -28    8    6     -3.12      0.00
  -26    8    6     -6.27      0.00
  -24    8    6      3.56      0.00
  -22    8    6     -2.88      0.00
  -20    8    6     -4.45      0.00
  -18    8    6      3.94      0.00
  -16    8    6     -9.03      0.00
  -14    8    6     -2.16      0.00
  -12    8    6     -6.87      0.00
  -10    8    6    -10.38      0.00
   -8    8    6     27.86      0.00
   -6    8    6     -0.48      0.00
   -4    8    6    -15.75      0.00
   -2    8    6     19.26      0.00
    0    8    6     -9.06      0.00
    2    8    6     -3.53      0.00
    4    8    6     14.57      0.00
    6    8    6    -10.08      0.00
    8    8    6      3.24      0.00
   10    8    6      2.70      0.00
   12    8    6     -7.17      0.00
   14    8    6      4.86      0.00
   16    8    6     -5.27      0.00
   18    8    6     -3.45      0.00
   20    8    6      6.25      0.00
   22    8    6     -5.83      0.00
  -29    9    6      3.54      0.00
  -27    9    6     -1.65      0.00
  -25    9    6      1.59      0.00
  -23    9    6      4.80      0.00
  -21    9    6     -6.47      0.00
  -19    9    6     -2.03      0.00
  -17    9    6      5.15      0.00
  -15    9    6     -6.61      0.00
  -13    9    6    -10.61      0.00
  -11    9    6     -5.71      0.00
   -9    9    6     10.95      0.00
   -7    9    6      7.38      0.00
   -5    9    6    -12.92      0.00
   -3    9    6      9.69      0.00
    1    9    6     -4.74      0.00
    3    9    6      1.69      0.00
    5    9    6      4.49      0.00
    7    9    6      0.17      0.00
    9    9    6      0.70      0.00
   11    9    6     -2.19      0.00
   13    9    6      1.96      0.00
   15    9    6      1.49      0.00
   17    9    6     -3.47      0.00
   19    9    6     -0.29      0.00
   21    9    6      1.50      0.00
  -28   10    6      6.85      0.00
  -26   10    6      2.86      0.00
  -24   10    6      0.75      0.00
  -22   10    6     -2.12      0.00
  -20   10    6     -4.82      0.00
  -18   10    6     -1.22      0.00
  -16   10    6      1.49      0.00
  -14   10    6     -3.80      0.00
  -12   10    6     -4.76      0.00
  -10   10    6      0.94      0.00
   -8   10    6     -3.47      0.00
   -6   10    6     -0.20      0.00
   -4   10    6      8.05      0.00
   -2   10    6      7.84      0.00
    2   10    6      1.19      0.00
    4   10    6     -2.44      0.00
    6   10    6      5.02      0.00
    8   10    6     -1.35      0.00
   10   10    6     -2.16      0.00
   12   10    6      7.34      0.00
   14   10    6      6.05      0.00
   16   10    6      1.09      0.00
   18   10    6      1.16      0.00
  -25   11    6     -2.03      0.00
  -23   11    6     -7.48      0.00
  -21   11    6     -1.06      0.00
  -19   11    6     -2.18      0.00
  -17   11    6     -6.49      0.00
  -15   11    6      3.39      0.00
  -13   11    6      0.16      0.00
  -11   11    6     -1.44      0.00
   -9   11    6     -4.25      0.00
   -7   11    6     -6.37      0.00
   -5   11    6     10.96      0.00
   -3   11    6      2.59      0.00
   -1   11    6     -2.18      0.00
    1   11    6      7.11      0.00
    3   11    6     -4.32      0.00
    5   11    6     -2.83      0.00
    7   11    6     -0.77      0.00
    9   11    6     -4.59      0.00
   11   11    6      4.86      0.00
   13   11    6      7.90      0.00
   15   11    6      2.67      0.00
   17   11    6      1.58      0.00
  -22   12    6     -3.35      0.00
  -20   12    6      4.03      0.00
  -18   12    6     -3.24      0.00
  -16   12    6     -1.57      0.00
  -14   12    6      1.65      0.00
  -12   12    6     -0.17      0.00
  -10   12    6      4.03      0.00
   -8   12    6     -0.35      0.00
   -6   12    6      2.10      0.00
   -4   12    6      0.64      0.00
   -2   12    6     -9.54      0.00
    0   12    6     -2.47      0.00
    2   12    6     -3.71      0.00
    4   12    6     -7.37      0.00
    6   12    6     -3.21      0.00
    8   12    6     -5.31      0.00
   10   12    6     -0.07      0.00
   12   12    6      0.46      0.00
   14   12    6     -4.18      0.00
  -17   13    6      2.45      0.00
  -15   13    6     -2.78      0.00
  -13   13    6      1.70      0.00
  -11   13    6      9.83      0.00
   -9   13    6      8.76      0.00
   -7   13    6      6.20      0.00
   -5   13    6     -0.96      0.00
   -3   13    6    -10.30      0.00
   -1   13    6     -9.51      0.00
    1   13    6     -6.52      0.00
    3   13    6     -7.17      0.00
    5   13    6     -3.69      0.00
    7   13    6     -1.66      0.00
    9   13    6     -2.97      0.00
  -12   14    6     11.36      0.00
  -10   14    6     13.02      0.00
   -8   14    6      8.24      0.00
   -6   14    6      4.22      0.00
   -4   14    6     -2.35      0.00
   -2   14    6     -8.70      0.00
    0   14    6    -10.30      0.00
    2   14    6     -3.74      0.00
  -37    1    7     -0.06      0.00
  -35    1    7     -2.97      0.00
  -33    1    7      0.21      0.00
  -31    1    7      2.12      0.00
  -29    1    7     -8.70      0.00
  -27    1    7      0.18      0.00
  -25    1    7      1.92      0.00
  -23    1    7     -6.42      0.00
  -21    1    7      2.74      0.00
  -19    1    7    -10.44      0.00
  -17    1    7      5.57      0.00
  -15    1    7      6.42      0.00
  -13    1    7    -29.70      0.00
  -11    1    7     25.99      0.00
   -9    1    7     12.34      0.00
   -7    1    7    -33.54      0.00
   -5    1    7     31.39      0.00
   -3    1    7    -13.86      0.00
   -1    1    7    -32.40      0.00
    1    1    7     43.49      0.00
    3    1    7      0.75      0.00
    5    1    7     -3.06      0.00
    7    1    7     25.71      0.00
    9    1    7     -8.31      0.00
   11    1    7     -2.39      0.00
   13    1    7     -1.44      0.00
   15    1    7     -2.25      0.00
   17    1    7     10.43      0.00
   19    1    7     -8.52      0.00
   21    1    7     -5.72      0.00
   23    1    7      9.07      0.00
   25    1    7     -1.82      0.00
   27    1    7     -3.91      0.00
  -36    2    7     -3.30      0.00
  -34    2    7     -3.68      0.00
  -32    2    7      5.78      0.00
  -30    2    7     -2.91      0.00
  -28    2    7     -8.27      0.00
  -26    2    7      8.83      0.00
  -24    2    7     -1.38      0.00
  -22    2    7     -4.90      0.00
  -20    2    7     -2.77      0.00
  -18    2    7    -10.80      0.00
  -16    2    7     16.88      0.00
  -14    2    7     -7.60      0.00
  -12    2    7    -15.66      0.00
  -10    2    7     32.92      0.00
   -8    2    7    -11.10      0.00
   -6    2    7     -6.17      0.00
   -4    2    7     17.65      0.00
   -2    2    7    -39.42      0.00
    0    2    7      5.91      0.00
    2    2    7     31.88      0.00
    4    2    7     -8.46      0.00
    6    2    7     15.18      0.00
    8    2    7      5.09      0.00
   10    2    7     -9.98      0.00
   12    2    7      0.69      0.00
   14    2    7     -9.03      0.00
   16    2    7      6.60      0.00
   18    2    7      4.96      0.00
   20    2    7    -15.16      0.00
   22    2    7      3.04      0.00
   24    2    7      9.55      0.00
   26    2    7     -5.42      0.00
  -37    3    7     -1.66      0.00
  -35    3    7     -2.47      0.00
  -33    3    7      3.50      0.00
  -31    3    7      2.45      0.00
  -29    3    7     -4.37      0.00
  -27    3    7      5.19      0.00
  -25    3    7      8.78      0.00
  -23    3    7     -2.26      0.00
  -21    3    7     -2.53      0.00
  -19    3    7     -9.37      0.00
  -17    3    7     -0.03      0.00
  -15    3    7     15.52      0.00
  -13    3    7     -6.22      0.00
  -11    3    7     -1.33      0.00
   -9    3    7     11.12      0.00
   -7    3    7     -4.23      0.00
   -5    3    7      1.59      0.00
   -3    3    7     -6.61      0.00
   -1    3    7    -14.35      0.00
    1    3    7      5.43      0.00
    3    3    7      7.19      0.00
    5    3    7      6.52      0.00
    7    3    7     -0.61      0.00
    9    3    7    -10.40      0.00
   11    3    7      1.82      0.00
   13    3    7     -1.93      0.00
   15    3    7     -6.37      0.00
   17    3    7      4.77      0.00
   19    3    7     -1.64      0.00
   21    3    7     -3.34      0.00
   23    3    7      6.27      0.00
   25    3    7      2.32      0.00
   27    3    7     -3.45      0.00
  -36    4    7      1.99      0.00
  -34    4    7      3.97      0.00
  -32    4    7      0.21      0.00
  -30    4    7     -1.20      0.00
  -28    4    7      4.89      0.00
  -26    4    7      5.33      0.00
  -24    4    7      3.25      0.00
  -22    4    7      3.17      0.00
  -20    4    7     -7.78      0.00
  -18    4    7     -5.03      0.00
  -16    4    7      5.78      0.00
  -14    4    7      4.26      0.00
  -12    4    7      7.25      0.00
  -10    4    7     -3.27      0.00
   -8    4    7     -9.07      0.00
   -6    4    7      8.43      0.00
   -4    4    7      2.94      0.00
   -2    4    7    -10.28      0.00
    0    4    7     -6.29      0.00
    2    4    7     -1.11      0.00
    4    4    7      8.84      0.00
    6    4    7      5.92      0.00
    8    4    7     -9.90      0.00
   10    4    7     -3.06      0.00
   12    4    7      6.67      0.00
   14    4    7     -1.30      0.00
   16    4    7     -4.77      0.00
   18    4    7      0.24      0.00
   20    4    7      6.58      0.00
   22    4    7      4.89      0.00
   24    4    7     -1.16      0.00
   26    4    7     -1.14      0.00
  -35    5    7      5.83      0.00
  -33    5    7     -1.71      0.00
  -31    5    7     -2.27      0.00
  -29    5    7      4.14      0.00
  -27    5    7     -0.38      0.00
  -25    5    7     -1.48      0.00
  -23    5    7      6.84      0.00
  -21    5    7     -4.24      0.00
  -19    5    7     -2.49      0.00
  -17    5    7      1.20      0.00
  -15    5    7     -7.67      0.00
  -13    5    7     15.71      0.00
  -11    5    7      2.90      0.00
   -9    5    7    -21.54      0.00
   -7    5    7      9.35      0.00
   -5    5    7      9.26      0.00
   -3    5    7     -5.54      0.00
   -1    5    7     -4.65      0.00
    1    5    7     -8.05      0.00
    3    5    7      8.68      0.00
    5    5    7     10.24      0.00
    7    5    7     -0.48      0.00
    9    5    7      2.54      0.00
   11    5    7     -0.96      0.00
   13    5    7      3.08      0.00
   15    5    7      2.46      0.00
   17    5    7     -6.84      0.00
   19    5    7      5.64      0.00
   21    5    7     10.00      0.00
   23    5    7     -2.25      0.00
   25    5    7     -2.17      0.00
  -34    6    7     -0.73      0.00
  -32    6    7     -4.54      0.00
  -30    6    7      2.39      0.00
  -28    6    7     -0.60      0.00
  -26    6    7     -7.58      0.00
  -24    6    7      5.35      0.00
  -22    6    7     -1.80      0.00
  -20    6    7     -4.91      0.00
  -18    6    7      8.78      0.00
  -16    6    7    -10.33      0.00
  -14    6    7      6.70      0.00
  -12    6    7      8.41      0.00
  -10    6    7    -27.00      0.00
   -8    6    7     14.70      0.00
   -6    6    7     11.05      0.00
   -4    6    7    -18.86      0.00
   -2    6    7     12.90      0.00
    0    6    7    -10.58      0.00
    2    6    7     -9.65      0.00
    4    6    7     19.50      0.00
    6    6    7     -3.73      0.00
    8    6    7      5.89      0.00
   10    6    7      5.23      0.00
   12    6    7     -9.99      0.00
   14    6    7      8.20      0.00
   16    6    7     -1.16      0.00
   18    6    7     -4.05      0.00
   20    6    7     10.23      0.00
   22    6    7     -1.85      0.00
   24    6    7     -2.95      0.00
  -33    7    7     -2.81      0.00
  -31    7    7     -1.79      0.00
  -29    7    7      2.00      0.00
  -27    7    7     -4.04      0.00
  -25    7    7      0.70      0.00
  -23    7    7      4.79      0.00
  -21    7    7     -5.14      0.00
  -19    7    7      1.68      0.00
  -17    7    7      2.57      0.00
  -15    7    7      2.86      0.00
  -13    7    7      3.86      0.00
  -11    7    7    -22.54      0.00
   -9    7    7      2.05      0.00
   -7    7    7     22.05      0.00
   -5    7    7    -22.00      0.00
   -3    7    7     -1.73      0.00
   -1    7    7     12.26      0.00
    1    7    7    -20.89      0.00
    3    7    7     -0.68      0.00
    5    7    7      4.34      0.00
    7    7    7     -2.97      0.00
    9    7    7      6.85      0.00
   11    7    7     -6.87      0.00
   13    7    7     -1.74      0.00
   15    7    7      6.18      0.00
   17    7    7     -2.10      0.00
   19    7    7      2.98      0.00
   21    7    7      0.48      0.00
   23    7    7     -3.42      0.00
  -32    8    7     -0.75      0.00
  -30    8    7     -1.16      0.00
  -28    8    7      2.60      0.00
  -26    8    7      3.44      0.00
  -24    8    7      3.58      0.00
  -22    8    7      4.92      0.00
  -20    8    7      0.06      0.00
  -18    8    7     -3.10      0.00
  -16    8    7      9.09      0.00
  -14    8    7      1.18      0.00
  -12    8    7    -15.66      0.00
  -10    8    7      1.07      0.00
   -8    8    7      5.69      0.00
   -6    8    7     -8.01      0.00
   -4    8    7     -2.96      0.00
   -2    8    7      2.67      0.00
    0    8    7     -1.17      0.00
    2    8    7     -9.42      0.00
    4    8    7     -9.39      0.00
    6    8    7      3.86      0.00
    8    8    7      3.05      0.00
   10    8    7     -5.01      0.00
   12    8    7     -1.16      0.00
   14    8    7      0.72      0.00
   16    8    7      4.15      0.00
   18    8    7      5.35      0.00
   20    8    7     -3.72      0.00
   22    8    7     -1.68      0.00
  -29    9    7     -0.65      0.00
  -27    9    7      7.91      0.00
  -25    9    7      4.29      0.00
  -23    9    7      1.37      0.00
  -21    9    7      7.84      0.00
  -19    9    7      1.61      0.00
  -17    9    7      0.45      0.00
  -15    9    7      2.07      0.00
  -13    9    7    -10.74      0.00
  -11    9    7      7.35      0.00
   -9    9    7      7.08      0.00
   -7    9    7    -16.53      0.00
   -5    9    7      8.13      0.00
   -3    9    7      6.42      0.00
   -1    9    7     -7.74      0.00
    1    9    7      4.50      0.00
    3    9    7     -9.60      0.00
    5    9    7     -2.62      0.00
    7    9    7     10.51      0.00
    9    9    7     -4.25      0.00
   11    9    7     -1.81      0.00
   13    9    7     -0.59      0.00
   15    9    7     -1.13      0.00
   17    9    7      8.18      0.00
   19    9    7      0.86      0.00
  -28   10    7      1.71      0.00
  -26   10    7      5.31      0.00
  -24   10    7     -2.59      0.00
  -22   10    7     -0.48      0.00
  -20   10    7     10.47      0.00
  -18   10    7      4.42      0.00
  -16   10    7     -4.00      0.00
  -14   10    7     -6.62      0.00
  -12   10    7      3.49      0.00
  -10   10    7     14.41      0.00
   -8   10    7     -5.24      0.00
   -6   10    7      1.19      0.00
   -4   10    7     15.53      0.00
   -2   10    7     -6.21      0.00
    0   10    7     -2.60      0.00
    4   10    7     -4.14      0.00
    6   10    7      7.03      0.00
    8   10    7      1.80      0.00
   10   10    7     -0.12      0.00
   12   10    7     -0.32      0.00
   14   10    7     -6.98      0.00
   16   10    7      0.59      0.00
  -25   11    7     -3.36      0.00
  -23   11    7     -7.61      0.00
  -21   11    7      3.50      0.00
  -19   11    7      7.95      0.00
  -17   11    7     -0.40      0.00
  -15   11    7     -3.86      0.00
  -13   11    7     -2.25      0.00
  -11   11    7      4.33      0.00
   -9   11    7      5.02      0.00
   -7   11    7      7.42      0.00
   -5   11    7     12.28      0.00
   -3   11    7     -0.23      0.00
   -1   11    7     -5.56      0.00
    1   11    7     -1.31      0.00
    3   11    7     -2.64      0.00
    5   11    7      2.11      0.00
    7   11    7      1.92      0.00
    9   11    7      3.73      0.00
   11   11    7      7.23      0.00
   13   11    7     -6.18      0.00
   15   11    7     -9.03      0.00
  -22   12    7     -3.35      0.00
  -20   12    7      1.19      0.00
  -18   12    7      1.73      0.00
  -16   12    7      1.25      0.00
  -14   12    7     -4.67      0.00
  -12   12    7     -5.25      0.00
  -10   12    7     -1.87      0.00
   -8   12    7      6.41      0.00
   -6   12    7     11.37      0.00
   -4   12    7      4.26      0.00
   -2   12    7      0.23      0.00
    0   12    7     -2.50      0.00
    2   12    7     -1.85      0.00
    4   12    7      0.75      0.00
    6   12    7      0.93      0.00
    8   12    7      6.69      0.00
   10   12    7     10.82      0.00
  -17   13    7      3.07      0.00
  -15   13    7     -2.74      0.00
  -13   13    7     -8.62      0.00
  -11   13    7     -7.68      0.00
   -9   13    7     -1.16      0.00
   -7   13    7      2.20      0.00
   -5   13    7      1.45      0.00
   -3   13    7     10.15      0.00
   -1   13    7      4.25      0.00
    1   13    7     -2.20      0.00
    3   13    7      5.61      0.00
    5   13    7      2.03      0.00
    7   13    7      7.52      0.00
   -6   14    7     -6.68      0.00
  -36    0    8      8.20      0.00
  -34    0    8      7.66      0.00
  -32    0    8     16.48      0.00
  -30    0    8      8.79      0.00
  -28    0    8     -6.61      0.00
  -26    0    8      6.63      0.00
  -24    0    8      1.65      0.00
  -22    0    8      6.06      0.00
  -20    0    8      3.92      0.00
  -18    0    8    -12.97      0.00
  -16    0    8     30.77      0.00
  -14    0    8     -1.36      0.00
  -12    0    8    -31.70      0.00
  -10    0    8     37.91      0.00
   -8    0    8     -7.38      0.00
   -6    0    8    -13.93      0.00
   -4    0    8     35.20      0.00
   -2    0    8    -37.10      0.00
    0    0    8    -13.12      0.00
    2    0    8     30.55      0.00
    4    0    8    -18.21      0.00
    6    0    8      0.05      0.00
    8    0    8      6.18      0.00
   10    0    8     -9.44      0.00
   12    0    8      0.27      0.00
   14    0    8    -11.46      0.00
   16    0    8      1.89      0.00
   18    0    8     10.13      0.00
   20    0    8    -11.05      0.00
   22    0    8     -1.68      0.00
   24    0    8      8.23      0.00
   26    0    8     -4.77      0.00
  -37    1    8      4.27      0.00
  -35    1    8      4.35      0.00
  -33    1    8      9.34      0.00
  -31    1    8     12.63      0.00
  -29    1    8     -1.30      0.00
  -27    1    8     -2.70      0.00
  -25    1    8      3.21      0.00
  -23    1    8      0.77      0.00
  -21    1    8      4.42      0.00
  -19    1    8     -7.07      0.00
  -17    1    8      2.62      0.00
  -15    1    8     14.88      0.00
  -13    1    8    -14.11      0.00
  -11    1    8      3.94      0.00
   -9    1    8     13.11      0.00
   -7    1    8    -10.48      0.00
   -5    1    8     14.23      0.00
   -3    1    8     -3.94      0.00
   -1    1    8    -21.27      0.00
    1    1    8     13.78      0.00
    3    1    8      1.74      0.00
    5    1    8     -5.45      0.00
    7    1    8      3.03      0.00
    9    1    8     -8.49      0.00
   11    1    8     -1.47      0.00
   13    1    8     -3.26      0.00
   15    1    8     -6.27      0.00
   17    1    8      7.51      0.00
   19    1    8      0.40      0.00
   21    1    8     -6.75      0.00
   23    1    8      4.66      0.00
   25    1    8      4.20      0.00
  -36    2    8     -1.93      0.00
  -34    2    8      2.86      0.00
  -32    2    8      6.50      0.00
  -30    2    8      1.27      0.00
  -28    2    8     -2.14      0.00
  -26    2    8     -5.28      0.00
  -24    2    8     -1.08      0.00
  -22    2    8     -1.06      0.00
  -20    2    8     -4.79      0.00
  -18    2    8     -0.68      0.00
  -16    2    8     -8.33      0.00
  -14    2    8      2.90      0.00
  -12    2    8     14.66      0.00
  -10    2    8     -8.92      0.00
   -8    2    8      3.44      0.00
   -6    2    8     12.71      0.00
   -4    2    8    -13.55      0.00
   -2    2    8      3.98      0.00
    0    2    8     10.19      0.00
    2    2    8     -8.79      0.00
    4    2    8      6.30      0.00
    6    2    8      3.36      0.00
    8    2    8    -13.46      0.00
   10    2    8     -5.73      0.00
   12    2    8      0.83      0.00
   14    2    8      1.72      0.00
   16    2    8      0.10      0.00
   18    2    8     -1.74      0.00
   20    2    8      1.12      0.00
   22    2    8      1.75      0.00
   24    2    8      3.10      0.00
  -37    3    8     -4.19      0.00
  -35    3    8      1.07      0.00
  -33    3    8      2.98      0.00
  -31    3    8     -2.73      0.00
  -29    3    8      0.45      0.00
  -27    3    8     -2.99      0.00
  -25    3    8     -8.37      0.00
  -23    3    8     -0.65      0.00
  -21    3    8     -4.59      0.00
  -19    3    8     -0.11      0.00
  -17    3    8     -3.57      0.00
  -15    3    8    -10.17      0.00
  -13    3    8     17.64      0.00
  -11    3    8      4.53      0.00
   -9    3    8     -8.60      0.00
   -7    3    8     10.63      0.00
   -5    3    8    -10.24      0.00
   -3    3    8      1.08      0.00
   -1    3    8     18.24      0.00
    1    3    8     -8.24      0.00
    3    3    8      0.86      0.00
    5    3    8      6.84      0.00
    7    3    8     -7.86      0.00
    9    3    8     -6.22      0.00
   11    3    8     -4.46      0.00
   13    3    8      5.44      0.00
   15    3    8      7.21      0.00
   17    3    8     -8.32      0.00
   19    3    8     -4.39      0.00
   21    3    8      6.02      0.00
   23    3    8      0.10      0.00
   25    3    8      0.79      0.00
  -36    4    8      4.40      0.00
  -34    4    8      4.46      0.00
  -32    4    8     -5.57      0.00
  -30    4    8     -0.39      0.00
  -28    4    8      2.67      0.00
  -26    4    8     -8.30      0.00
  -24    4    8     -2.73      0.00
  -22    4    8     -1.21      0.00
  -20    4    8     -3.82      0.00
  -18    4    8      6.03      0.00
  -16    4    8     -5.19      0.00
  -14    4    8      4.02      0.00
  -12    4    8     12.49      0.00
  -10    4    8     -9.24      0.00
   -8    4    8      3.02      0.00
   -6    4    8     -4.29      0.00
   -4    4    8     -7.82      0.00
   -2    4    8     17.80      0.00
    0    4    8     -5.03      0.00
    2    4    8     -3.34      0.00
    4    4    8     11.07      0.00
    6    4    8     -9.21      0.00
    8    4    8      0.14      0.00
   10    4    8      1.76      0.00
   12    4    8     -4.49      0.00
   14    4    8      9.20      0.00
   16    4    8     -1.88      0.00
   18    4    8     -9.55      0.00
   20    4    8      2.97      0.00
   22    4    8     -1.95      0.00
   24    4    8     -5.50      0.00
  -35    5    8      5.80      0.00
  -33    5    8     -2.34      0.00
  -31    5    8     -2.47      0.00
  -29    5    8      3.95      0.00
  -27    5    8     -4.16      0.00
  -25    5    8     -3.95      0.00
  -23    5    8      1.86      0.00
  -21    5    8     -7.24      0.00
  -19    5    8      2.15      0.00
  -17    5    8      4.05      0.00
  -15    5    8     -1.38      0.00
  -13    5    8     13.91      0.00
  -11    5    8     -8.57      0.00
   -9    5    8    -10.37      0.00
   -7    5    8     14.07      0.00
   -5    5    8    -13.80      0.00
   -3    5    8     -2.71      0.00
   -1    5    8     13.69      0.00
    1    5    8    -11.17      0.00
    3    5    8      5.33      0.00
    5    5    8      3.64      0.00
    7    5    8     -8.06      0.00
    9    5    8      8.86      0.00
   11    5    8     -2.53      0.00
   13    5    8     -3.64      0.00
   15    5    8      4.32      0.00
   17    5    8     -4.78      0.00
   19    5    8      2.38      0.00
   21    5    8     -0.32      0.00
   23    5    8    -11.26      0.00
  -34    6    8      0.00      0.00
  -32    6    8      1.54      0.00
  -30    6    8      0.89      0.00
  -28    6    8     -1.03      0.00
  -26    6    8     -1.61      0.00
  -24    6    8     -0.33      0.00
  -22    6    8     -3.31      0.00
  -20    6    8     -2.29      0.00
  -18    6    8     -1.21      0.00
  -16    6    8      2.41      0.00
  -14    6    8      9.30      0.00
  -12    6    8     -3.01      0.00
  -10    6    8     -9.33      0.00
   -8    6    8      7.82      0.00
   -6    6    8      1.36      0.00
   -4    6    8    -14.43      0.00
   -2    6    8      2.37      0.00
    0    6    8      7.09      0.00
    2    6    8     -5.55      0.00
    4    6    8     -1.02      0.00
    6    6    8      1.39      0.00
    8    6    8      1.33      0.00
   10    6    8     -0.43      0.00
   12    6    8     -6.32      0.00
   14    6    8     -3.07      0.00
   16    6    8      2.44      0.00
   18    6    8      6.97      0.00
   20    6    8      3.27      0.00
   22    6    8     -4.92      0.00
  -33    7    8      4.08      0.00
  -31    7    8      2.01      0.00
  -29    7    8     -3.30      0.00
  -27    7    8      2.48      0.00
  -25    7    8      0.89      0.00
  -23    7    8     -6.63      0.00
  -21    7    8      3.43      0.00
  -19    7    8     -1.36      0.00
  -17    7    8     -2.94      0.00
  -15    7    8     12.01      0.00
  -13    7    8     -7.51      0.00
  -11    7    8      0.25      0.00
   -9    7    8     14.73      0.00
   -7    7    8    -11.71      0.00
   -5    7    8     -2.42      0.00
   -3    7    8     -0.59      0.00
   -1    7    8     -7.44      0.00
    1    7    8      9.04      0.00
    3    7    8     -7.19      0.00
    5    7    8     -6.57      0.00
    7    7    8      9.34      0.00
    9    7    8     -4.73      0.00
   11    7    8     -4.46      0.00
   13    7    8     -3.29      0.00
   15    7    8     -4.51      0.00
   17    7    8     12.41      0.00
   19    7    8      8.99      0.00
   21    7    8     -0.83      0.00
  -30    8    8     -4.94      0.00
  -28    8    8     -2.14      0.00
  -26    8    8      5.42      0.00
  -24    8    8     -4.82      0.00
  -22    8    8     -2.87      0.00
  -20    8    8      4.71      0.00
  -18    8    8     -0.84      0.00
  -16    8    8      7.60      0.00
  -14    8    8     -3.96      0.00
  -12    8    8     -6.64      0.00
  -10    8    8     22.14      0.00
   -8    8    8     -5.76      0.00
   -6    8    8    -15.33      0.00
   -2    8    8    -10.20      0.00
    0    8    8     -4.07      0.00
    2    8    8      6.68      0.00
    4    8    8     -9.84      0.00
    6    8    8      4.90      0.00
    8    8    8      2.90      0.00
   10    8    8     -3.98      0.00
   12    8    8      2.65      0.00
   14    8    8     -5.86      0.00
   16    8    8      3.16      0.00
   18    8    8     10.93      0.00
   20    8    8      2.54      0.00
  -29    9    8     -7.57      0.00
  -27    9    8     -0.40      0.00
  -25    9    8      1.60      0.00
  -23    9    8     -3.71      0.00
  -21    9    8     -2.11      0.00
  -19    9    8      1.45      0.00
  -17    9    8      4.84      0.00
  -15    9    8     -2.68      0.00
  -13    9    8     -7.03      0.00
  -11    9    8      9.10      0.00
   -9    9    8      3.06      0.00
   -7    9    8    -11.01      0.00
   -5    9    8      2.90      0.00
   -3    9    8      0.26      0.00
   -1    9    8     -7.20      0.00
    1    9    8      1.94      0.00
    3    9    8      1.36      0.00
    5    9    8      4.66      0.00
    7    9    8      3.04      0.00
    9    9    8     -0.69      0.00
   11    9    8      6.51      0.00
   13    9    8      0.26      0.00
   15    9    8     -2.12      0.00
   17    9    8      1.49      0.00
  -26   10    8     -0.37      0.00
  -24   10    8      1.52      0.00
  -22   10    8     -2.07      0.00
  -20   10    8     -1.68      0.00
  -18   10    8     -1.02      0.00
  -16   10    8     -4.46      0.00
  -14   10    8     -3.15      0.00
  -12   10    8      2.45      0.00
  -10   10    8     -2.86      0.00
   -8   10    8     -3.76      0.00
   -6   10    8      2.33      0.00
   -4   10    8     -1.92      0.00
   -2   10    8     -2.13      0.00
    0   10    8      0.78      0.00
    2   10    8      2.10      0.00
    4   10    8      8.14      0.00
    6   10    8      4.21      0.00
    8   10    8     -1.47      0.00
   10   10    8      4.84      0.00
   12   10    8      5.48      0.00
   14   10    8      0.16      0.00
  -23   11    8      4.10      0.00
  -21   11    8      1.01      0.00
  -19   11    8     -4.04      0.00
  -17   11    8     -6.40      0.00
  -15   11    8     -1.61      0.00
  -13   11    8      2.69      0.00
  -11   11    8     -4.72      0.00
   -9   11    8     -4.40      0.00
   -7   11    8      3.35      0.00
   -5   11    8     -4.58      0.00
   -3   11    8     -2.24      0.00
   -1   11    8      3.57      0.00
    1   11    8     -0.14      0.00
    3   11    8      5.47      0.00
    5   11    8      1.80      0.00
    7   11    8     -0.76      0.00
    9   11    8      4.80      0.00
   11   11    8      1.75      0.00
  -20   12    8     -4.12      0.00
  -18   12    8     -3.89      0.00
  -16   12    8      1.28      0.00
  -14   12    8      3.15      0.00
  -12   12    8     -2.64      0.00
  -10   12    8     -7.02      0.00
   -8   12    8      2.77      0.00
   -6   12    8     -4.20      0.00
   -4   12    8     -7.12      0.00
   -2   12    8      7.45      0.00
    0   12    8      0.69      0.00
    2   12    8     -0.26      0.00
    4   12    8      0.05      0.00
    6   12    8     -5.92      0.00
    8   12    8      7.26      0.00
  -13   13    8      1.80      0.00
  -11   13    8     -7.06      0.00
   -9   13    8     -6.07      0.00
   -7   13    8     -0.51      0.00
   -5   13    8     -4.57      0.00
   -3   13    8      2.89      0.00
   -1   13    8      6.90      0.00
    1   13    8      0.58      0.00
  -37    1    9     -1.84      0.00
  -35    1    9     -2.63      0.00
  -33    1    9     -0.49      0.00
  -31    1    9     -5.54      0.00
  -29    1    9      0.56      0.00
  -27    1    9      3.19      0.00
  -25    1    9     -0.58      0.00
  -23    1    9      8.10      0.00
  -21    1    9     -3.57      0.00
  -19    1    9      7.14      0.00
  -17    1    9      6.91      0.00
  -15    1    9    -24.64      0.00
  -13    1    9     12.80      0.00
  -11    1    9     13.69      0.00
   -9    1    9    -16.86      0.00
   -7    1    9     17.04      0.00
   -5    1    9     -2.46      0.00
   -3    1    9    -15.26      0.00
   -1    1    9     18.93      0.00
    1    1    9     -4.05      0.00
    3    1    9    -11.09      0.00
    5    1    9      9.45      0.00
    7    1    9      4.03      0.00
    9    1    9      2.48      0.00
   11    1    9      0.29      0.00
   13    1    9      3.20      0.00
   15    1    9      8.05      0.00
   17    1    9     -4.90      0.00
   19    1    9     -3.93      0.00
   21    1    9      6.86      0.00
   23    1    9      2.02      0.00
  -36    2    9     -7.40      0.00
  -34    2    9     -2.31      0.00
  -32    2    9     -6.08      0.00
  -30    2    9     -6.05      0.00
  -28    2    9      2.03      0.00
  -26    2    9     -3.05      0.00
  -24    2    9      2.62      0.00
  -22    2    9      2.13      0.00
  -20    2    9      1.83      0.00
  -18    2    9     12.11      0.00
  -16    2    9    -17.46      0.00
  -14    2    9     -7.21      0.00
  -12    2    9     17.69      0.00
  -10    2    9     -9.04      0.00
   -8    2    9     11.43      0.00
   -6    2    9      5.98      0.00
   -4    2    9    -19.99      0.00
   -2    2    9     16.42      0.00
    0    2    9      4.29      0.00
    2    2    9    -13.34      0.00
    4    2    9      7.54      0.00
    6    2    9      3.04      0.00
    8    2    9      6.42      0.00
   10    2    9      4.68      0.00
   12    2    9     -3.62      0.00
   14    2    9      8.77      0.00
   16    2    9      3.02      0.00
   18    2    9     -9.81      0.00
   20    2    9      0.78      0.00
   22    2    9      6.97      0.00
  -35    3    9     -6.24      0.00
  -33    3    9     -5.45      0.00
  -31    3    9     -7.94      0.00
  -29    3    9     -1.34      0.00
  -27    3    9     -4.44      0.00
  -25    3    9     -4.55      0.00
  -23    3    9     -0.03      0.00
  -21    3    9      2.79      0.00
  -19    3    9      7.93      0.00
  -17    3    9     -5.99      0.00
  -15    3    9     -8.57      0.00
  -13    3    9      5.07      0.00
  -11    3    9     -5.82      0.00
   -9    3    9      7.64      0.00
   -7    3    9     11.53      0.00
   -5    3    9    -16.50      0.00
   -3    3    9      9.29      0.00
   -1    3    9     11.71      0.00
    1    3    9    -15.67      0.00
    3    3    9      6.45      0.00
    5    3    9      5.11      0.00
    7    3    9     -2.57      0.00
    9    3    9     10.13      0.00
   11    3    9     -1.44      0.00
   13    3    9     -0.69      0.00
   15    3    9      4.91      0.00
   17    3    9     -6.88      0.00
   19    3    9     -3.64      0.00
   21    3    9      4.64      0.00
   23    3    9      0.75      0.00
  -34    4    9     -8.58      0.00
  -32    4    9     -6.10      0.00
  -30    4    9      0.27      0.00
  -28    4    9     -1.38      0.00
  -26    4    9     -4.79      0.00
  -24    4    9     -1.59      0.00
  -22    4    9      3.62      0.00
  -20    4    9      6.37      0.00
  -18    4    9      0.64      0.00
  -16    4    9     -1.47      0.00
  -14    4    9     -0.21      0.00
  -12    4    9     -1.32      0.00
  -10    4    9      0.52      0.00
   -8    4    9      3.62      0.00
   -6    4    9      3.35      0.00
   -4    4    9      0.81      0.00
   -2    4    9      3.73      0.00
    0    4    9     -0.77      0.00
    2    4    9     -5.08      0.00
    4    4    9      2.63      0.00
    6    4    9     -0.13      0.00
    8    4    9      1.11      0.00
   10    4    9      6.12      0.00
   12    4    9     -0.37      0.00
   14    4    9     -1.62      0.00
   16    4    9     -4.30      0.00
   18    4    9     -3.27      0.00
   20    4    9      4.48      0.00
   22    4    9      1.67      0.00
  -35    5    9    -16.94      0.00
  -33    5    9     -8.29      0.00
  -31    5    9      2.90      0.00
  -29    5    9      1.48      0.00
  -27    5    9      0.89      0.00
  -25    5    9      1.32      0.00
  -23    5    9      0.67      0.00
  -21    5    9      8.03      0.00
  -19    5    9      4.11      0.00
  -17    5    9      2.71      0.00
  -15    5    9      7.39      0.00
  -13    5    9     -4.31      0.00
  -11    5    9      2.73      0.00
   -9    5    9      2.66      0.00
   -7    5    9     -3.23      0.00
   -5    5    9     13.68      0.00
   -3    5    9     -4.19      0.00
   -1    5    9     -8.88      0.00
    1    5    9      9.86      0.00
    3    5    9     -7.16      0.00
    5    5    9     -6.66      0.00
    7    5    9      4.72      0.00
    9    5    9      1.60      0.00
   11    5    9      5.59      0.00
   13    5    9     -1.70      0.00
   15    5    9     -8.97      0.00
   17    5    9      0.32      0.00
   19    5    9      2.76      0.00
   21    5    9      0.03      0.00
  -32    6    9      0.69      0.00
  -30    6    9     -0.25      0.00
  -28    6    9     -0.61      0.00
  -26    6    9      5.96      0.00
  -24    6    9     -1.67      0.00
  -22    6    9     -0.52      0.00
  -20    6    9      9.55      0.00
  -18    6    9      2.78      0.00
  -16    6    9     10.08      0.00
  -14    6    9      3.22      0.00
  -12    6    9    -10.09      0.00
  -10    6    9     13.96      0.00
   -8    6    9      0.79      0.00
   -6    6    9     -6.85      0.00
   -4    6    9     12.57      0.00
   -2    6    9    -12.39      0.00
    0    6    9     -2.94      0.00
    2    6    9     11.77      0.00
    4    6    9    -13.04      0.00
    6    6    9     -1.65      0.00
    8    6    9      4.48      0.00
   10    6    9     -1.13      0.00
   12    6    9      4.28      0.00
   14    6    9     -9.44      0.00
   16    6    9     -6.09      0.00
   18    6    9      4.60      0.00
   20    6    9     -5.61      0.00
  -31    7    9     -1.49      0.00
  -29    7    9     -6.82      0.00
  -27    7    9     -0.96      0.00
  -25    7    9     -0.32      0.00
  -23    7    9     -5.63      0.00
  -21    7    9      2.83      0.00
  -19    7    9      5.83      0.00
  -17    7    9      7.24      0.00
  -15    7    9      5.76      0.00
  -13    7    9    -10.03      0.00
  -11    7    9      3.47      0.00
   -9    7    9     12.74      0.00
   -7    7    9    -11.07      0.00
   -5    7    9     -1.50      0.00
   -3    7    9      4.85      0.00
   -1    7    9     -8.38      0.00
    1    7    9      4.71      0.00
    3    7    9      2.45      0.00
    5    7    9     -4.49      0.00
    7    7    9      0.66      0.00
    9    7    9     -4.72      0.00
   11    7    9     -0.21      0.00
   13    7    9     -2.26      0.00
   15    7    9     -7.60      0.00
   17    7    9     -1.07      0.00
   19    7    9     -6.11      0.00
  -30    8    9     -4.06      0.00
  -28    8    9     -7.96      0.00
  -26    8    9     -6.09      0.00
  -24    8    9     -3.04      0.00
  -22    8    9      1.62      0.00
  -20    8    9      2.83      0.00
  -18    8    9      6.02      0.00
  -16    8    9      4.06      0.00
  -14    8    9     -6.53      0.00
  -12    8    9     -0.56      0.00
  -10    8    9      2.64      0.00
   -8    8    9     -3.81      0.00
   -6    8    9     -1.56      0.00
   -4    8    9     -1.38      0.00
   -2    8    9      1.69      0.00
    0    8    9      3.86      0.00
    2    8    9     -0.62      0.00
    4    8    9      2.92      0.00
    6    8    9      0.91      0.00
    8    8    9     -7.10      0.00
   10    8    9     -2.71      0.00
   12    8    9     -0.59      0.00
   14    8    9     -0.29      0.00
   16    8    9      1.22      0.00
  -27    9    9     -7.88      0.00
  -25    9    9     -4.11      0.00
  -23    9    9      3.89      0.00
  -21    9    9      3.46      0.00
  -19    9    9      5.51      0.00
  -17    9    9      2.78      0.00
  -15    9    9     -5.05      0.00
  -13    9    9      2.18      0.00
  -11    9    9     -2.73      0.00
   -9    9    9     -9.31      0.00
   -7    9    9      5.46      0.00
   -5    9    9      1.35      0.00
   -3    9    9     -0.29      0.00
   -1    9    9     10.00      0.00
    1    9    9      2.15      0.00
    3    9    9      2.24      0.00
    5    9    9      1.94      0.00
    7    9    9     -5.70      0.00
    9    9    9     -0.56      0.00
   11    9    9      1.24      0.00
   13    9    9      4.46      0.00
   15    9    9      8.36      0.00
  -26   10    9     -3.75      0.00
  -24   10    9      2.22      0.00
  -22   10    9      3.43      0.00
  -20   10    9      2.90      0.00
  -18   10    9      4.03      0.00
  -16   10    9     -3.60      0.00
  -14   10    9      2.62      0.00
  -12   10    9      3.14      0.00
  -10   10    9    -10.89      0.00
   -8   10    9      1.99      0.00
   -6   10    9      7.37      0.00
   -4   10    9      0.03      0.00
   -2   10    9      8.88      0.00
    0   10    9      6.14      0.00
    2   10    9      6.37      0.00
    4   10    9      4.10      0.00
    6   10    9     -9.43      0.00
    8   10    9      0.85      0.00
   10   10    9      6.52      0.00
   12   10    9      3.76      0.00
  -21   11    9     -0.45      0.00
  -19   11    9     -2.30      0.00
  -17   11    9      0.52      0.00
  -15   11    9      1.35      0.00
  -13   11    9      6.32      0.00
  -11   11    9     -0.77      0.00
   -9   11    9     -4.30      0.00
   -7   11    9      5.14      0.00
   -5   11    9      0.50      0.00
   -3   11    9      1.16      0.00
   -1   11    9      5.06      0.00
    1   11    9      4.57      0.00
    3   11    9      8.59      0.00
    5   11    9     -4.61      0.00
    7   11    9     -7.22      0.00
    9   11    9      7.59      0.00
  -18   12    9     -1.83      0.00
  -16   12    9      1.99      0.00
  -14   12    9      1.26      0.00
  -12   12    9      6.11      0.00
  -10   12    9      0.73      0.00
   -8   12    9     -5.74      0.00
   -6   12    9     -2.16      0.00
   -4   12    9     -4.59      0.00
   -2   12    9     -6.82      0.00
    0   12    9     -1.44      0.00
    2   12    9      2.41      0.00
    4   12    9      1.46      0.00
   -7   13    9    -12.00      0.00
   -5   13    9     -4.39      0.00
  -36    0   10     -6.74      0.00
  -34    0   10     -0.38      0.00
  -32    0   10      3.13      0.00
  -30    0   10      0.59      0.00
  -28    0   10      6.19      0.00
  -26    0   10     -0.89      0.00
  -24    0   10      2.56      0.00
  -22    0   10      6.29      0.00
  -20    0   10     -3.93      0.00
  -18    0   10     15.36      0.00
  -16    0   10     -7.16      0.00
  -14    0   10    -21.45      0.00
  -12    0   10     20.13      0.00
  -10    0   10      6.39      0.00
   -8    0   10      3.46      0.00
   -6    0   10     10.42      0.00
   -4    0   10    -18.52      0.00
   -2    0   10     -2.07      0.00
    0    0   10     10.03      0.00
    2    0   10     -3.53      0.00
    4    0   10     -1.07      0.00
    6    0   10     -1.08      0.00
    8    0   10      3.27      0.00
   10    0   10      0.31      0.00
   12    0   10     -7.22      0.00
   14    0   10      6.09      0.00
   16    0   10      7.92      0.00
   18    0   10     -6.17      0.00
   20    0   10     -2.47      0.00
  -35    1   10     -4.29      0.00
  -33    1   10     -0.15      0.00
  -31    1   10     -2.05      0.00
  -29    1   10      2.22      0.00
  -27    1   10      1.83      0.00
  -25    1   10     -0.70      0.00
  -23    1   10      3.45      0.00
  -21    1   10     -1.48      0.00
  -19    1   10      7.40      0.00
  -17    1   10      3.49      0.00
  -15    1   10    -14.92      0.00
  -13    1   10      6.01      0.00
  -11    1   10      6.18      0.00
   -9    1   10      0.33      0.00
   -7    1   10     13.57      0.00
   -5    1   10    -11.22      0.00
   -3    1   10     -9.13      0.00
   -1    1   10      9.58      0.00
    1    1   10     -4.36      0.00
    3    1   10     -0.48      0.00
    5    1   10      0.85      0.00
    7    1   10     -3.04      0.00
    9    1   10      4.01      0.00
   11    1   10     -2.95      0.00
   13    1   10     -2.94      0.00
   15    1   10      5.50      0.00
   17    1   10      0.21      0.00
   19    1   10     -3.83      0.00
   21    1   10     -0.30      0.00
  -36    2   10     -6.94      0.00
  -34    2   10     -3.55      0.00
  -32    2   10     -7.83      0.00
  -30    2   10     -4.12      0.00
  -28    2   10     -2.07      0.00
  -26    2   10     -1.34      0.00
  -24    2   10     -0.89      0.00
  -22    2   10     -4.18      0.00
  -20    2   10      6.68      0.00
  -18    2   10      0.13      0.00
  -16    2   10     -5.70      0.00
  -14    2   10     10.06      0.00
  -12    2   10     -2.11      0.00
  -10    2   10     -6.17      0.00
   -8    2   10      9.90      0.00
   -6    2   10     -4.06      0.00
   -4    2   10     -7.60      0.00
   -2    2   10      7.64      0.00
    0    2   10     -2.55      0.00
    2    2   10     -5.11      0.00
    4    2   10      5.21      0.00
    6    2   10     -1.82      0.00
    8    2   10     -1.58      0.00
   10    2   10      3.30      0.00
   12    2   10     -1.59      0.00
   14    2   10     -2.23      0.00
   16    2   10     -0.89      0.00
   18    2   10     -0.05      0.00
   20    2   10      0.62      0.00
  -35    3   10     -3.39      0.00
  -33    3   10     -7.96      0.00
  -31    3   10     -7.96      0.00
  -29    3   10     -6.53      0.00
  -27    3   10     -4.86      0.00
  -25    3   10     -3.06      0.00
  -23    3   10     -5.92      0.00
  -21    3   10      5.25      0.00
  -19    3   10     -1.19      0.00
  -17    3   10     -5.30      0.00
  -15    3   10     11.76      0.00
  -13    3   10     -3.89      0.00
  -11    3   10     -1.15      0.00
   -9    3   10      4.37      0.00
   -7    3   10    -11.72      0.00
   -5    3   10      8.18      0.00
   -3    3   10      5.76      0.00
   -1    3   10     -7.31      0.00
    3    3   10      0.58      0.00
    5    3   10      1.57      0.00
    7    3   10      2.85      0.00
    9    3   10     -1.18      0.00
   11    3   10      3.82      0.00
   13    3   10      0.33      0.00
   15    3   10     -3.65      0.00
   17    3   10      0.07      0.00
   19    3   10      3.52      0.00
  -34    4   10     -3.92      0.00
  -32    4   10     -3.25      0.00
  -30    4   10     -5.55      0.00
  -28    4   10     -7.71      0.00
  -26    4   10     -2.93      0.00
  -24    4   10     -6.55      0.00
  -22    4   10      1.31      0.00
  -20    4   10      1.43      0.00
  -18    4   10     -9.32      0.00
  -16    4   10      7.41      0.00
  -14    4   10     -1.56      0.00
  -12    4   10     -6.32      0.00
  -10    4   10     15.80      0.00
   -8    4   10    -12.50      0.00
   -6    4   10     -3.57      0.00
   -4    4   10     24.30      0.00
   -2    4   10    -13.25      0.00
    0    4   10     -5.60      0.00
    2    4   10     13.31      0.00
    4    4   10     -4.28      0.00
    6    4   10      3.73      0.00
    8    4   10      1.99      0.00
   10    4   10     -1.54      0.00
   12    4   10      6.48      0.00
   14    4   10     -3.81      0.00
   16    4   10     -3.56      0.00
   18    4   10      6.75      0.00
   20    4   10      3.22      0.00
  -33    5   10      3.44      0.00
  -31    5   10      3.40      0.00
  -29    5   10     -6.00      0.00
  -27    5   10     -3.14      0.00
  -25    5   10     -0.88      0.00
  -23    5   10     -3.08      0.00
  -21    5   10     -2.58      0.00
  -19    5   10     -5.94      0.00
  -17    5   10     -2.32      0.00
  -15    5   10      0.84      0.00
  -13    5   10     -6.10      0.00
  -11    5   10      3.62      0.00
   -9    5   10      7.95      0.00
   -7    5   10     -6.71      0.00
   -5    5   10      6.87      0.00
   -3    5   10      7.08      0.00
   -1    5   10    -15.24      0.00
    1    5   10     -0.58      0.00
    3    5   10      4.51      0.00
    5    5   10     -4.00      0.00
    7    5   10      2.58      0.00
    9    5   10     -2.01      0.00
   11    5   10      0.21      0.00
   13    5   10     -0.15      0.00
   15    5   10     -8.78      0.00
   17    5   10      2.05      0.00
   19    5   10      4.43      0.00
  -32    6   10      8.80      0.00
  -30    6   10      4.03      0.00
  -28    6   10     -0.96      0.00
  -26    6   10      0.38      0.00
  -24    6   10      0.57      0.00
  -22    6   10     -4.65      0.00
  -20    6   10     -6.94      0.00
  -18    6   10     -2.10      0.00
  -16    6   10     -2.19      0.00
  -14    6   10     -2.82      0.00
  -12    6   10      0.07      0.00
  -10    6   10      3.17      0.00
   -8    6   10      7.44      0.00
   -6    6   10      1.13      0.00
   -4    6   10     -2.41      0.00
   -2    6   10      0.82      0.00
    0    6   10     -4.90      0.00
    2    6   10     -5.26      0.00
    4    6   10     -0.81      0.00
    6    6   10      0.26      0.00
    8    6   10     -0.04      0.00
   10    6   10     -1.94      0.00
   12    6   10     -4.19      0.00
   14    6   10     -6.35      0.00
   16    6   10     -2.65      0.00
   18    6   10     -1.32      0.00
  -31    7   10      7.54      0.00
  -29    7   10      9.48      0.00
  -27    7   10      1.70      0.00
  -25    7   10     -1.26      0.00
  -23    7   10     -0.07      0.00
  -21    7   10     -2.10      0.00
  -19    7   10     -0.69      0.00
  -17    7   10     -0.90      0.00
  -15    7   10     -4.37      0.00
  -13    7   10      4.79      0.00
  -11    7   10      5.76      0.00
   -9    7   10      0.00      0.00
   -7    7   10      9.42      0.00
   -5    7   10      1.15      0.00
   -3    7   10     -4.83      0.00
   -1    7   10      8.32      0.00
    1    7   10      0.33      0.00
    3    7   10     -3.72      0.00
    5    7   10      4.32      0.00
    7    7   10      1.36      0.00
    9    7   10      1.75      0.00
   11    7   10     -1.81      0.00
   13    7   10     -5.67      0.00
   15    7   10      1.80      0.00
  -28    8   10      9.85      0.00
  -26    8   10     -1.91      0.00
  -24    8   10     -0.14      0.00
  -22    8   10      3.45      0.00
  -20    8   10      3.48      0.00
  -18    8   10      4.55      0.00
  -16    8   10     -4.78      0.00
  -14    8   10      2.22      0.00
  -12    8   10     13.98      0.00
  -10    8   10     -0.97      0.00
   -8    8   10      2.60      0.00
   -6    8   10      9.40      0.00
   -4    8   10     -3.12      0.00
   -2    8   10      4.25      0.00
    0    8   10      6.67      0.00
    2    8   10      2.35      0.00
    4    8   10      7.89      0.00
    6    8   10      2.26      0.00
    8    8   10      3.33      0.00
   10    8   10      4.62      0.00
   12    8   10     -1.52      0.00
   14    8   10      5.94      0.00
  -27    9   10      3.77      0.00
  -25    9   10     -1.11      0.00
  -23    9   10      5.08      0.00
  -21    9   10      3.32      0.00
  -19    9   10      5.04      0.00
  -17    9   10      3.47      0.00
  -15    9   10     -3.28      0.00
  -13    9   10      8.23      0.00
  -11    9   10      5.77      0.00
   -9    9   10     -1.58      0.00
   -7    9   10      4.46      0.00
   -5    9   10     -1.32      0.00
   -3    9   10      0.73      0.00
   -1    9   10     -0.33      0.00
    1    9   10     -4.78      0.00
    3    9   10      9.50      0.00
    5    9   10      5.56      0.00
    7    9   10     -0.61      0.00
    9    9   10      6.78      0.00
   11    9   10      2.83      0.00
  -24   10   10      2.43      0.00
  -22   10   10      4.61      0.00
  -20   10   10      0.84      0.00
  -18   10   10      1.58      0.00
  -16   10   10      1.41      0.00
  -14   10   10     -2.65      0.00
  -12   10   10      1.52      0.00
  -10   10   10      2.01      0.00
   -8   10   10     -3.24      0.00
   -6   10   10     -2.49      0.00
   -4   10   10     -0.88      0.00
   -2   10   10     -5.46      0.00
    0   10   10    -11.42      0.00
    2   10   10     -4.42      0.00
    4   10   10      4.81      0.00
    6   10   10      2.24      0.00
    8   10   10      2.09      0.00
   10   10   10      4.62      0.00
  -19   11   10     -3.15      0.00
  -17   11   10     -2.27      0.00
  -15   11   10     -2.12      0.00
  -13   11   10     -7.47      0.00
  -11   11   10     -0.43      0.00
   -9   11   10     -2.24      0.00
   -7   11   10     -7.45      0.00
   -5   11   10      2.46      0.00
   -3   11   10     -3.16      0.00
   -1   11   10     -8.53      0.00
    1   11   10     -4.04      0.00
    3   11   10     -5.37      0.00
    5   11   10      3.97      0.00
  -14   12   10     -5.12      0.00
  -12   12   10     -8.10      0.00
  -10   12   10     -2.11      0.00
   -8   12   10     -4.25      0.00
   -6   12   10     -2.76      0.00
   -4   12   10      4.47      0.00
   -2   12   10     -0.64      0.00
    0   12   10      4.24      0.00
  -35    1   11     -2.63      0.00
  -33    1   11      0.24      0.00
  -31    1   11     -0.84      0.00
  -29    1   11     -2.10      0.00
  -27    1   11     -4.19      0.00
  -25    1   11      0.78      0.00
  -23    1   11     -3.51      0.00
  -21    1   11     -1.08      0.00
  -19    1   11      1.64      0.00
  -17    1   11     -9.84      0.00
  -15    1   11      4.43      0.00
  -13    1   11      8.88      0.00
  -11    1   11     -2.24      0.00
   -9    1   11     -3.44      0.00
   -7    1   11     -8.15      0.00
   -5    1   11      2.03      0.00
   -3    1   11      5.49      0.00
   -1    1   11     -0.43      0.00
    1    1   11      0.07      0.00
    3    1   11     -4.75      0.00
    5    1   11     -0.40      0.00
    7    1   11     -0.26      0.00
    9    1   11     -5.88      0.00
   11    1   11      3.09      0.00
   13    1   11      6.09      0.00
   15    1   11     -3.34      0.00
   17    1   11     -4.67      0.00
   19    1   11     -4.65      0.00
  -34    2   11     -1.72      0.00
  -32    2   11      0.45      0.00
  -30    2   11      0.28      0.00
  -28    2   11     -3.35      0.00
  -26    2   11      1.24      0.00
  -24    2   11     -3.33      0.00
  -22    2   11     -3.20      0.00
  -20    2   11      3.60      0.00
  -18    2   11     -9.88      0.00
  -16    2   11      6.62      0.00
  -14    2   11     13.50      0.00
  -12    2   11     -4.07      0.00
  -10    2   11      9.19      0.00
   -8    2   11     -9.65      0.00
   -6    2   11    -10.91      0.00
   -4    2   11     18.93      0.00
   -2    2   11     -1.91      0.00
    0    2   11     -4.82      0.00
    2    2   11      2.89      0.00
    4    2   11     -7.02      0.00
    6    2   11      1.33      0.00
    8    2   11     -1.34      0.00
   10    2   11     -2.14      0.00
   12    2   11      7.12      0.00
   14    2   11      1.25      0.00
   16    2   11     -3.44      0.00
   18    2   11     -5.50      0.00
  -33    3   11     -2.11      0.00
  -31    3   11      3.21      0.00
  -29    3   11     -1.50      0.00
  -27    3   11      2.31      0.00
  -25    3   11      1.23      0.00
  -23    3   11     -4.09      0.00
  -21    3   11      2.65      0.00
  -19    3   11     -6.84      0.00
  -17    3   11      3.89      0.00
  -15    3   11     19.35      0.00
  -13    3   11     -3.10      0.00
  -11    3   11      6.83      0.00
   -9    3   11     12.17      0.00
   -7    3   11    -14.19      0.00
   -5    3   11      7.79      0.00
   -3    3   11     14.50      0.00
   -1    3   11    -11.16      0.00
    1    3   11     -1.45      0.00
    3    3   11     -0.05      0.00
    5    3   11     -5.25      0.00
    7    3   11      2.40      0.00
    9    3   11     -2.23      0.00
   11    3   11     -0.25      0.00
   13    3   11      3.39      0.00
   15    3   11     -1.81      0.00
   17    3   11     -2.91      0.00
  -32    4   11      0.16      0.00
  -30    4   11      0.78      0.00
  -28    4   11     -1.61      0.00
  -26    4   11      0.68      0.00
  -24    4   11      2.69      0.00
  -22    4   11      1.73      0.00
  -20    4   11     -7.35      0.00
  -18    4   11      0.72      0.00
  -16    4   11      8.76      0.00
  -14    4   11      3.30      0.00
  -12    4   11      6.59      0.00
  -10    4   11      7.28      0.00
   -8    4   11      8.05      0.00
   -6    4   11      4.83      0.00
   -4    4   11      2.23      0.00
   -2    4   11      4.22      0.00
    0    4   11     -5.18      0.00
    2    4   11     -5.89      0.00
    4    4   11     -2.59      0.00
    6    4   11     -4.20      0.00
    8    4   11     -3.43      0.00
   10    4   11     -6.15      0.00
   12    4   11     -2.24      0.00
   14    4   11      0.26      0.00
   16    4   11     -3.54      0.00
  -31    5   11     -1.89      0.00
  -29    5   11      0.17      0.00
  -27    5   11     -3.73      0.00
  -25    5   11      1.06      0.00
  -23    5   11      8.08      0.00
  -21    5   11     -4.57      0.00
  -19    5   11     -2.35      0.00
  -17    5   11      1.75      0.00
  -15    5   11     -6.67      0.00
  -13    5   11      8.73      0.00
  -11    5   11      5.80      0.00
   -9    5   11      1.34      0.00
   -7    5   11     19.76      0.00
   -5    5   11      1.35      0.00
   -3    5   11     -7.50      0.00
   -1    5   11      6.88      0.00
    1    5   11     -4.20      0.00
    3    5   11     -8.09      0.00
    5    5   11     -4.79      0.00
    7    5   11     -8.70      0.00
    9    5   11     -7.30      0.00
   11    5   11     -6.23      0.00
   13    5   11     -2.60      0.00
   15    5   11      1.95      0.00
  -30    6   11     -0.09      0.00
  -28    6   11      3.44      0.00
  -26    6   11     -0.57      0.00
  -24    6   11      4.36      0.00
  -22    6   11      1.55      0.00
  -20    6   11      2.16      0.00
  -18    6   11      4.27      0.00
  -16    6   11     -8.74      0.00
  -14    6   11     -2.20      0.00
  -12    6   11      9.16      0.00
  -10    6   11     -0.29      0.00
   -8    6   11      7.04      0.00
   -6    6   11     12.24      0.00
   -4    6   11     -5.05      0.00
   -2    6   11     -2.67      0.00
    0    6   11      4.64      0.00
    2    6   11     -3.83      0.00
    4    6   11     -5.62      0.00
    6    6   11     -6.92      0.00
    8    6   11     -7.45      0.00
   10    6   11     -3.13      0.00
   12    6   11     -2.51      0.00
   14    6   11      4.49      0.00
  -29    7   11      6.16      0.00
  -27    7   11      6.59      0.00
  -25    7   11      1.36      0.00
  -23    7   11      0.61      0.00
  -21    7   11      3.76      0.00
  -19    7   11      8.54      0.00
  -17    7   11      2.19      0.00
  -15    7   11     -4.30      0.00
  -13    7   11      4.68      0.00
  -11    7   11      4.78      0.00
   -9    7   11     -0.58      0.00
   -7    7   11      4.82      0.00
   -5    7   11      1.86      0.00
   -3    7   11     -0.61      0.00
   -1    7   11      2.23      0.00
    1    7   11     -1.68      0.00
    3    7   11     -0.31      0.00
    5    7   11     -2.07      0.00
    7    7   11     -5.67      0.00
    9    7   11     -0.44      0.00
   11    7   11     -0.17      0.00
   13    7   11      4.56      0.00
  -28    8   11      5.22      0.00
  -26    8   11      2.08      0.00
  -24    8   11     -0.87      0.00
  -22    8   11      4.75      0.00
  -20    8   11      2.63      0.00
  -18    8   11      2.37      0.00
  -16    8   11      5.52      0.00
  -14    8   11      3.13      0.00
  -12    8   11      3.69      0.00
  -10    8   11      1.99      0.00
   -8    8   11      1.23      0.00
   -6    8   11     -1.05      0.00
   -4    8   11     -1.26      0.00
   -2    8   11      6.26      0.00
    0    8   11      0.03      0.00
    2    8   11     -2.71      0.00
    4    8   11      2.83      0.00
    6    8   11     -2.51      0.00
    8    8   11     -2.25      0.00
   10    8   11     -1.22      0.00
  -25    9   11     -0.88      0.00
  -23    9   11      3.42      0.00
  -21    9   11      4.42      0.00
  -19    9   11     -5.10      0.00
  -17    9   11     -2.45      0.00
  -15    9   11      5.21      0.00
  -13    9   11     -0.82      0.00
  -11    9   11      3.02      0.00
   -9    9   11      5.89      0.00
   -7    9   11     -4.49      0.00
   -5    9   11     -3.27      0.00
   -3    9   11      1.91      0.00
   -1    9   11      2.60      0.00
    1    9   11      2.70      0.00
    3    9   11     -0.41      0.00
    5    9   11      0.65      0.00
    7    9   11     -0.23      0.00
    9    9   11     -6.56      0.00
  -22   10   11      4.74      0.00
  -20   10   11      2.35      0.00
  -18   10   11     -9.52      0.00
  -16   10   11     -9.78      0.00
  -14   10   11     -4.24      0.00
  -12   10   11     -2.36      0.00
  -10   10   11      8.32      0.00
   -8   10   11     -0.64      0.00
   -6   10   11     -6.90      0.00
   -4   10   11      0.08      0.00
   -2   10   11     -5.37      0.00
    0   10   11      5.03      0.00
    2   10   11      7.41      0.00
    4   10   11     -1.82      0.00
    6   10   11      5.77      0.00
  -17   11   11    -15.98      0.00
  -15   11   11    -14.51      0.00
  -13   11   11     -4.99      0.00
  -11   11   11     -0.51      0.00
   -9   11   11      4.20      0.00
   -7   11   11     -0.96      0.00
   -5   11   11     -4.91      0.00
   -3   11   11     -7.31      0.00
   -1   11   11     -3.41      0.00
    1   11   11      9.00      0.00
  -34    0   12    -12.18      0.00
  -32    0   12     -0.25      0.00
  -30    0   12      4.72      0.00
  -28    0   12      0.97      0.00
  -26    0   12     -0.05      0.00
  -24    0   12      1.49      0.00
  -22    0   12     -0.49      0.00
  -20    0   12      1.51      0.00
  -18    0   12     -1.81      0.00
  -16    0   12     -0.90      0.00
  -14    0   12     -0.23      0.00
  -12    0   12     -0.57      0.00
  -10    0   12     11.03      0.00
   -8    0   12     -4.91      0.00
   -6    0   12    -11.25      0.00
   -4    0   12      2.85      0.00
   -2    0   12     -7.71      0.00
    0    0   12      1.38      0.00
    2    0   12     10.66      0.00
    4    0   12      0.90      0.00
    6    0   12      4.99      0.00
    8    0   12     -1.99      0.00
   10    0   12     -8.67      0.00
   12    0   12      4.34      0.00
   14    0   12      4.77      0.00
   16    0   12     -4.67      0.00
  -33    1   12     -1.88      0.00
  -31    1   12      6.14      0.00
  -29    1   12      2.68      0.00
  -27    1   12      0.09      0.00
  -25    1   12      2.79      0.00
  -23    1   12     -0.59      0.00
  -21    1   12      1.88      0.00
  -19    1   12     -1.83      0.00
  -17    1   12     -4.43      0.00
  -15    1   12      6.60      0.00
  -13    1   12     -1.78      0.00
  -11    1   12      1.60      0.00
   -9    1   12      8.95      0.00
   -7    1   12    -10.24      0.00
   -5    1   12     -3.91      0.00
   -3    1   12      1.74      0.00
   -1    1   12     -5.99      0.00
    1    1   12      6.45      0.00
    3    1   12      7.20      0.00
    5    1   12      2.77      0.00
    7    1   12      2.17      0.00
    9    1   12     -5.25      0.00
   11    1   12     -0.49      0.00
   13    1   12      4.03      0.00
   15    1   12     -1.83      0.00
  -32    2   12      8.77      0.00
  -30    2   12      7.00      0.00
  -28    2   12     -1.15      0.00
  -26    2   12      2.40      0.00
  -24    2   12      1.40      0.00
  -22    2   12      0.91      0.00
  -20    2   12     -1.18      0.00
  -18    2   12     -6.68      0.00
  -16    2   12      5.09      0.00
  -14    2   12      6.93      0.00
  -12    2   12     -4.00      0.00
  -10    2   12      1.87      0.00
   -8    2   12      5.65      0.00
   -6    2   12     -3.49      0.00
   -4    2   12     -2.48      0.00
   -2    2   12      1.96      0.00
    0    2   12     -0.18      0.00
    2    2   12      4.26      0.00
    4    2   12      6.08      0.00
    6    2   12      1.44      0.00
    8    2   12      0.43      0.00
   10    2   12      0.98      0.00
   12    2   12      0.18      0.00
   14    2   12     -1.30      0.00
   16    2   12     -1.16      0.00
  -33    3   12      7.82      0.00
  -31    3   12      7.38      0.00
  -29    3   12      2.66      0.00
  -27    3   12     -2.02      0.00
  -25    3   12     -2.72      0.00
  -23    3   12      3.07      0.00
  -21    3   12     -2.87      0.00
  -19    3   12     -4.55      0.00
  -17    3   12      5.49      0.00
  -15    3   12     -1.17      0.00
  -13    3   12      3.03      0.00
  -11    3   12     -0.37      0.00
   -9    3   12     -5.46      0.00
   -7    3   12     13.86      0.00
   -5    3   12     -0.02      0.00
   -3    3   12     -7.86      0.00
   -1    3   12      8.52      0.00
    1    3   12      0.79      0.00
    3    3   12     -0.59      0.00
    5    3   12      2.21      0.00
    7    3   12      1.24      0.00
    9    3   12      4.72      0.00
   11    3   12     -0.93      0.00
   13    3   12     -1.10      0.00
   15    3   12      2.10      0.00
  -32    4   12     -1.65      0.00
  -30    4   12     -1.30      0.00
  -28    4   12      1.09      0.00
  -26    4   12     -7.26      0.00
  -24    4   12     -1.71      0.00
  -22    4   12     -0.28      0.00
  -20    4   12     -5.55      0.00
  -18    4   12      8.77      0.00
  -16    4   12     -1.67      0.00
  -14    4   12     -6.07      0.00
  -12    4   12      7.89      0.00
  -10    4   12     -8.11      0.00
   -8    4   12      2.12      0.00
   -6    4   12     15.58      0.00
   -4    4   12     -6.77      0.00
   -2    4   12     -1.75      0.00
    0    4   12      7.49      0.00
    2    4   12     -2.69      0.00
    4    4   12     -3.54      0.00
    6    4   12     -0.91      0.00
    8    4   12      3.47      0.00
   10    4   12      3.36      0.00
   12    4   12     -0.21      0.00
   14    4   12      3.77      0.00
  -31    5   12    -12.93      0.00
  -29    5   12     -6.12      0.00
  -27    5   12     -2.71      0.00
  -25    5   12     -1.24      0.00
  -23    5   12     -2.00      0.00
  -21    5   12     -5.61      0.00
  -19    5   12      6.66      0.00
  -17    5   12      3.95      0.00
  -15    5   12     -5.54      0.00
  -13    5   12      2.24      0.00
  -11    5   12      0.62      0.00
   -9    5   12     -0.14      0.00
   -7    5   12      5.43      0.00
   -5    5   12      2.63      0.00
   -3    5   12     -0.54      0.00
   -1    5   12     -0.24      0.00
    1    5   12      0.11      0.00
    3    5   12     -2.70      0.00
    5    5   12     -4.71      0.00
    7    5   12     -1.48      0.00
    9    5   12      2.57      0.00
   11    5   12      3.66      0.00
   13    5   12      4.02      0.00
  -30    6   12    -16.00      0.00
  -28    6   12     -8.55      0.00
  -26    6   12      2.74      0.00
  -24    6   12      1.32      0.00
  -22    6   12     -4.08      0.00
  -20    6   12      1.92      0.00
  -18    6   12      2.27      0.00
  -16    6   12      0.16      0.00
  -14    6   12      1.32      0.00
  -12    6   12      0.97      0.00
  -10    6   12      5.30      0.00
   -8    6   12      3.42      0.00
   -6    6   12     -1.80      0.00
   -4    6   12      0.83      0.00
   -2    6   12      1.21      0.00
    0    6   12     -3.07      0.00
    2    6   12     -3.44      0.00
    4    6   12     -1.61      0.00
    6    6   12     -3.49      0.00
    8    6   12     -2.45      0.00
   10    6   12      1.41      0.00
   12    6   12      2.84      0.00
  -27    7   12     -3.23      0.00
  -25    7   12      0.31      0.00
  -23    7   12     -0.81      0.00
  -21    7   12      6.00      0.00
  -19    7   12     -3.48      0.00
  -17    7   12     -5.17      0.00
  -15    7   12      3.49      0.00
  -13    7   12     -0.69      0.00
  -11    7   12      3.23      0.00
   -9    7   12      4.96      0.00
   -7    7   12      1.04      0.00
   -5    7   12      0.37      0.00
   -3    7   12     -2.08      0.00
   -1    7   12     -0.54      0.00
    1    7   12     -2.86      0.00
    3    7   12     -2.85      0.00
    5    7   12      0.84      0.00
    7    7   12     -2.16      0.00
    9    7   12     -3.00      0.00
  -26    8   12     -4.82      0.00
  -24    8   12     -2.52      0.00
  -22    8   12      5.01      0.00
  -20    8   12      2.78      0.00
  -18    8   12     -9.76      0.00
  -16    8   12     -4.51      0.00
  -14    8   12     -1.39      0.00
  -12    8   12     -6.61      0.00
  -10    8   12      1.94      0.00
   -8    8   12      4.02      0.00
   -6    8   12      1.75      0.00
   -4    8   12      2.47      0.00
   -2    8   12     -2.87      0.00
    0    8   12      0.61      0.00
    2    8   12      2.35      0.00
    4    8   12     -0.83      0.00
    6    8   12      4.07      0.00
    8    8   12      1.10      0.00
  -21    9   12     -0.76      0.00
  -19    9   12     -0.91      0.00
  -17    9   12     -6.47      0.00
  -15    9   12     -7.75      0.00
  -13    9   12    -10.37      0.00
  -11    9   12     -9.03      0.00
   -9    9   12      3.11      0.00
   -7    9   12      0.01      0.00
   -5    9   12      2.38      0.00
   -3    9   12      5.09      0.00
   -1    9   12     -0.45      0.00
    1    9   12      8.28      0.00
    3    9   12      4.63      0.00
    5    9   12      1.94      0.00
  -18   10   12      0.18      0.00
  -16   10   12     -7.64      0.00
  -14   10   12     -8.19      0.00
  -12   10   12     -7.21      0.00
  -10   10   12     -7.62      0.00
   -8   10   12     -2.86      0.00
   -6   10   12     -1.59      0.00
   -4   10   12      1.56      0.00
   -2   10   12      4.76      0.00
    0   10   12      7.12      0.00
  -31    1   13     -0.70      0.00
  -29    1   13     -2.98      0.00
  -27    1   13     -5.20      0.00
  -25    1   13     -0.34      0.00
  -23    1   13      1.03      0.00
  -21    1   13     -1.16      0.00
  -19    1   13      1.58      0.00
  -17    1   13     -1.91      0.00
  -15    1   13     -1.43      0.00
  -13    1   13     12.54      0.00
  -11    1   13      4.32      0.00
   -9    1   13     -4.51      0.00
   -7    1   13      6.28      0.00
   -5    1   13     -3.92      0.00
   -3    1   13     -4.97      0.00
   -1    1   13      8.10      0.00
    1    1   13     -0.57      0.00
    3    1   13     -4.20      0.00
    5    1   13     -0.70      0.00
    7    1   13     -1.11      0.00
    9    1   13      3.82      0.00
   11    1   13      2.01      0.00
   13    1   13     -9.03      0.00
  -32    2   13      0.17      0.00
  -30    2   13     -3.31      0.00
  -28    2   13     -1.22      0.00
  -26    2   13     -1.80      0.00
  -24    2   13      0.98      0.00
  -22    2   13      2.10      0.00
  -20    2   13     -3.26      0.00
  -18    2   13      1.70      0.00
  -16    2   13     -3.27      0.00
  -14    2   13     -1.26      0.00
  -12    2   13     13.99      0.00
  -10    2   13     -2.66      0.00
   -8    2   13     -3.50      0.00
   -6    2   13      7.66      0.00
   -4    2   13     -6.95      0.00
   -2    2   13      0.99      0.00
    0    2   13      8.68      0.00
    2    2   13     -2.20      0.00
    4    2   13     -3.43      0.00
    6    2   13     -3.37      0.00
    8    2   13      4.92      0.00
   10    2   13      8.72      0.00
   12    2   13     -6.82      0.00
  -31    3   13     -3.52      0.00
  -29    3   13     -0.29      0.00
  -27    3   13      6.08      0.00
  -25    3   13      0.67      0.00
  -23    3   13      2.54      0.00
  -21    3   13     -1.06      0.00
  -19    3   13     -1.47      0.00
  -17    3   13      1.32      0.00
  -15    3   13     -9.20      0.00
  -13    3   13     -1.09      0.00
  -11    3   13      5.10      0.00
   -9    3   13     -5.00      0.00
   -7    3   13      0.98      0.00
   -5    3   13      3.92      0.00
   -3    3   13      0.38      0.00
   -1    3   13      3.66      0.00
    1    3   13      2.83      0.00
    3    3   13     -0.83      0.00
    5    3   13     -3.57      0.00
    7    3   13      2.21      0.00
    9    3   13     10.37      0.00
   11    3   13      2.27      0.00
  -30    4   13     -1.68      0.00
  -28    4   13      3.30      0.00
  -26    4   13      4.37      0.00
  -24    4   13      2.81      0.00
  -22    4   13     -1.09      0.00
  -20    4   13     -0.22      0.00
  -18    4   13      0.39      0.00
  -16    4   13     -5.20      0.00
  -14    4   13     -3.88      0.00
  -12    4   13     -3.12      0.00
  -10    4   13      1.24      0.00
   -8    4   13      3.28      0.00
   -6    4   13     -1.79      0.00
   -4    4   13      5.96      0.00
   -2    4   13      6.33      0.00
    0    4   13     -3.36      0.00
    2    4   13     -2.25      0.00
    4    4   13     -0.31      0.00
    6    4   13      2.88      0.00
    8    4   13      7.14      0.00
   10    4   13      4.98      0.00
  -29    5   13     -0.10      0.00
  -27    5   13     -0.84      0.00
  -25    5   13      2.36      0.00
  -23    5   13     -1.84      0.00
  -21    5   13     -0.08      0.00
  -19    5   13      0.01      0.00
  -17    5   13     -4.40      0.00
  -15    5   13      2.67      0.00
  -13    5   13     -1.13      0.00
  -11    5   13      0.02      0.00
   -9    5   13      8.40      0.00
   -7    5   13      0.30      0.00
   -5    5   13      1.77      0.00
   -3    5   13      6.84      0.00
   -1    5   13     -0.76      0.00
    1    5   13     -7.09      0.00
    3    5   13     -4.56      0.00
    5    5   13      5.02      0.00
    7    5   13      7.96      0.00
    9    5   13      4.41      0.00
  -26    6   13      1.51      0.00
  -24    6   13     -5.46      0.00
  -22    6   13     -2.39      0.00
  -20    6   13      3.35      0.00
  -18    6   13     -6.32      0.00
  -16    6   13      0.78      0.00
  -14    6   13      3.60      0.00
  -12    6   13      1.35      0.00
  -10    6   13      8.69      0.00
   -8    6   13      0.39      0.00
   -6    6   13      1.61      0.00
   -4    6   13      5.26      0.00
   -2    6   13     -3.28      0.00
    0    6   13     -3.24      0.00
    2    6   13     -5.05      0.00
    4    6   13      0.42      0.00
    6    6   13      9.42      0.00
    8    6   13      6.11      0.00
  -25    7   13     -1.18      0.00
  -23    7   13     -4.08      0.00
  -21    7   13      1.91      0.00
  -19    7   13     -1.04      0.00
  -17    7   13     -5.11      0.00
  -15    7   13     -0.45      0.00
  -13    7   13      1.93      0.00
  -11    7   13      2.73      0.00
   -9    7   13      1.58      0.00
   -7    7   13     -1.93      0.00
   -5    7   13      0.71      0.00
   -3    7   13     -1.54      0.00
   -1    7   13     -6.14      0.00
    1    7   13     -0.22      0.00
    3    7   13      3.02      0.00
    5    7   13      4.21      0.00
  -22    8   13      3.16      0.00
  -20    8   13     -2.06      0.00
  -18    8   13     -0.52      0.00
  -16    8   13     -4.73      0.00
  -14    8   13     -1.59      0.00
  -12    8   13     -1.30      0.00
  -10    8   13     -4.21      0.00
   -8    8   13      1.69      0.00
   -6    8   13     -6.06      0.00
   -4    8   13     -7.62      0.00
   -2    8   13     -3.87      0.00
    0    8   13     -4.22      0.00
    2    8   13      5.85      0.00
  -17    9   13      0.81      0.00
  -15    9   13     -5.03      0.00
  -13    9   13     -1.97      0.00
  -11    9   13     -1.84      0.00
   -9    9   13     -1.87      0.00
   -7    9   13     -2.37      0.00
   -5    9   13    -11.40      0.00
   -3    9   13     -9.49      0.00
   -1    9   13     -3.60      0.00
  -30    0   14    -11.76      0.00
  -28    0   14     -7.41      0.00
  -26    0   14     -5.73      0.00
  -24    0   14      3.09      0.00
  -22    0   14      3.14      0.00
  -20    0   14      2.20      0.00
  -18    0   14      8.67      0.00
  -16    0   14     -5.60      0.00
  -14    0   14     -3.42      0.00
  -12    0   14     13.63      0.00
  -10    0   14     -1.84      0.00
   -8    0   14     -1.38      0.00
   -6    0   14      8.49      0.00
   -4    0   14     -6.94      0.00
   -2    0   14     -6.93      0.00
    0    0   14      1.21      0.00
    2    0   14      1.26      0.00
    4    0   14      3.16      0.00
    6    0   14      0.43      0.00
    8    0   14     -0.43      0.00
  -29    1   14     -8.81      0.00
  -27    1   14     -1.89      0.00
  -25    1   14      0.43      0.00
  -23    1   14      3.15      0.00
  -21    1   14      2.06      0.00
  -19    1   14      3.23      0.00
  -17    1   14      2.96      0.00
  -15    1   14     -4.39      0.00
  -13    1   14      2.54      0.00
  -11    1   14      4.79      0.00
   -9    1   14     -4.76      0.00
   -7    1   14      0.91      0.00
   -5    1   14      1.32      0.00
   -3    1   14     -5.91      0.00
   -1    1   14     -3.91      0.00
    1    1   14     -1.49      0.00
    3    1   14      2.72      0.00
    5    1   14      3.03      0.00
    7    1   14     -1.58      0.00
    9    1   14      2.58      0.00
  -30    2   14     -9.51      0.00
  -28    2   14      0.51      0.00
  -26    2   14      7.52      0.00
  -24    2   14      0.98      0.00
  -22    2   14      0.28      0.00
  -20    2   14      0.23      0.00
  -18    2   14     -1.52      0.00
  -16    2   14      2.26      0.00
  -14    2   14     -1.19      0.00
  -12    2   14     -4.93      0.00
  -10    2   14     -1.14      0.00
   -8    2   14     -3.58      0.00
   -6    2   14     -4.64      0.00
   -4    2   14      1.46      0.00
   -2    2   14     -1.01      0.00
    0    2   14     -7.12      0.00
    2    2   14     -2.10      0.00
    4    2   14      4.14      0.00
    6    2   14      1.37      0.00
    8    2   14      0.18      0.00
  -29    3   14      1.54      0.00
  -27    3   14      7.47      0.00
  -25    3   14      4.39      0.00
  -23    3   14     -2.54      0.00
  -21    3   14     -2.36      0.00
  -19    3   14     -2.96      0.00
  -17    3   14     -4.82      0.00
  -15    3   14      0.74      0.00
  -13    3   14     -3.92      0.00
  -11    3   14     -7.14      0.00
   -9    3   14      1.65      0.00
   -7    3   14     -2.40      0.00
   -5    3   14     -2.77      0.00
   -3    3   14      4.87      0.00
   -1    3   14     -1.42      0.00
    1    3   14     -5.60      0.00
    3    3   14     -0.01      0.00
    5    3   14      3.50      0.00
    7    3   14      2.88      0.00
  -28    4   14      6.95      0.00
  -26    4   14      2.34      0.00
  -24    4   14     -1.71      0.00
  -22    4   14     -3.08      0.00
  -20    4   14     -1.32      0.00
  -18    4   14     -7.50      0.00
  -16    4   14     -5.00      0.00
  -14    4   14      0.11      0.00
  -12    4   14     -5.28      0.00
  -10    4   14      1.23      0.00
   -8    4   14      3.27      0.00
   -6    4   14      0.37      0.00
   -4    4   14      4.39      0.00
   -2    4   14      0.91      0.00
    0    4   14     -1.09      0.00
    2    4   14     -0.55      0.00
    4    4   14      1.27      0.00
    6    4   14      4.72      0.00
  -25    5   14      1.43      0.00
  -23    5   14     -2.96      0.00
  -21    5   14      0.13      0.00
  -19    5   14     -2.15      0.00
  -17    5   14     -4.86      0.00
  -15    5   14      0.48      0.00
  -13    5   14     -3.57      0.00
  -11    5   14      0.82      0.00
   -9    5   14      4.54      0.00
   -7    5   14     -0.60      0.00
   -5    5   14      6.26      0.00
   -3    5   14      2.28      0.00
   -1    5   14     -4.07      0.00
    1    5   14      1.52      0.00
    3    5   14      1.89      0.00
    5    5   14      3.96      0.00
  -24    6   14      2.51      0.00
  -22    6   14     -0.80      0.00
  -20    6   14     -1.02      0.00
  -18    6   14      2.25      0.00
  -16    6   14      1.77      0.00
  -14    6   14     -0.53      0.00
  -12    6   14      0.36      0.00
  -10    6   14     -0.49      0.00
   -8    6   14      0.68      0.00
   -6    6   14      1.94      0.00
   -4    6   14      1.58      0.00
   -2    6   14     -0.59      0.00
    0    6   14     -3.04      0.00
    2    6   14      1.69      0.00
  -21    7   14     -2.75      0.00
  -19    7   14     -0.89      0.00
  -17    7   14      4.60      0.00
  -15    7   14     -0.05      0.00
  -13    7   14      5.66      0.00
  -11    7   14     -1.19      0.00
   -9    7   14     -4.34      0.00
   -7    7   14      6.31      0.00
   -5    7   14     -2.24      0.00
   -3    7   14     -0.88      0.00
   -1    7   14      3.09      0.00
    1    7   14     -1.60      0.00
  -16    8   14      0.83      0.00
  -14    8   14      3.64      0.00
  -12    8   14      5.40      0.00
  -10    8   14      0.06      0.00
   -8    8   14      2.55      0.00
   -6    8   14      2.69      0.00
   -4    8   14     -2.32      0.00
  -27    1   15      2.47      0.00
  -25    1   15      5.20      0.00
  -23    1   15      0.76      0.00
  -21    1   15      3.61      0.00
  -19    1   15     -1.99      0.00
  -17    1   15     -5.84      0.00
  -15    1   15      5.92      0.00
  -13    1   15     -1.74      0.00
  -11    1   15     -6.48      0.00
   -9    1   15      4.82      0.00
   -7    1   15      0.84      0.00
   -5    1   15     -2.18      0.00
   -3    1   15      2.16      0.00
   -1    1   15      2.69      0.00
    1    1   15      2.22      0.00
    3    1   15      2.35      0.00
    5    1   15      4.02      0.00
  -26    2   15      3.28      0.00
  -24    2   15      2.30      0.00
  -22    2   15      1.01      0.00
  -20    2   15      0.76      0.00
  -18    2   15     -3.90      0.00
  -16    2   15      1.80      0.00
  -14    2   15      4.27      0.00
  -12    2   15     -5.83      0.00
  -10    2   15     -1.00      0.00
   -8    2   15      5.16      0.00
   -6    2   15      0.86      0.00
   -4    2   15      0.21      0.00
   -2    2   15      1.11      0.00
    0    2   15      2.22      0.00
    2    2   15      3.25      0.00
    4    2   15      3.77      0.00
  -25    3   15     -1.61      0.00
  -23    3   15     -0.79      0.00
  -21    3   15     -0.69      0.00
  -19    3   15      0.19      0.00
  -17    3   15      2.31      0.00
  -15    3   15      4.86      0.00
  -13    3   15      2.16      0.00
  -11    3   15      0.29      0.00
   -9    3   15      2.91      0.00
   -7    3   15      2.32      0.00
   -5    3   15      2.34      0.00
   -3    3   15      0.25      0.00
   -1    3   15     -2.14      0.00
    1    3   15      1.47      0.00
    3    3   15      2.45      0.00
  -24    4   15      0.08      0.00
  -22    4   15      0.32      0.00
  -20    4   15     -0.42      0.00
  -18    4   15      1.17      0.00
  -16    4   15      4.81      0.00
  -14    4   15      7.66      0.00
  -12    4   15      5.92      0.00
  -10    4   15      5.06      0.00
   -8    4   15      2.16      0.00
   -6    4   15     -0.70      0.00
   -4    4   15      1.77      0.00
   -2    4   15     -0.62      0.00
    0    4   15     -1.07      0.00
    2    4   15      1.64      0.00
  -21    5   15      0.78      0.00
  -19    5   15     -2.89      0.00
  -17    5   15      1.33      0.00
  -15    5   15      4.07      0.00
  -13    5   15      9.97      0.00
  -11    5   15      7.81      0.00
   -9    5   15      1.23      0.00
   -7    5   15      1.97      0.00
   -5    5   15     -1.74      0.00
   -3    5   15     -0.90      0.00
   -1    5   15      4.27      0.00
  -18    6   15     -1.93      0.00
  -16    6   15     -2.42      0.00
  -14    6   15     -0.05      0.00
  -12    6   15      9.59      0.00
  -10    6   15      0.30      0.00
   -8    6   15     -0.58      0.00
   -6    6   15      4.23      0.00
   -4    6   15     -4.21      0.00
  -22    0   16     -2.43      0.00
  -20    0   16      1.34      0.00
  -18    0   16     -6.73      0.00
  -16    0   16     -1.63      0.00
  -14    0   16      8.66      0.00
  -12    0   16     -3.34      0.00
  -10    0   16     -4.27      0.00
   -8    0   16      3.10      0.00
   -6    0   16      4.08      0.00
   -4    0   16      3.81      0.00
   -2    0   16     -1.63      0.00
  -21    1   16     -1.25      0.00
  -19    1   16     -4.37      0.00
  -17    1   16     -3.42      0.00
  -15    1   16      5.36      0.00
  -13    1   16      3.20      0.00
  -11    1   16     -2.93      0.00
   -9    1   16     -0.51      0.00
   -7    1   16      2.65      0.00
   -5    1   16      4.29      0.00
   -3    1   16      1.62      0.00
  -20    2   16     -6.77      0.00
  -18    2   16     -1.69      0.00
  -16    2   16      4.32      0.00
  -14    2   16      3.34      0.00
  -12    2   16      3.59      0.00
  -10    2   16      1.22      0.00
   -8    2   16      0.01      0.00
   -6    2   16      1.32      0.00
   -4    2   16      1.73      0.00
  -19    3   16     -2.10      0.00
  -17    3   16      4.37      0.00
  -15    3   16      3.58      0.00
  -13    3   16      6.22      0.00
  -11    3   16      5.25      0.00
   -9    3   16      1.89      0.00
   -7    3   16      0.24      0.00
   -5    3   16     -2.81      0.00
  -16    4   16      5.29      0.00
  -14    4   16      5.76      0.00
  -12    4   16      8.97      0.00
  -10    4   16      3.76      0.00
   -8    4   16     -0.22      0.00
    2    0    0    310.42      0.00
   24    0    0    -12.13      0.00
   38    0    0      0.84      0.00
   37    1    0      0.32      0.00
   38    2    0      0.04      0.00
   37    3    0      0.38      0.00
    4    4    0     33.11      0.00
   36    4    0     -2.90      0.00
   38    4    0     -2.33      0.00
   35    5    0     -4.12      0.00
   37    5    0     -3.49      0.00
    4    6    0     22.89      0.00
   34    6    0     -5.26      0.00
   36    6    0     -3.85      0.00
   38    6    0      0.60      0.00
    7    7    0     -3.13      0.00
   33    7    0     -2.83      0.00
   35    7    0     -2.88      0.00
   37    7    0     -1.29      0.00
    8    8    0     -1.49      0.00
   32    8    0     -0.54      0.00
   34    8    0      0.88      0.00
   36    8    0     -0.47      0.00
   38    8    0     -1.23      0.00
   31    9    0      8.50      0.00
   33    9    0      3.47      0.00
   35    9    0      1.58      0.00
   37    9    0      0.05      0.00
   28   10    0      5.73      0.00
   30   10    0     11.42      0.00
   32   10    0      8.31      0.00
   34   10    0      2.19      0.00
   36   10    0      0.66      0.00
   27   11    0     -0.41      0.00
   29   11    0      1.93      0.00
   31   11    0      4.41      0.00
   33   11    0      4.02      0.00
   35   11    0     -0.08      0.00
   24   12    0     -1.93      0.00
   26   12    0     -2.75      0.00
   28   12    0     -2.97      0.00
   30   12    0     -2.80      0.00
   32   12    0      0.54      0.00
   21   13    0     -7.65      0.00
   23   13    0     -6.55      0.00
   25   13    0     -0.45      0.00
   27   13    0     -1.29      0.00
   29   13    0     -2.05      0.00
   31   13    0     -2.09      0.00
   16   14    0     -0.21      0.00
   18   14    0     -2.02      0.00
   20   14    0     -2.23      0.00
   22   14    0     -6.12      0.00
   24   14    0     -3.83      0.00
   26   14    0      1.16      0.00
   28   14    0      1.55      0.00
    9   15    0      0.19      0.00
   11   15    0      1.19      0.00
   13   15    0     -1.49      0.00
   15   15    0     -2.59      0.00
   17   15    0     -1.50      0.00
   19   15    0     -0.18      0.00
   21   15    0     -0.86      0.00
   23   15    0     -2.38      0.00
   25   15    0     -0.69      0.00
  -37    1    1     -1.12      0.00
   -1    1    1     20.97      0.00
   37    1    1      2.25      0.00
  -38    2    1     -3.62      0.00
   36    2    1      0.05      0.00
   38    2    1      0.01      0.00
  -37    3    1     -4.84      0.00
   -3    3    1     78.13      0.00
    5    3    1     -6.54      0.00
   35    3    1     -0.07      0.00
   37    3    1     -3.33      0.00
  -38    4    1     -0.19      0.00
  -36    4    1     -2.98      0.00
   36    4    1     -3.87      0.00
   38    4    1     -2.23      0.00
  -37    5    1      3.03      0.00
   35    5    1     -1.15      0.00
   37    5    1     -1.70      0.00
  -38    6    1      1.31      0.00
  -36    6    1      5.50      0.00
   -8    6    1     -9.45      0.00
   -2    6    1    -36.25      0.00
   34    6    1      1.76      0.00
   36    6    1      1.69      0.00
   38    6    1      1.04      0.00
  -37    7    1      1.28      0.00
  -35    7    1     -0.67      0.00
   -5    7    1     34.66      0.00
   33    7    1     -5.01      0.00
   35    7    1      2.49      0.00
   37    7    1      2.78      0.00
  -38    8    1      0.67      0.00
  -36    8    1     -2.80      0.00
  -34    8    1     -8.22      0.00
  -32    8    1     -8.48      0.00
   32    8    1     -7.23      0.00
   34    8    1     -4.44      0.00
   36    8    1      1.90      0.00
   38    8    1      0.29      0.00
  -37    9    1     -0.68      0.00
  -35    9    1     -5.88      0.00
  -33    9    1     -7.75      0.00
  -31    9    1     -0.61      0.00
   -7    9    1     13.52      0.00
   29    9    1     -2.40      0.00
   31    9    1     -1.72      0.00
   33    9    1     -4.04      0.00
   35    9    1     -2.55      0.00
   37    9    1      1.16      0.00
  -36   10    1     -1.85      0.00
  -34   10    1     -1.44      0.00
  -32   10    1      4.42      0.00
  -30   10    1      4.08      0.00
   28   10    1      3.72      0.00
   30   10    1      2.40      0.00
   32   10    1      0.32      0.00
   34   10    1     -1.09      0.00
   36   10    1     -0.86      0.00
  -35   11    1      1.22      0.00
  -33   11    1      6.24      0.00
  -31   11    1      4.77      0.00
  -29   11    1     -3.82      0.00
  -27   11    1     -4.90      0.00
   25   11    1      5.95      0.00
   27   11    1      3.15      0.00
   29   11    1      2.54      0.00
   31   11    1      1.69      0.00
   33   11    1      1.09      0.00
  -34   12    1      4.38      0.00
  -32   12    1      1.68      0.00
  -30   12    1     -3.72      0.00
  -28   12    1     -4.04      0.00
  -26   12    1      3.93      0.00
  -24   12    1      8.71      0.00
   22   12    1      2.71      0.00
   24   12    1      3.63      0.00
   26   12    1      3.65      0.00
   28   12    1     -3.22      0.00
   30   12    1     -0.66      0.00
   32   12    1      1.01      0.00
  -31   13    1     -3.98      0.00
  -29   13    1     -2.79      0.00
  -27   13    1      4.89      0.00
  -25   13    1      8.40      0.00
  -23   13    1      3.43      0.00
  -21   13    1      1.74      0.00
   19   13    1     -0.69      0.00
   21   13    1      5.00      0.00
   23   13    1      3.03      0.00
   25   13    1      2.49      0.00
   27   13    1     -2.98      0.00
   29   13    1     -3.93      0.00
  -28   14    1      3.03      0.00
  -26   14    1      6.55      0.00
  -24   14    1      3.09      0.00
  -22   14    1      2.05      0.00
  -20   14    1      2.36      0.00
  -18   14    1     -1.23      0.00
  -16   14    1     -4.21      0.00
   16   14    1     -0.73      0.00
   18   14    1     -2.25      0.00
   20   14    1     -0.92      0.00
   22   14    1      3.20      0.00
   24   14    1      4.05      0.00
   26   14    1     -0.48      0.00
   28   14    1     -2.12      0.00
  -25   15    1      1.20      0.00
  -23   15    1      0.81      0.00
  -21   15    1      1.24      0.00
  -19   15    1      4.77      0.00
  -17   15    1      2.30      0.00
  -15   15    1     -3.02      0.00
  -13   15    1      0.14      0.00
  -11   15    1     -1.51      0.00
   -9   15    1     -5.31      0.00
    9   15    1      5.85      0.00
   11   15    1      7.49      0.00
   13   15    1      7.07      0.00
   15   15    1      2.38      0.00
   17   15    1      0.88      0.00
   19   15    1     -0.28      0.00
   21   15    1     -1.37      0.00
   23   15    1      1.57      0.00
   25   15    1      1.85      0.00
  -38    0    2     -1.82      0.00
  -28    0    2     -2.54      0.00
  -22    0    2     -3.01      0.00
  -14    0    2     34.66      0.00
   36    0    2     -0.82      0.00
   38    0    2      2.22      0.00
  -27    1    2    -10.40      0.00
  -19    1    2      7.95      0.00
   35    1    2     -1.21      0.00
   37    1    2      0.58      0.00
  -38    2    2      2.20      0.00
  -20    2    2     -0.56      0.00
  -18    2    2    -10.17      0.00
  -10    2    2     32.29      0.00
   36    2    2     -0.09      0.00
   38    2    2     -0.87      0.00
  -37    3    2     -0.81      0.00
   35    3    2     -0.52      0.00
   37    3    2     -3.01      0.00
  -38    4    2     -6.14      0.00
   34    4    2     -0.25      0.00
   36    4    2     -4.41      0.00
   38    4    2     -1.29      0.00
  -37    5    2     -3.06      0.00
   -5    5    2      4.01      0.00
   33    5    2     -2.50      0.00
   35    5    2     -3.02      0.00
   37    5    2     -0.04      0.00
  -38    6    2      1.17      0.00
  -36    6    2      0.28      0.00
   -4    6    2     -0.09      0.00
   32    6    2      0.79      0.00
   34    6    2     -3.20      0.00
   36    6    2      2.93      0.00
   38    6    2     -0.12      0.00
  -37    7    2      3.32      0.00
  -35    7    2     -0.79      0.00
   -7    7    2     -9.45      0.00
   -5    7    2    -26.32      0.00
    5    7    2     -9.58      0.00
   31    7    2      7.75      0.00
   33    7    2      3.21      0.00
   35    7    2      2.38      0.00
   37    7    2      1.20      0.00
  -38    8    2     -0.21      0.00
  -36    8    2      0.67      0.00
  -34    8    2     -2.21      0.00
   -2    8    2      9.24      0.00
   30    8    2     -0.27      0.00
   32    8    2      6.08      0.00
   34    8    2      5.32      0.00
   36    8    2     -0.22      0.00
   38    8    2     -0.70      0.00
  -37    9    2     -2.38      0.00
  -35    9    2     -2.28      0.00
  -33    9    2     -5.01      0.00
  -31    9    2     -2.19      0.00
  -11    9    2    -18.48      0.00
   29    9    2     -5.51      0.00
   31    9    2     -1.81      0.00
   33    9    2      3.86      0.00
   35    9    2      1.61      0.00
  -38   10    2     -0.47      0.00
  -36   10    2     -2.75      0.00
  -34   10    2     -1.70      0.00
  -32   10    2      0.68      0.00
  -30   10    2      1.13      0.00
  -10   10    2     10.92      0.00
    2   10    2      3.54      0.00
   26   10    2      3.18      0.00
   28   10    2     -2.09      0.00
   30   10    2     -4.51      0.00
   32   10    2     -1.20      0.00
   34   10    2      2.20      0.00
  -35   11    2      0.94      0.00
  -33   11    2      4.56      0.00
  -31   11    2      2.07      0.00
  -29   11    2     -1.05      0.00
  -27   11    2      3.40      0.00
   25   11    2      3.54      0.00
   27   11    2      5.93      0.00
   29   11    2     -1.52      0.00
   31   11    2     -1.86      0.00
   33   11    2      0.58      0.00
  -34   12    2      4.82      0.00
  -32   12    2      3.07      0.00
  -30   12    2     -2.09      0.00
  -28   12    2      1.94      0.00
  -26   12    2      7.43      0.00
  -24   12    2      0.37      0.00
   22   12    2      1.05      0.00
   24   12    2      0.24      0.00
   26   12    2      3.42      0.00
   28   12    2      2.36      0.00
   30   12    2      0.09      0.00
   32   12    2     -0.79      0.00
  -31   13    2     -2.06      0.00
  -29   13    2     -1.45      0.00
  -27   13    2      3.41      0.00
  -25   13    2      2.66      0.00
  -23   13    2     -3.66      0.00
  -21   13    2     -5.02      0.00
   19   13    2      1.79      0.00
   21   13    2     -3.83      0.00
   23   13    2     -0.90      0.00
   25   13    2     -0.99      0.00
   27   13    2     -0.75      0.00
   29   13    2      2.17      0.00
  -30   14    2     -1.26      0.00
  -28   14    2     -0.25      0.00
  -26   14    2     -2.03      0.00
  -24   14    2     -1.48      0.00
  -22   14    2     -4.90      0.00
  -20   14    2     -6.39      0.00
  -18   14    2      2.77      0.00
   14   14    2      2.50      0.00
   16   14    2      1.44      0.00
   18   14    2      2.93      0.00
   20   14    2     -0.38      0.00
   22   14    2     -1.64      0.00
   24   14    2     -2.16      0.00
   26   14    2     -2.36      0.00
  -27   15    2     -2.23      0.00
  -25   15    2     -3.66      0.00
  -23   15    2     -1.93      0.00
  -21   15    2     -4.59      0.00
  -19   15    2     -1.15      0.00
  -17   15    2      2.93      0.00
  -15   15    2      2.58      0.00
  -13   15    2      4.17      0.00
  -11   15    2     -1.83      0.00
   -9   15    2     -3.85      0.00
    7   15    2     -1.25      0.00
    9   15    2      5.11      0.00
   11   15    2      6.67      0.00
   13   15    2      4.11      0.00
   15   15    2      0.23      0.00
   17   15    2     -0.89      0.00
   19   15    2     -0.92      0.00
   21   15    2      1.77      0.00
   23   15    2     -0.05      0.00
   35    1    3      1.09      0.00
   37    1    3      0.61      0.00
  -38    2    3     -3.45      0.00
  -16    2    3     17.23      0.00
   34    2    3      3.43      0.00
   36    2    3      0.77      0.00
   38    2    3     -0.09      0.00
   33    3    3      2.50      0.00
   35    3    3      2.62      0.00
   37    3    3      0.25      0.00
  -38    4    3     -2.52      0.00
   34    4    3      0.39      0.00
   36    4    3      2.72      0.00
   38    4    3      2.10      0.00
  -37    5    3      4.65      0.00
   33    5    3     -0.82      0.00
   35    5    3      0.30      0.00
   37    5    3      5.23      0.00
  -38    6    3      0.83      0.00
  -36    6    3      7.28      0.00
   32    6    3      1.64      0.00
   34    6    3      0.71      0.00
   36    6    3      2.74      0.00
   38    6    3      0.73      0.00
  -37    7    3     -0.31      0.00
  -35    7    3      6.11      0.00
   -7    7    3     12.71      0.00
   31    7    3     -2.06      0.00
   33    7    3      1.54      0.00
   35    7    3      2.31      0.00
   37    7    3     -2.45      0.00
  -38    8    3     -0.14      0.00
  -36    8    3     -0.29      0.00
  -34    8    3      3.96      0.00
   30    8    3      0.21      0.00
   32    8    3     -0.17      0.00
   34    8    3      1.14      0.00
   36    8    3     -2.88      0.00
  -37    9    3      0.25      0.00
  -35    9    3      0.33      0.00
  -33    9    3     -2.73      0.00
  -31    9    3     -3.20      0.00
   27    9    3     -4.99      0.00
   29    9    3     -0.23      0.00
   31    9    3      0.19      0.00
   33    9    3      0.02      0.00
   35    9    3     -2.10      0.00
  -38   10    3      0.74      0.00
  -36   10    3      0.68      0.00
  -34   10    3     -1.49      0.00
  -32   10    3      0.18      0.00
  -30   10    3     -1.61      0.00
   26   10    3     -7.74      0.00
   28   10    3     -2.12      0.00
   30   10    3     -2.31      0.00
   32   10    3     -0.83      0.00
   34   10    3     -0.58      0.00
  -37   11    3      0.98      0.00
  -35   11    3     -0.11      0.00
  -33   11    3      3.12      0.00
  -31   11    3      3.64      0.00
  -29   11    3     -0.68      0.00
  -27   11    3      2.74      0.00
   23   11    3      4.40      0.00
   25   11    3     -1.61      0.00
   27   11    3     -2.88      0.00
   29   11    3     -2.14      0.00
   31   11    3     -1.34      0.00
  -34   12    3      2.19      0.00
  -32   12    3      4.36      0.00
  -30   12    3      3.33      0.00
  -28   12    3     -0.28      0.00
  -26   12    3     -3.27      0.00
   20   12    3      2.63      0.00
   22   12    3      2.80      0.00
   24   12    3      5.36      0.00
   26   12    3      1.52      0.00
   28   12    3     -1.01      0.00
   30   12    3      0.72      0.00
  -33   13    3      1.10      0.00
  -31   13    3      1.26      0.00
  -29   13    3      1.56      0.00
  -27   13    3     -5.77      0.00
  -25   13    3     -6.97      0.00
  -23   13    3      5.81      0.00
  -21   13    3      5.47      0.00
   17   13    3     -1.02      0.00
   19   13    3      1.69      0.00
   21   13    3      3.63      0.00
   23   13    3      4.26      0.00
   25   13    3      2.75      0.00
   27   13    3      1.52      0.00
  -30   14    3     -0.33      0.00
  -28   14    3     -1.94      0.00
  -26   14    3     -6.75      0.00
  -24   14    3     -3.21      0.00
  -22   14    3      3.43      0.00
  -20   14    3      3.07      0.00
  -18   14    3      2.85      0.00
  -16   14    3      0.43      0.00
   12   14    3     -3.67      0.00
   14   14    3     -0.93      0.00
   16   14    3      1.17      0.00
   18   14    3     -0.12      0.00
   20   14    3      1.18      0.00
   22   14    3      4.18      0.00
   24   14    3      0.51      0.00
   26   14    3      0.45      0.00
  -27   15    3     -0.89      0.00
  -25   15    3     -1.45      0.00
  -23   15    3     -3.10      0.00
  -21   15    3      1.33      0.00
  -19   15    3      3.09      0.00
  -17   15    3     -0.43      0.00
  -15   15    3     -0.04      0.00
  -13   15    3      0.84      0.00
  -11   15    3      1.34      0.00
   -9   15    3      0.77      0.00
    3   15    3     -1.78      0.00
    5   15    3     -3.68      0.00
    7   15    3      1.40      0.00
    9   15    3      1.67      0.00
   11   15    3     -4.17      0.00
   13   15    3     -3.98      0.00
   15   15    3     -0.72      0.00
   17   15    3      1.25      0.00
   19   15    3      2.03      0.00
   21   15    3      2.50      0.00
   23   15    3      0.71      0.00
    2    0    4    -27.55      0.00
   34    0    4      0.30      0.00
   36    0    4     -1.85      0.00
   38    0    4     -0.83      0.00
   33    1    4     -1.20      0.00
   35    1    4     -2.43      0.00
   37    1    4     -1.67      0.00
  -38    2    4      3.00      0.00
   34    2    4     -6.51      0.00
   36    2    4     -3.68      0.00
   38    2    4     -1.67      0.00
   33    3    4     -7.54      0.00
   35    3    4     -8.29      0.00
   37    3    4     -3.07      0.00
  -38    4    4     -2.41      0.00
   32    4    4      1.98      0.00
   34    4    4     -7.20      0.00
   36    4    4     -5.03      0.00
   38    4    4      0.42      0.00
  -37    5    4     -2.80      0.00
   31    5    4      0.78      0.00
   33    5    4     -0.95      0.00
   35    5    4     -1.19      0.00
   37    5    4      0.41      0.00
  -38    6    4      0.12      0.00
  -36    6    4     -6.14      0.00
   30    6    4     -1.24      0.00
   32    6    4     -4.10      0.00
   34    6    4      2.23      0.00
   36    6    4      2.35      0.00
  -37    7    4     -3.62      0.00
  -35    7    4     -6.65      0.00
   -7    7    4    -29.78      0.00
   29    7    4     -0.13      0.00
   31    7    4     -5.53      0.00
   33    7    4     -0.42      0.00
   35    7    4      1.71      0.00
  -38    8    4     -2.31      0.00
  -36    8    4     -2.13      0.00
  -34    8    4     -1.73      0.00
   -6    8    4      8.27      0.00
   28    8    4      5.74      0.00
   30    8    4     -2.76      0.00
   32    8    4     -2.65      0.00
   34    8    4     -0.04      0.00
  -37    9    4      0.25      0.00
  -35    9    4      0.91      0.00
  -33    9    4      2.21      0.00
   27    9    4      9.44      0.00
   29    9    4      6.78      0.00
   31    9    4     -1.37      0.00
   33    9    4     -2.20      0.00
  -38   10    4      1.52      0.00
  -36   10    4      1.65      0.00
  -34   10    4     -1.10      0.00
  -32   10    4      5.92      0.00
  -30   10    4      7.98      0.00
   24   10    4     -1.97      0.00
   26   10    4      5.71      0.00
   28   10    4      7.62      0.00
   30   10    4      3.92      0.00
   32   10    4     -1.19      0.00
  -37   11    4      1.75      0.00
  -35   11    4     -2.35      0.00
  -33   11    4     -1.65      0.00
  -31   11    4      2.66      0.00
  -29   11    4      6.36      0.00
  -27   11    4      0.70      0.00
   23   11    4     -7.12      0.00
   25   11    4      0.01      0.00
   27   11    4      2.48      0.00
   29   11    4      1.28      0.00
   31   11    4      1.66      0.00
  -34   12    4     -2.87      0.00
  -32   12    4     -2.28      0.00
  -30   12    4      1.17      0.00
  -28   12    4      2.56      0.00
  -26   12    4     -8.10      0.00
   20   12    4      1.42      0.00
   22   12    4     -0.29      0.00
   24   12    4     -2.29      0.00
   26   12    4     -1.43      0.00
   28   12    4     -1.34      0.00
  -33   13    4     -1.21      0.00
  -31   13    4     -0.03      0.00
  -29   13    4     -0.89      0.00
  -27   13    4     -4.93      0.00
  -25   13    4     -8.91      0.00
  -23   13    4    -12.91      0.00
  -21   13    4    -13.43      0.00
   15   13    4     -6.21      0.00
   17   13    4     -3.11      0.00
   19   13    4      0.93      0.00
   21   13    4      2.15      0.00
   23   13    4      1.85      0.00
   25   13    4     -1.91      0.00
   27   13    4     -1.91      0.00
  -30   14    4      0.61      0.00
  -28   14    4     -4.16      0.00
  -26   14    4     -2.64      0.00
  -24   14    4     -5.03      0.00
  -22   14    4    -14.25      0.00
  -20   14    4    -12.81      0.00
  -18   14    4     -7.12      0.00
  -16   14    4     -2.04      0.00
   10   14    4     -4.99      0.00
   12   14    4     -6.98      0.00
   14   14    4     -6.63      0.00
   16   14    4     -6.56      0.00
   18   14    4     -1.92      0.00
   20   14    4      1.51      0.00
   22   14    4      0.73      0.00
   24   14    4      0.06      0.00
  -27   15    4     -0.50      0.00
  -25   15    4      1.51      0.00
  -23   15    4     -4.11      0.00
  -21   15    4     -7.18      0.00
  -19   15    4     -6.72      0.00
  -17   15    4     -5.64      0.00
  -15   15    4     -0.73      0.00
  -13   15    4     -2.99      0.00
  -11   15    4     -0.72      0.00
   -9   15    4     -0.06      0.00
   -7   15    4     -8.86      0.00
   -5   15    4     -4.57      0.00
   -3   15    4      1.45      0.00
   -1   15    4      7.83      0.00
    1   15    4     11.62      0.00
    3   15    4      1.92      0.00
    5   15    4     -1.41      0.00
    7   15    4     -3.55      0.00
    9   15    4     -7.64      0.00
   11   15    4     -6.52      0.00
   13   15    4     -5.42      0.00
   15   15    4     -4.22      0.00
   17   15    4     -3.87      0.00
   19   15    4     -1.01      0.00
   21   15    4     -0.29      0.00
   31    1    5      6.98      0.00
   33    1    5      1.57      0.00
   35    1    5     -1.77      0.00
   37    1    5     -2.70      0.00
   32    2    5      7.29      0.00
   34    2    5      0.18      0.00
   36    2    5     -2.90      0.00
   38    2    5     -2.75      0.00
   31    3    5      2.85      0.00
   33    3    5      4.79      0.00
   35    3    5     -0.03      0.00
   37    3    5     -1.74      0.00
  -38    4    5      0.79      0.00
   30    4    5     -0.13      0.00
   32    4    5      0.17      0.00
   34    4    5      3.21      0.00
   36    4    5      0.96      0.00
  -37    5    5      2.33      0.00
   31    5    5     -0.78      0.00
   33    5    5     -0.30      0.00
   35    5    5      3.26      0.00
   37    5    5      1.74      0.00
  -38    6    5      1.74      0.00
  -36    6    5      1.14      0.00
   30    6    5      2.11      0.00
   32    6    5     -1.25      0.00
   34    6    5      2.31      0.00
   36    6    5      1.26      0.00
  -37    7    5     -1.87      0.00
  -35    7    5     -2.57      0.00
   27    7    5      2.41      0.00
   29    7    5      3.20      0.00
   31    7    5     -1.03      0.00
   33    7    5      0.89      0.00
   35    7    5      0.42      0.00
  -38    8    5     -2.04      0.00
  -36    8    5     -1.03      0.00
  -34    8    5     -3.91      0.00
   26    8    5     -3.72      0.00
   28    8    5     -2.02      0.00
   30    8    5      0.89      0.00
   32    8    5      0.24      0.00
   34    8    5     -1.70      0.00
  -37    9    5      2.90      0.00
  -35    9    5      1.37      0.00
  -33    9    5     -2.30      0.00
   25    9    5     -0.53      0.00
   27    9    5     -3.47      0.00
   29    9    5     -3.79      0.00
   31    9    5      1.49      0.00
   33    9    5     -1.24      0.00
  -38   10    5      2.17      0.00
  -36   10    5      4.66      0.00
  -34   10    5      1.09      0.00
  -32   10    5     -2.68      0.00
  -30   10    5     -5.69      0.00
   22   10    5      4.09      0.00
   24   10    5      1.07      0.00
   26   10    5      3.17      0.00
   28   10    5     -2.78      0.00
   30   10    5     -2.78      0.00
  -37   11    5      2.55      0.00
  -35   11    5      0.83      0.00
  -33   11    5     -2.36      0.00
  -31   11    5     -5.21      0.00
  -29   11    5     -0.53      0.00
  -27   11    5      5.02      0.00
    1   11    5      7.02      0.00
   21   11    5      6.73      0.00
   23   11    5      4.00      0.00
   25   11    5      3.34      0.00
   27   11    5      1.11      0.00
   29   11    5     -1.69      0.00
  -34   12    5     -2.63      0.00
  -32   12    5     -3.93      0.00
  -30   12    5      1.86      0.00
  -28   12    5      4.42      0.00
  -26   12    5      4.80      0.00
  -24   12    5      6.30      0.00
   18   12    5      3.37      0.00
   20   12    5      5.52      0.00
   22   12    5      1.96      0.00
   24   12    5      2.14      0.00
   26   12    5     -0.83      0.00
   28   12    5     -0.32      0.00
  -33   13    5     -2.31      0.00
  -31   13    5      1.26      0.00
  -29   13    5      4.41      0.00
  -27   13    5      1.57      0.00
  -25   13    5      3.61      0.00
  -23   13    5      3.72      0.00
  -21   13    5      1.27      0.00
   13   13    5      2.70      0.00
   15   13    5     -1.16      0.00
   17   13    5      0.49      0.00
   19   13    5      4.19      0.00
   21   13    5      1.94      0.00
   23   13    5     -0.49      0.00
   25   13    5     -1.08      0.00
  -30   14    5      1.37      0.00
  -28   14    5      0.36      0.00
  -26   14    5      1.26      0.00
  -24   14    5      2.07      0.00
  -22   14    5      2.16      0.00
  -20   14    5      1.95      0.00
  -18   14    5     -3.40      0.00
  -16   14    5     -5.33      0.00
    8   14    5      4.87      0.00
   10   14    5      5.28      0.00
   12   14    5      3.89      0.00
   14   14    5     -0.54      0.00
   16   14    5      1.60      0.00
   18   14    5      2.19      0.00
   20   14    5      1.62      0.00
   22   14    5      0.25      0.00
  -27   15    5      0.57      0.00
  -25   15    5      0.58      0.00
  -23   15    5      0.59      0.00
  -21   15    5      2.88      0.00
  -19   15    5      1.41      0.00
  -17   15    5     -3.06      0.00
  -15   15    5     -2.41      0.00
  -13   15    5      6.88      0.00
  -11   15    5      7.24      0.00
   -9   15    5      0.92      0.00
   -7   15    5      3.14      0.00
   -5   15    5      2.08      0.00
   -3   15    5     -2.35      0.00
   -1   15    5      0.47      0.00
    1   15    5      1.02      0.00
    3   15    5     -3.34      0.00
    5   15    5      0.35      0.00
    7   15    5      3.05      0.00
    9   15    5      1.12      0.00
   11   15    5      4.25      0.00
   13   15    5      1.53      0.00
   15   15    5     -1.13      0.00
   17   15    5      1.68      0.00
   19   15    5      0.87      0.00
    4    0    6     46.21      0.00
    8    0    6      7.34      0.00
   14    0    6      4.14      0.00
   30    0    6      0.80      0.00
   32    0    6      6.72      0.00
   34    0    6      4.21      0.00
   36    0    6      0.48      0.00
   31    1    6      3.03      0.00
   33    1    6      4.07      0.00
   35    1    6      0.68      0.00
   37    1    6     -1.59      0.00
   30    2    6     -0.28      0.00
   32    2    6     -0.45      0.00
   34    2    6      0.41      0.00
   36    2    6     -2.58      0.00
   29    3    6      6.11      0.00
   31    3    6     -1.12      0.00
   33    3    6     -1.19      0.00
   35    3    6     -0.69      0.00
   37    3    6     -1.99      0.00
  -38    4    6     -1.26      0.00
   30    4    6      4.68      0.00
   32    4    6      0.22      0.00
   34    4    6     -0.06      0.00
   36    4    6      0.72      0.00
  -37    5    6      0.25      0.00
   29    5    6      4.34      0.00
   31    5    6      2.38      0.00
   33    5    6      0.45      0.00
   35    5    6      0.93      0.00
  -38    6    6      2.41      0.00
  -36    6    6      3.16      0.00
   -2    6    6    -23.19      0.00
   28    6    6      2.23      0.00
   30    6    6      2.00      0.00
   32    6    6      0.45      0.00
   34    6    6     -0.56      0.00
  -37    7    6      3.24      0.00
  -35    7    6      0.96      0.00
   27    7    6     -0.39      0.00
   29    7    6     -1.89      0.00
   31    7    6      2.08      0.00
   33    7    6     -1.15      0.00
  -38    8    6     -0.14      0.00
  -36    8    6      0.93      0.00
  -34    8    6     -0.87      0.00
   24    8    6     -4.33      0.00
   26    8    6      3.36      0.00
   28    8    6     -2.11      0.00
   30    8    6     -0.69      0.00
   32    8    6      1.15      0.00
  -37    9    6     -1.46      0.00
  -35    9    6     -0.24      0.00
  -33    9    6      1.52      0.00
  -31    9    6      4.25      0.00
   -1    9    6     16.83      0.00
   23    9    6     -0.53      0.00
   25    9    6      1.22      0.00
   27    9    6      2.99      0.00
   29    9    6      0.57      0.00
   31    9    6     -0.37      0.00
  -38   10    6     -1.44      0.00
  -36   10    6     -1.04      0.00
  -34   10    6      1.88      0.00
  -32   10    6      0.41      0.00
  -30   10    6      2.69      0.00
    0   10    6      9.92      0.00
   20   10    6      0.81      0.00
   22   10    6      2.47      0.00
   24   10    6      3.59      0.00
   26   10    6      1.28      0.00
   28   10    6      2.01      0.00
   30   10    6      0.92      0.00
  -37   11    6     -1.01      0.00
  -35   11    6      0.85      0.00
  -33   11    6     -0.03      0.00
  -31   11    6     -2.06      0.00
  -29   11    6      5.92      0.00
  -27   11    6      6.81      0.00
   19   11    6      1.18      0.00
   21   11    6     -1.75      0.00
   23   11    6      1.38      0.00
   25   11    6      2.07      0.00
   27   11    6     -1.68      0.00
  -34   12    6     -0.25      0.00
  -32   12    6     -1.33      0.00
  -30   12    6      1.96      0.00
  -28   12    6      4.76      0.00
  -26   12    6     -0.40      0.00
  -24   12    6     -8.21      0.00
   16   12    6     -0.04      0.00
   18   12    6     -0.79      0.00
   20   12    6     -5.40      0.00
   22   12    6     -4.21      0.00
   24   12    6     -0.83      0.00
   26   12    6     -1.35      0.00
  -33   13    6     -0.75      0.00
  -31   13    6      2.11      0.00
  -29   13    6      1.75      0.00
  -27   13    6     -0.09      0.00
  -25   13    6     -3.75      0.00
  -23   13    6     -2.46      0.00
  -21   13    6      6.01      0.00
  -19   13    6      7.46      0.00
   11   13    6     -3.59      0.00
   13   13    6    -10.38      0.00
   15   13    6     -8.52      0.00
   17   13    6     -0.87      0.00
   19   13    6     -5.01      0.00
   21   13    6     -5.72      0.00
   23   13    6     -2.48      0.00
  -30   14    6      0.94      0.00
  -28   14    6     -1.02      0.00
  -26   14    6     -0.59      0.00
  -24   14    6     -0.32      0.00
  -22   14    6      5.17      0.00
  -20   14    6     10.30      0.00
  -18   14    6      9.13      0.00
  -16   14    6      0.20      0.00
  -14   14    6     -1.06      0.00
    4   14    6     -1.08      0.00
    6   14    6      1.17      0.00
    8   14    6      1.51      0.00
   10   14    6     -4.67      0.00
   12   14    6     -7.01      0.00
   14   14    6     -8.45      0.00
   16   14    6     -4.85      0.00
   18   14    6     -1.16      0.00
   20   14    6     -2.27      0.00
  -27   15    6     -0.32      0.00
  -25   15    6      0.03      0.00
  -23   15    6      2.06      0.00
  -21   15    6      5.33      0.00
  -19   15    6      6.22      0.00
  -17   15    6      3.78      0.00
  -15   15    6      0.53      0.00
  -13   15    6      4.42      0.00
  -11   15    6     10.27      0.00
   -9   15    6      8.47      0.00
   -7   15    6      2.83      0.00
   -5   15    6      2.34      0.00
   -3   15    6      1.69      0.00
   -1   15    6     -7.06      0.00
    1   15    6     -6.23      0.00
    3   15    6      3.20      0.00
    5   15    6      3.04      0.00
    7   15    6      2.11      0.00
    9   15    6      0.58      0.00
   11   15    6     -3.88      0.00
   13   15    6     -2.94      0.00
   15   15    6     -1.55      0.00
   17   15    6     -1.17      0.00
   29    1    7      2.20      0.00
   31    1    7      1.07      0.00
   33    1    7      1.31      0.00
   35    1    7      0.30      0.00
  -38    2    7      0.88      0.00
   28    2    7     -1.98      0.00
   30    2    7      3.43      0.00
   32    2    7      1.21      0.00
   34    2    7      1.37      0.00
   29    3    7     -0.92      0.00
   31    3    7      2.38      0.00
   33    3    7      1.62      0.00
   35    3    7      0.92      0.00
  -38    4    7     -2.50      0.00
   28    4    7     -3.34      0.00
   30    4    7     -1.55      0.00
   32    4    7      3.05      0.00
   34    4    7      0.97      0.00
  -37    5    7      3.23      0.00
   27    5    7     -3.60      0.00
   29    5    7     -5.07      0.00
   31    5    7      1.61      0.00
   33    5    7      2.21      0.00
  -38    6    7      3.17      0.00
  -36    6    7      5.25      0.00
   26    6    7      1.98      0.00
   28    6    7     -5.45      0.00
   30    6    7     -1.62      0.00
   32    6    7      3.01      0.00
  -37    7    7      2.45      0.00
  -35    7    7      1.06      0.00
   25    7    7      3.24      0.00
   27    7    7      2.16      0.00
   29    7    7     -1.30      0.00
   31    7    7      1.00      0.00
  -38    8    7     -0.21      0.00
  -36    8    7     -1.03      0.00
  -34    8    7      1.90      0.00
   24    8    7      3.12      0.00
   26    8    7      1.36      0.00
   28    8    7      3.45      0.00
   30    8    7      1.25      0.00
  -37    9    7     -2.87      0.00
  -35    9    7      0.47      0.00
  -33    9    7      5.15      0.00
  -31    9    7     -1.62      0.00
   21    9    7     -5.54      0.00
   23    9    7      1.09      0.00
   25    9    7      0.34      0.00
   27    9    7      0.16      0.00
   29    9    7      2.44      0.00
  -38   10    7      0.34      0.00
  -36   10    7     -1.32      0.00
  -34   10    7      3.19      0.00
  -32   10    7      2.52      0.00
  -30   10    7     -3.27      0.00
    2   10    7      0.94      0.00
   18   10    7      4.10      0.00
   20   10    7     -1.02      0.00
   22   10    7     -2.79      0.00
   24   10    7     -1.88      0.00
   26   10    7     -1.23      0.00
   28   10    7     -0.40      0.00
  -37   11    7      1.50      0.00
  -35   11    7      0.41      0.00
  -33   11    7      0.20      0.00
  -31   11    7     -0.97      0.00
  -29   11    7     -3.39      0.00
  -27   11    7     -0.97      0.00
   17   11    7      0.92      0.00
   19   11    7      2.03      0.00
   21   11    7      0.80      0.00
   23   11    7     -1.42      0.00
   25   11    7     -2.51      0.00
   27   11    7     -0.54      0.00
  -34   12    7     -1.40      0.00
  -32   12    7     -1.46      0.00
  -30   12    7     -2.23      0.00
  -28   12    7     -5.13      0.00
  -26   12    7     -4.69      0.00
  -24   12    7     -7.13      0.00
   12   12    7      3.93      0.00
   14   12    7     -6.87      0.00
   16   12    7     -5.03      0.00
   18   12    7      1.33      0.00
   20   12    7      2.22      0.00
   22   12    7      2.67      0.00
   24   12    7     -0.76      0.00
  -31   13    7     -0.05      0.00
  -29   13    7     -3.35      0.00
  -27   13    7     -4.83      0.00
  -25   13    7     -3.31      0.00
  -23   13    7     -2.34      0.00
  -21   13    7     -3.74      0.00
  -19   13    7     -1.81      0.00
    9   13    7     12.79      0.00
   11   13    7      3.94      0.00
   13   13    7      2.23      0.00
   15   13    7      0.20      0.00
   17   13    7     -1.56      0.00
   19   13    7      0.92      0.00
   21   13    7      2.41      0.00
  -28   14    7     -2.39      0.00
  -26   14    7     -1.66      0.00
  -24   14    7      1.13      0.00
  -22   14    7     -0.66      0.00
  -20   14    7     -4.00      0.00
  -18   14    7     -0.81      0.00
  -16   14    7      0.02      0.00
  -14   14    7     -3.39      0.00
  -12   14    7     -8.89      0.00
  -10   14    7     -6.56      0.00
   -8   14    7     -1.81      0.00
   -4   14    7      3.51      0.00
   -2   14    7     12.42      0.00
    0   14    7      1.86      0.00
    2   14    7      3.31      0.00
    4   14    7      7.00      0.00
    6   14    7      5.74      0.00
    8   14    7      9.77      0.00
   10   14    7      3.78      0.00
   12   14    7     -0.46      0.00
   14   14    7      5.57      0.00
   16   14    7      3.82      0.00
   18   14    7     -0.51      0.00
  -25   15    7      0.75      0.00
  -23   15    7      2.45      0.00
  -21   15    7     -0.91      0.00
  -19   15    7     -3.39      0.00
  -17   15    7     -1.48      0.00
  -15   15    7      1.46      0.00
  -13   15    7     -1.37      0.00
  -11   15    7     -6.57      0.00
   -9   15    7     -5.24      0.00
   -7   15    7     -4.73      0.00
   -5   15    7     -3.27      0.00
   -3   15    7      2.69      0.00
   -1   15    7      5.09      0.00
    1   15    7      2.10      0.00
    3   15    7      1.99      0.00
    5   15    7      5.52      0.00
    7   15    7      4.23      0.00
    9   15    7      1.05      0.00
   11   15    7     -1.04      0.00
   13   15    7      1.15      0.00
   15   15    7      5.23      0.00
  -38    0    8      4.06      0.00
   28    0    8     -6.98      0.00
   30    0    8     -1.70      0.00
   32    0    8      0.51      0.00
   34    0    8      2.46      0.00
   27    1    8     -4.55      0.00
   29    1    8     -2.87      0.00
   31    1    8      0.69      0.00
   33    1    8      0.91      0.00
  -38    2    8     -1.25      0.00
   26    2    8      4.19      0.00
   28    2    8      0.40      0.00
   30    2    8     -0.08      0.00
   32    2    8      1.07      0.00
   34    2    8     -0.45      0.00
   27    3    8      5.30      0.00
   29    3    8     -0.12      0.00
   31    3    8     -1.30      0.00
   33    3    8      0.26      0.00
  -38    4    8     -2.76      0.00
   26    4    8      2.11      0.00
   28    4    8     -0.40      0.00
   30    4    8     -3.10      0.00
   32    4    8     -0.99      0.00
  -37    5    8      3.98      0.00
   25    5    8     -3.86      0.00
   27    5    8     -1.25      0.00
   29    5    8     -3.43      0.00
   31    5    8     -1.03      0.00
  -38    6    8      1.94      0.00
  -36    6    8     -1.32      0.00
   24    6    8     -5.95      0.00
   26    6    8     -4.71      0.00
   28    6    8     -0.95      0.00
   30    6    8      0.57      0.00
   32    6    8     -0.15      0.00
  -37    7    8     -5.09      0.00
  -35    7    8     -6.08      0.00
   23    7    8      4.18      0.00
   25    7    8     -2.11      0.00
   27    7    8     -2.93      0.00
   29    7    8      4.05      0.00
   31    7    8      0.39      0.00
  -38    8    8      0.05      0.00
  -36    8    8     -6.27      0.00
  -34    8    8     -1.54      0.00
  -32    8    8      3.02      0.00
   -4    8    8     11.83      0.00
   22    8    8      6.68      0.00
   24    8    8      6.19      0.00
   26    8    8     -0.51      0.00
   28    8    8      2.46      0.00
  -37    9    8      1.71      0.00
  -35    9    8     -1.49      0.00
  -33    9    8     -1.53      0.00
  -31    9    8     -3.66      0.00
   19    9    8     -0.38      0.00
   21    9    8      5.08      0.00
   23    9    8      5.52      0.00
   25    9    8      2.30      0.00
   27    9    8      2.37      0.00
  -38   10    8      2.21      0.00
  -36   10    8      3.90      0.00
  -34   10    8     -1.41      0.00
  -32   10    8     -3.83      0.00
  -30   10    8     -4.58      0.00
  -28   10    8     -6.19      0.00
   16   10    8     -3.03      0.00
   18   10    8     -5.83      0.00
   20   10    8     -1.50      0.00
   22   10    8      2.25      0.00
   24   10    8      0.38      0.00
   26   10    8      0.94      0.00
  -35   11    8      1.31      0.00
  -33   11    8     -2.01      0.00
  -31   11    8     -0.21      0.00
  -29   11    8     -1.92      0.00
  -27   11    8     -3.20      0.00
  -25   11    8      2.26      0.00
   13   11    8      2.61      0.00
   15   11    8      0.94      0.00
   17   11    8     -4.67      0.00
   19   11    8     -3.44      0.00
   21   11    8     -0.98      0.00
   23   11    8     -0.56      0.00
   25   11    8     -1.08      0.00
  -34   12    8     -0.65      0.00
  -32   12    8      0.91      0.00
  -30   12    8      2.56      0.00
  -28   12    8      0.48      0.00
  -26   12    8     -0.54      0.00
  -24   12    8      5.31      0.00
  -22   12    8      5.43      0.00
   10   12    8      4.19      0.00
   12   12    8     -4.60      0.00
   14   12    8      3.56      0.00
   16   12    8      2.30      0.00
   18   12    8     -0.85      0.00
   20   12    8      0.81      0.00
   22   12    8     -0.25      0.00
  -31   13    8      1.09      0.00
  -29   13    8      2.33      0.00
  -27   13    8      0.48      0.00
  -25   13    8     -0.11      0.00
  -23   13    8      3.15      0.00
  -21   13    8     -3.00      0.00
  -19   13    8     -3.76      0.00
  -17   13    8      2.69      0.00
  -15   13    8      3.41      0.00
    3   13    8     -1.66      0.00
    5   13    8     -5.09      0.00
    7   13    8      0.80      0.00
    9   13    8      6.26      0.00
   11   13    8     -3.08      0.00
   13   13    8     -3.45      0.00
   15   13    8      3.91      0.00
   17   13    8      2.93      0.00
   19   13    8      1.64      0.00
  -28   14    8      0.87      0.00
  -26   14    8     -1.32      0.00
  -24   14    8     -2.47      0.00
  -22   14    8     -3.88      0.00
  -20   14    8     -3.87      0.00
  -18   14    8      0.10      0.00
  -16   14    8      1.35      0.00
  -14   14    8      0.93      0.00
  -12   14    8     -1.73      0.00
  -10   14    8     -8.18      0.00
   -8   14    8     -9.14      0.00
   -6   14    8      1.39      0.00
   -4   14    8      4.93      0.00
   -2   14    8      2.24      0.00
    0   14    8      7.37      0.00
    2   14    8      2.11      0.00
    4   14    8     -3.63      0.00
    6   14    8      0.46      0.00
    8   14    8     -1.38      0.00
   10   14    8     -2.56      0.00
   12   14    8     -2.53      0.00
   14   14    8     -1.21      0.00
   16   14    8      2.17      0.00
  -25   15    8     -1.76      0.00
  -23   15    8     -2.98      0.00
  -21   15    8     -3.14      0.00
  -19   15    8     -1.32      0.00
  -17   15    8     -0.05      0.00
  -15   15    8     -0.59      0.00
  -13   15    8     -3.14      0.00
  -11   15    8     -2.81      0.00
   -9   15    8     -7.80      0.00
   -7   15    8     -5.42      0.00
   -5   15    8      6.46      0.00
   -3   15    8      1.91      0.00
   -1   15    8      2.51      0.00
    1   15    8      6.81      0.00
    3   15    8     -0.21      0.00
    5   15    8      0.25      0.00
    7   15    8     -2.24      0.00
    9   15    8     -6.19      0.00
   11   15    8     -2.23      0.00
   13   15    8     -0.39      0.00
   25    1    9      0.66      0.00
   27    1    9      3.72      0.00
   29    1    9      0.80      0.00
   31    1    9      0.34      0.00
  -38    2    9     -5.39      0.00
   24    2    9      0.56      0.00
   26    2    9      1.73      0.00
   28    2    9      3.17      0.00
   30    2    9     -0.65      0.00
   32    2    9     -0.57      0.00
  -37    3    9    -14.13      0.00
   25    3    9     -0.74      0.00
   27    3    9      0.77      0.00
   29    3    9     -1.49      0.00
   31    3    9     -2.15      0.00
  -38    4    9    -12.00      0.00
  -36    4    9    -13.18      0.00
   24    4    9     -1.00      0.00
   26    4    9     -0.90      0.00
   28    4    9     -3.81      0.00
   30    4    9     -3.24      0.00
  -37    5    9    -10.51      0.00
   23    5    9      4.56      0.00
   25    5    9      1.60      0.00
   27    5    9     -4.15      0.00
   29    5    9     -2.32      0.00
   31    5    9     -0.95      0.00
  -38    6    9     -2.44      0.00
  -36    6    9    -14.84      0.00
  -34    6    9    -13.48      0.00
   22    6    9      0.65      0.00
   24    6    9      8.33      0.00
   26    6    9     -0.43      0.00
   28    6    9     -0.24      0.00
   30    6    9      1.27      0.00
  -37    7    9     -5.70      0.00
  -35    7    9     -8.70      0.00
  -33    7    9     -2.34      0.00
   21    7    9     -5.51      0.00
   23    7    9      3.41      0.00
   25    7    9      2.77      0.00
   27    7    9      2.53      0.00
   29    7    9      3.06      0.00
  -38    8    9     -2.88      0.00
  -36    8    9      0.78      0.00
  -34    8    9      0.60      0.00
  -32    8    9     -1.07      0.00
   18    8    9     -6.95      0.00
   20    8    9     -5.19      0.00
   22    8    9      0.29      0.00
   24    8    9     -2.44      0.00
   26    8    9      1.91      0.00
   28    8    9      3.34      0.00
  -37    9    9      1.69      0.00
  -35    9    9      5.41      0.00
  -33    9    9     -0.69      0.00
  -31    9    9     -1.00      0.00
  -29    9    9     -1.51      0.00
   17    9    9     -1.22      0.00
   19    9    9     -2.38      0.00
   21    9    9      2.14      0.00
   23    9    9     -2.84      0.00
   25    9    9     -2.14      0.00
  -38   10    9      0.66      0.00
  -36   10    9      3.56      0.00
  -34   10    9      0.34      0.00
  -32   10    9     -3.27      0.00
  -30   10    9      1.65      0.00
  -28   10    9      0.76      0.00
   14   10    9     10.46      0.00
   16   10    9      4.01      0.00
   18   10    9     -0.08      0.00
   20   10    9      3.39      0.00
   22   10    9     -0.10      0.00
   24   10    9     -1.54      0.00
  -35   11    9     -0.27      0.00
  -33   11    9     -2.96      0.00
  -31   11    9     -2.64      0.00
  -29   11    9      2.67      0.00
  -27   11    9      2.51      0.00
  -25   11    9     -0.31      0.00
  -23   11    9      2.86      0.00
   11   11    9      4.98      0.00
   13   11    9      3.58      0.00
   15   11    9      4.64      0.00
   17   11    9     -0.09      0.00
   19   11    9      0.58      0.00
   21   11    9      0.65      0.00
   23   11    9     -0.22      0.00
  -32   12    9     -2.44      0.00
  -30   12    9     -2.16      0.00
  -28   12    9      3.12      0.00
  -26   12    9      2.76      0.00
  -24   12    9      1.78      0.00
  -22   12    9     -0.20      0.00
  -20   12    9     -6.43      0.00
    6   12    9     -2.20      0.00
    8   12    9     -1.06      0.00
   10   12    9      2.99      0.00
   12   12    9      1.59      0.00
   14   12    9     -0.30      0.00
   16   12    9     -0.33      0.00
   18   12    9     -0.93      0.00
   20   12    9     -0.70      0.00
  -31   13    9     -2.26      0.00
  -29   13    9     -0.10      0.00
  -27   13    9      2.90      0.00
  -25   13    9      3.60      0.00
  -23   13    9      0.36      0.00
  -21   13    9     -4.08      0.00
  -19   13    9     -2.17      0.00
  -17   13    9      0.54      0.00
  -15   13    9     -1.42      0.00
  -13   13    9     -1.07      0.00
  -11   13    9      4.69      0.00
   -9   13    9     -3.24      0.00
   -3   13    9    -11.36      0.00
   -1   13    9    -14.50      0.00
    1   13    9     -3.50      0.00
    3   13    9     -3.60      0.00
    5   13    9      3.14      0.00
    7   13    9      3.85      0.00
    9   13    9     -4.73      0.00
   11   13    9     -0.01      0.00
   13   13    9      0.86      0.00
   15   13    9     -1.71      0.00
   17   13    9      0.33      0.00
  -28   14    9      1.42      0.00
  -26   14    9      1.79      0.00
  -24   14    9      0.98      0.00
  -22   14    9     -1.35      0.00
  -20   14    9      0.84      0.00
  -18   14    9     -0.29      0.00
  -16   14    9     -1.49      0.00
  -14   14    9     -2.64      0.00
  -12   14    9     -4.13      0.00
  -10   14    9      0.06      0.00
   -8   14    9     -5.83      0.00
   -6   14    9     -7.28      0.00
   -4   14    9     -5.60      0.00
   -2   14    9    -14.36      0.00
    0   14    9     -9.71      0.00
    2   14    9     -4.86      0.00
    4   14    9     -1.15      0.00
    6   14    9      6.52      0.00
    8   14    9     -1.04      0.00
   10   14    9     -3.72      0.00
   12   14    9      1.47      0.00
   14   14    9      0.35      0.00
  -23   15    9     -0.80      0.00
  -21   15    9      1.17      0.00
  -19   15    9      1.76      0.00
  -17   15    9     -1.11      0.00
  -15   15    9     -1.40      0.00
  -13   15    9     -3.06      0.00
  -11   15    9     -4.66      0.00
   -9   15    9     -1.18      0.00
   -7   15    9      0.79      0.00
   -5   15    9     -3.16      0.00
   -3   15    9     -5.87      0.00
   -1   15    9     -4.88      0.00
    1   15    9     -4.34      0.00
    3   15    9     -1.31      0.00
    5   15    9      1.75      0.00
    7   15    9      0.31      0.00
    9   15    9     -0.86      0.00
  -38    0   10     -6.90      0.00
   22    0   10      2.07      0.00
   24    0   10     -1.17      0.00
   26    0   10      3.33      0.00
   28    0   10      3.33      0.00
   30    0   10     -0.84      0.00
  -37    1   10     -7.60      0.00
   23    1   10     -0.08      0.00
   25    1   10      0.00      0.00
   27    1   10      2.09      0.00
   29    1   10      0.69      0.00
  -38    2   10     -3.39      0.00
   22    2   10      0.31      0.00
   24    2   10     -0.59      0.00
   26    2   10     -1.79      0.00
   28    2   10     -0.90      0.00
   30    2   10     -0.58      0.00
  -37    3   10     -2.33      0.00
    1    3   10      4.77      0.00
   21    3   10      3.68      0.00
   23    3   10      1.32      0.00
   25    3   10     -0.93      0.00
   27    3   10     -2.28      0.00
   29    3   10     -2.07      0.00
  -38    4   10      2.86      0.00
  -36    4   10      4.07      0.00
   22    4   10      1.26      0.00
   24    4   10      3.38      0.00
   26    4   10     -0.66      0.00
   28    4   10     -2.16      0.00
  -37    5   10      8.10      0.00
  -35    5   10      2.40      0.00
   21    5   10     -3.26      0.00
   23    5   10      1.55      0.00
   25    5   10      1.83      0.00
   27    5   10     -1.57      0.00
   29    5   10      0.81      0.00
  -38    6   10      2.87      0.00
  -36    6   10      3.09      0.00
  -34    6   10      5.37      0.00
   20    6   10     -3.48      0.00
   22    6   10     -1.12      0.00
   24    6   10     -1.18      0.00
   26    6   10     -1.15      0.00
   28    6   10      0.77      0.00
  -37    7   10     -2.41      0.00
  -35    7   10      3.79      0.00
  -33    7   10      4.25      0.00
   17    7   10     -2.01      0.00
   19    7   10     -6.57      0.00
   21    7   10      0.60      0.00
   23    7   10     -1.19      0.00
   25    7   10     -3.06      0.00
   27    7   10      0.73      0.00
  -38    8   10     -4.87      0.00
  -36    8   10      0.16      0.00
  -34    8   10      2.16      0.00
  -32    8   10      1.08      0.00
  -30    8   10     10.50      0.00
   16    8   10      3.92      0.00
   18    8   10     -4.57      0.00
   20    8   10      0.83      0.00
   22    8   10      0.79      0.00
   24    8   10     -2.12      0.00
  -37    9   10     -1.01      0.00
  -35    9   10      1.10      0.00
  -33    9   10      0.76      0.00
  -31    9   10      2.40      0.00
  -29    9   10      8.41      0.00
   13    9   10      6.35      0.00
   15    9   10      7.49      0.00
   17    9   10     -0.29      0.00
   19    9   10      2.31      0.00
   21    9   10      0.85      0.00
   23    9   10     -1.57      0.00
  -36   10   10      0.11      0.00
  -34   10   10      0.58      0.00
  -32   10   10      1.23      0.00
  -30   10   10      0.58      0.00
  -28   10   10      2.66      0.00
  -26   10   10      1.73      0.00
   12   10   10      5.23      0.00
   14   10   10      3.77      0.00
   16   10   10      1.01      0.00
   18   10   10      2.94      0.00
   20   10   10      0.93      0.00
   22   10   10     -1.93      0.00
  -35   11   10     -1.06      0.00
  -33   11   10      0.64      0.00
  -31   11   10     -0.50      0.00
  -29   11   10     -1.96      0.00
  -27   11   10      0.95      0.00
  -25   11   10      3.10      0.00
  -23   11   10      3.49      0.00
  -21   11   10      2.35      0.00
    7   11   10      7.20      0.00
    9   11   10      0.76      0.00
   11   11   10      3.93      0.00
   13   11   10      1.82      0.00
   15   11   10     -2.30      0.00
   17   11   10      0.88      0.00
   19   11   10      0.66      0.00
  -32   12   10     -0.39      0.00
  -30   12   10     -1.59      0.00
  -28   12   10     -0.79      0.00
  -26   12   10      3.17      0.00
  -24   12   10      5.50      0.00
  -22   12   10      2.70      0.00
  -20   12   10     -0.18      0.00
  -18   12   10     -5.41      0.00
  -16   12   10     -5.33      0.00
    2   12   10      2.59      0.00
    4   12   10     -1.50      0.00
    6   12   10     10.88      0.00
    8   12   10      5.62      0.00
   10   12   10     -1.96      0.00
   12   12   10      1.98      0.00
   14   12   10     -1.17      0.00
   16   12   10     -1.99      0.00
   18   12   10     -0.23      0.00
  -29   13   10     -0.04      0.00
  -27   13   10      2.57      0.00
  -25   13   10      5.90      0.00
  -23   13   10      3.40      0.00
  -21   13   10      2.18      0.00
  -19   13   10      0.15      0.00
  -17   13   10     -8.06      0.00
  -15   13   10     -4.68      0.00
  -13   13   10     -3.39      0.00
  -11   13   10     -7.64      0.00
   -9   13   10     -1.57      0.00
   -7   13   10     -1.76      0.00
   -5   13   10     -1.41      0.00
   -3   13   10      4.47      0.00
   -1   13   10      7.37      0.00
    1   13   10      9.95      0.00
    3   13   10      5.12      0.00
    5   13   10      5.22      0.00
    7   13   10      7.19      0.00
    9   13   10     -0.82      0.00
   11   13   10     -1.53      0.00
   13   13   10      0.95      0.00
   15   13   10     -0.74      0.00
  -26   14   10      3.50      0.00
  -24   14   10      2.62      0.00
  -22   14   10      1.91      0.00
  -20   14   10      3.02      0.00
  -18   14   10     -2.37      0.00
  -16   14   10     -5.45      0.00
  -14   14   10     -0.96      0.00
  -12   14   10     -1.76      0.00
  -10   14   10     -4.37      0.00
   -8   14   10      0.09      0.00
   -6   14   10     -1.53      0.00
   -4   14   10     -3.43      0.00
   -2   14   10      4.59      0.00
    0   14   10      6.98      0.00
    2   14   10      6.46      0.00
    4   14   10      5.74      0.00
    6   14   10      0.64      0.00
    8   14   10     -0.65      0.00
   10   14   10     -0.57      0.00
   12   14   10     -0.75      0.00
  -21   15   10      1.60      0.00
  -19   15   10     -0.26      0.00
  -17   15   10     -0.52      0.00
  -15   15   10     -0.65      0.00
  -13   15   10     -0.31      0.00
  -11   15   10      0.19      0.00
   -9   15   10     -0.39      0.00
   -7   15   10      0.68      0.00
   -5   15   10     -3.79      0.00
   -3   15   10     -2.41      0.00
   -1   15   10      2.56      0.00
    1   15   10      1.45      0.00
    3   15   10      3.31      0.00
    5   15   10     -0.79      0.00
    7   15   10     -3.37      0.00
  -37    1   11     -3.64      0.00
   21    1   11     -8.61      0.00
   23    1   11     -2.94      0.00
   25    1   11      0.11      0.00
   27    1   11     -2.66      0.00
  -38    2   11     -0.52      0.00
  -36    2   11     -1.44      0.00
   20    2   11    -10.96      0.00
   22    2   11     -7.30      0.00
   24    2   11     -0.44      0.00
   26    2   11     -0.55      0.00
   28    2   11     -1.11      0.00
  -37    3   11      4.67      0.00
  -35    3   11      0.52      0.00
   19    3   11     -6.07      0.00
   21    3   11     -8.47      0.00
   23    3   11     -3.26      0.00
   25    3   11      1.78      0.00
   27    3   11      1.33      0.00
  -38    4   11      4.53      0.00
  -36    4   11      3.98      0.00
  -34    4   11     -4.67      0.00
   18    4   11     -2.63      0.00
   20    4   11     -4.49      0.00
   22    4   11     -5.67      0.00
   24    4   11      0.19      0.00
   26    4   11      2.55      0.00
  -37    5   11      2.00      0.00
  -35    5   11     -4.61      0.00
  -33    5   11     -5.82      0.00
   17    5   11     -0.73      0.00
   19    5   11     -4.19      0.00
   21    5   11     -3.48      0.00
   23    5   11     -1.82      0.00
   25    5   11      0.21      0.00
  -38    6   11     -1.43      0.00
  -36    6   11     -4.02      0.00
  -34    6   11     -4.25      0.00
  -32    6   11     -7.81      0.00
   16    6   11      7.73      0.00
   18    6   11     -1.20      0.00
   20    6   11     -2.38      0.00
   22    6   11     -0.09      0.00
   24    6   11     -1.58      0.00
   26    6   11      0.34      0.00
  -37    7   11     -3.82      0.00
  -35    7   11     -0.82      0.00
  -33    7   11     -3.30      0.00
  -31    7   11     -3.29      0.00
   15    7   11     10.88      0.00
   17    7   11      4.09      0.00
   19    7   11      1.12      0.00
   21    7   11      2.03      0.00
   23    7   11     -0.72      0.00
  -38    8   11     -0.43      0.00
  -36    8   11     -0.50      0.00
  -34    8   11      0.46      0.00
  -32    8   11      2.43      0.00
  -30    8   11      2.61      0.00
   12    8   11      0.47      0.00
   14    8   11      6.44      0.00
   16    8   11      2.07      0.00
   18    8   11      1.23      0.00
   20    8   11      3.57      0.00
   22    8   11      0.07      0.00
  -37    9   11      0.94      0.00
  -35    9   11     -0.08      0.00
  -33    9   11      4.13      0.00
  -31    9   11      4.62      0.00
  -29    9   11     -1.52      0.00
  -27    9   11     -2.47      0.00
   11    9   11     -3.98      0.00
   13    9   11     -0.16      0.00
   15    9   11     -4.89      0.00
   17    9   11     -3.41      0.00
   19    9   11      1.15      0.00
   21    9   11     -0.58      0.00
  -36   10   11     -0.13      0.00
  -34   10   11      2.14      0.00
  -32   10   11      3.86      0.00
  -30   10   11     -1.31      0.00
  -28   10   11     -7.44      0.00
  -26   10   11     -2.46      0.00
  -24   10   11      3.97      0.00
    8   10   11     -1.18      0.00
   10   10   11     -7.60      0.00
   12   10   11     -2.26      0.00
   14   10   11     -6.87      0.00
   16   10   11     -5.97      0.00
   18   10   11     -1.33      0.00
   20   10   11     -2.03      0.00
  -33   11   11      2.51      0.00
  -31   11   11     -0.25      0.00
  -29   11   11     -5.37      0.00
  -27   11   11     -4.41      0.00
  -25   11   11      3.79      0.00
  -23   11   11      6.32      0.00
  -21   11   11      5.95      0.00
  -19   11   11     -0.35      0.00
    3   11   11      4.67      0.00
    5   11   11      3.79      0.00
    7   11   11      8.56      0.00
    9   11   11      0.25      0.00
   11   11   11     -3.16      0.00
   13   11   11     -3.57      0.00
   15   11   11     -3.08      0.00
   17   11   11     -0.06      0.00
  -30   12   11     -2.04      0.00
  -28   12   11     -3.35      0.00
  -26   12   11      1.66      0.00
  -24   12   11      5.37      0.00
  -22   12   11      4.64      0.00
  -20   12   11      2.89      0.00
  -18   12   11     -6.51      0.00
  -16   12   11    -14.88      0.00
  -14   12   11     -6.97      0.00
  -12   12   11     -2.85      0.00
  -10   12   11     -1.91      0.00
   -8   12   11      7.61      0.00
   -6   12   11      0.10      0.00
   -4   12   11    -10.61      0.00
   -2   12   11     -4.91      0.00
    0   12   11      0.18      0.00
    2   12   11      4.19      0.00
    4   12   11      4.97      0.00
    6   12   11      4.94      0.00
    8   12   11      6.46      0.00
   10   12   11      1.36      0.00
   12   12   11     -1.86      0.00
   14   12   11     -0.12      0.00
  -27   13   11      0.12      0.00
  -25   13   11      2.28      0.00
  -23   13   11      0.87      0.00
  -21   13   11      0.09      0.00
  -19   13   11     -2.45      0.00
  -17   13   11     -5.12      0.00
  -15   13   11     -4.38      0.00
  -13   13   11     -1.09      0.00
  -11   13   11      0.24      0.00
   -9   13   11      4.74      0.00
   -7   13   11      7.04      0.00
   -5   13   11     -5.22      0.00
   -3   13   11     -7.05      0.00
   -1   13   11     -1.47      0.00
    1   13   11     -3.47      0.00
    3   13   11      1.93      0.00
    5   13   11      2.24      0.00
    7   13   11     -0.88      0.00
    9   13   11      2.04      0.00
   11   13   11      0.52      0.00
  -24   14   11     -1.34      0.00
  -22   14   11     -1.37      0.00
  -20   14   11     -2.24      0.00
  -18   14   11     -2.04      0.00
  -16   14   11      1.70      0.00
  -14   14   11      0.85      0.00
  -12   14   11      2.87      0.00
  -10   14   11      6.25      0.00
   -8   14   11      4.69      0.00
   -6   14   11      0.43      0.00
   -4   14   11     -4.26      0.00
   -2   14   11     -2.62      0.00
    0   14   11     -3.22      0.00
    2   14   11     -3.20      0.00
    4   14   11      0.51      0.00
    6   14   11     -3.29      0.00
    8   14   11     -2.97      0.00
  -17   15   11      1.46      0.00
  -15   15   11      1.93      0.00
  -13   15   11      2.04      0.00
  -11   15   11      4.47      0.00
   -9   15   11      4.06      0.00
   -7   15   11      0.23      0.00
   -5   15   11     -1.58      0.00
   -3   15   11     -1.66      0.00
   -1   15   11     -1.91      0.00
    1   15   11     -1.38      0.00
  -38    0   12     -1.09      0.00
  -36    0   12    -11.32      0.00
   18    0   12     -2.07      0.00
   20    0   12     -3.90      0.00
   22    0   12     -5.43      0.00
   24    0   12      2.78      0.00
   26    0   12      1.06      0.00
  -37    1   12     -2.63      0.00
  -35    1   12     -6.67      0.00
   17    1   12     -2.25      0.00
   19    1   12     -2.52      0.00
   21    1   12     -4.15      0.00
   23    1   12      0.48      0.00
   25    1   12      2.20      0.00
  -38    2   12     -0.08      0.00
  -36    2   12      5.54      0.00
  -34    2   12      5.48      0.00
   18    2   12     -2.68      0.00
   20    2   12     -1.25      0.00
   22    2   12      2.19      0.00
   24    2   12      0.86      0.00
   26    2   12      1.06      0.00
  -37    3   12      5.75      0.00
  -35    3   12      9.28      0.00
   17    3   12     -3.03      0.00
   19    3   12     -0.99      0.00
   21    3   12      3.85      0.00
   23    3   12      0.97      0.00
   25    3   12      0.56      0.00
  -38    4   12      1.41      0.00
  -36    4   12      3.40      0.00
  -34    4   12      2.84      0.00
   16    4   12      2.83      0.00
   18    4   12     -0.64      0.00
   20    4   12      1.81      0.00
   22    4   12      1.79      0.00
   24    4   12      0.25      0.00
  -37    5   12     -3.05      0.00
  -35    5   12     -2.08      0.00
  -33    5   12     -5.15      0.00
   15    5   12      5.41      0.00
   17    5   12      3.65      0.00
   19    5   12      0.42      0.00
   21    5   12      0.73      0.00
   23    5   12      0.91      0.00
  -38    6   12     -1.48      0.00
  -36    6   12     -3.80      0.00
  -34    6   12     -2.88      0.00
  -32    6   12    -10.86      0.00
   14    6   12      4.12      0.00
   16    6   12      2.85      0.00
   18    6   12      0.32      0.00
   20    6   12     -0.06      0.00
   22    6   12      0.30      0.00
  -37    7   12      1.63      0.00
  -35    7   12     -0.54      0.00
  -33    7   12     -4.58      0.00
  -31    7   12    -10.05      0.00
  -29    7   12    -13.58      0.00
   11    7   12     -1.81      0.00
   13    7   12     -0.46      0.00
   15    7   12     -0.75      0.00
   17    7   12     -2.13      0.00
   19    7   12     -0.83      0.00
   21    7   12     -0.73      0.00
  -38    8   12      3.12      0.00
  -36    8   12      3.24      0.00
  -34    8   12     -1.24      0.00
  -32    8   12     -3.31      0.00
  -30    8   12     -6.95      0.00
  -28    8   12     -8.02      0.00
   10    8   12     -4.80      0.00
   12    8   12     -2.91      0.00
   14    8   12     -3.77      0.00
   16    8   12     -4.12      0.00
   18    8   12     -0.93      0.00
   20    8   12     -0.64      0.00
  -37    9   12      1.61      0.00
  -35    9   12      0.85      0.00
  -33    9   12      0.13      0.00
  -31    9   12     -2.12      0.00
  -29    9   12     -4.92      0.00
  -27    9   12     -7.56      0.00
  -25    9   12     -1.84      0.00
  -23    9   12      1.79      0.00
    7    9   12      8.66      0.00
    9    9   12      1.20      0.00
   11    9   12     -1.27      0.00
   13    9   12     -2.03      0.00
   15    9   12     -4.10      0.00
   17    9   12      0.36      0.00
   19    9   12      0.89      0.00
  -34   10   12      1.22      0.00
  -32   10   12      0.79      0.00
  -30   10   12     -2.50      0.00
  -28   10   12     -4.85      0.00
  -26   10   12     -1.07      0.00
  -24   10   12      3.31      0.00
  -22   10   12     -1.61      0.00
  -20   10   12     -1.53      0.00
    2   10   12      9.27      0.00
    4   10   12      4.94      0.00
    6   10   12      4.15      0.00
    8   10   12      5.89      0.00
   10   10   12      4.76      0.00
   12   10   12      1.20      0.00
   14   10   12     -1.94      0.00
   16   10   12      1.02      0.00
  -31   11   12     -0.09      0.00
  -29   11   12     -2.75      0.00
  -27   11   12      0.12      0.00
  -25   11   12      3.55      0.00
  -23   11   12      1.93      0.00
  -21   11   12      0.29      0.00
  -19   11   12     -1.30      0.00
  -17   11   12     -3.56      0.00
  -15   11   12     -2.56      0.00
  -13   11   12      3.55      0.00
  -11   11   12     -3.47      0.00
   -9   11   12    -11.31      0.00
   -7   11   12     -3.13      0.00
   -5   11   12     -4.98      0.00
   -3   11   12     -2.03      0.00
   -1   11   12      7.62      0.00
    1   11   12      4.80      0.00
    3   11   12      7.25      0.00
    5   11   12      4.30      0.00
    7   11   12     -0.80      0.00
    9   11   12      4.83      0.00
   11   11   12      2.98      0.00
   13   11   12     -0.39      0.00
   15   11   12      1.17      0.00
  -28   12   12     -0.35      0.00
  -26   12   12      2.33      0.00
  -24   12   12      3.00      0.00
  -22   12   12      2.42      0.00
  -20   12   12     -2.10      0.00
  -18   12   12     -4.06      0.00
  -16   12   12      2.31      0.00
  -14   12   12      7.38      0.00
  -12   12   12      6.04      0.00
  -10   12   12     -3.53      0.00
   -8   12   12     -6.26      0.00
   -6   12   12     -5.22      0.00
   -4   12   12     -7.38      0.00
   -2   12   12      1.44      0.00
    0   12   12      2.85      0.00
    2   12   12      1.31      0.00
    4   12   12      6.37      0.00
    6   12   12      0.00      0.00
    8   12   12     -2.12      0.00
   10   12   12      0.68      0.00
   12   12   12     -0.84      0.00
  -25   13   12      1.52      0.00
  -23   13   12      1.50      0.00
  -21   13   12     -1.91      0.00
  -19   13   12     -4.34      0.00
  -17   13   12      2.22      0.00
  -15   13   12      6.72      0.00
  -13   13   12      4.23      0.00
  -11   13   12      4.25      0.00
   -9   13   12      1.31      0.00
   -7   13   12     -4.46      0.00
   -5   13   12     -4.39      0.00
   -3   13   12     -1.05      0.00
   -1   13   12      0.93      0.00
    1   13   12      0.27      0.00
    3   13   12      2.31      0.00
    5   13   12      3.66      0.00
    7   13   12     -0.98      0.00
  -20   14   12     -3.23      0.00
  -18   14   12      1.00      0.00
  -16   14   12      3.32      0.00
  -14   14   12      0.60      0.00
  -12   14   12      1.54      0.00
  -10   14   12      3.87      0.00
   -8   14   12     -0.19      0.00
   -6   14   12     -1.96      0.00
   -4   14   12      1.78      0.00
   -2   14   12      0.97      0.00
    0   14   12      0.74      0.00
    2   14   12      2.07      0.00
    4   14   12      1.57      0.00
   -9   15   12     -0.76      0.00
  -37    1   13     -4.47      0.00
  -35    1   13      0.56      0.00
  -33    1   13      1.00      0.00
   15    1   13     -8.36      0.00
   17    1   13     -1.35      0.00
   19    1   13     -0.73      0.00
   21    1   13      4.09      0.00
   23    1   13      3.98      0.00
  -38    2   13     -3.81      0.00
  -36    2   13     -0.16      0.00
  -34    2   13      4.52      0.00
   14    2   13    -11.28      0.00
   16    2   13     -4.41      0.00
   18    2   13     -2.30      0.00
   20    2   13      3.80      0.00
   22    2   13      5.37      0.00
  -37    3   13     -0.26      0.00
  -35    3   13      5.87      0.00
  -33    3   13      6.46      0.00
   13    3   13     -6.18      0.00
   15    3   13     -4.50      0.00
   17    3   13     -2.22      0.00
   19    3   13      2.77      0.00
   21    3   13      3.16      0.00
   23    3   13     -1.00      0.00
  -38    4   13      0.04      0.00
  -36    4   13      0.92      0.00
  -34    4   13      7.45      0.00
  -32    4   13      3.53      0.00
   12    4   13      1.65      0.00
   14    4   13     -2.44      0.00
   16    4   13     -2.41      0.00
   18    4   13      3.04      0.00
   20    4   13      1.27      0.00
   22    4   13     -2.07      0.00
  -37    5   13     -1.50      0.00
  -35    5   13      0.03      0.00
  -33    5   13      3.37      0.00
  -31    5   13      3.12      0.00
   11    5   13      3.00      0.00
   13    5   13     -0.61      0.00
   15    5   13     -3.11      0.00
   17    5   13      0.70      0.00
   19    5   13      0.99      0.00
   21    5   13     -1.78      0.00
  -38    6   13     -1.08      0.00
  -36    6   13     -1.01      0.00
  -34    6   13     -2.09      0.00
  -32    6   13      0.26      0.00
  -30    6   13      1.40      0.00
  -28    6   13     -0.31      0.00
   10    6   13      4.04      0.00
   12    6   13      0.43      0.00
   14    6   13     -4.25      0.00
   16    6   13     -2.32      0.00
   18    6   13     -0.36      0.00
   20    6   13     -0.45      0.00
  -37    7   13      0.08      0.00
  -35    7   13     -0.88      0.00
  -33    7   13     -3.30      0.00
  -31    7   13     -1.90      0.00
  -29    7   13      2.76      0.00
  -27    7   13      5.55      0.00
    7    7   13      6.82      0.00
    9    7   13      5.74      0.00
   11    7   13      3.43      0.00
   13    7   13     -1.73      0.00
   15    7   13     -3.71      0.00
   17    7   13     -1.23      0.00
   19    7   13     -0.10      0.00
  -36    8   13     -0.66      0.00
  -34    8   13     -1.88      0.00
  -32    8   13     -2.60      0.00
  -30    8   13      1.67      0.00
  -28    8   13      6.59      0.00
  -26    8   13      2.45      0.00
  -24    8   13      4.24      0.00
    4    8   13      5.33      0.00
    6    8   13      1.29      0.00
    8    8   13      4.38      0.00
   10    8   13      4.26      0.00
   12    8   13      2.52      0.00
   14    8   13     -0.66      0.00
   16    8   13     -0.70      0.00
   18    8   13      0.24      0.00
  -35    9   13     -1.86      0.00
  -33    9   13     -1.33      0.00
  -31    9   13      1.60      0.00
  -29    9   13      3.44      0.00
  -27    9   13      1.74      0.00
  -25    9   13      4.62      0.00
  -23    9   13      6.87      0.00
  -21    9   13      0.49      0.00
  -19    9   13      1.03      0.00
    1    9   13     -1.39      0.00
    3    9   13      4.47      0.00
    5    9   13      2.71      0.00
    7    9   13     -2.04      0.00
    9    9   13      0.34      0.00
   11    9   13      3.22      0.00
   13    9   13      2.19      0.00
   15    9   13      0.86      0.00
  -32   10   13      0.61      0.00
  -30   10   13      1.57      0.00
  -28   10   13     -0.75      0.00
  -26   10   13      1.20      0.00
  -24   10   13      0.81      0.00
  -22   10   13      0.45      0.00
  -20   10   13      4.22      0.00
  -18   10   13      3.97      0.00
  -16   10   13     -1.44      0.00
  -14   10   13     -4.05      0.00
  -12   10   13      4.05      0.00
  -10   10   13      2.68      0.00
   -8   10   13     -4.44      0.00
   -6   10   13     -4.33      0.00
   -4   10   13     -9.53      0.00
   -2   10   13     -5.73      0.00
    0   10   13     -2.50      0.00
    2   10   13     -4.17      0.00
    4   10   13      3.43      0.00
    6   10   13     -0.58      0.00
    8   10   13     -5.04      0.00
   10   10   13      0.33      0.00
   12   10   13      1.08      0.00
   14   10   13      1.15      0.00
  -29   11   13     -0.66      0.00
  -27   11   13     -1.32      0.00
  -25   11   13     -3.87      0.00
  -23   11   13     -3.27      0.00
  -21   11   13      2.56      0.00
  -19   11   13      3.30      0.00
  -17   11   13      1.87      0.00
  -15   11   13      0.26      0.00
  -13   11   13      1.71      0.00
  -11   11   13      5.47      0.00
   -9   11   13     -0.09      0.00
   -7   11   13     -2.53      0.00
   -5   11   13     -1.96      0.00
   -3   11   13     -2.96      0.00
   -1   11   13     -1.11      0.00
    1   11   13     -4.36      0.00
    3   11   13     -1.75      0.00
    5   11   13      1.72      0.00
    7   11   13     -2.62      0.00
    9   11   13     -1.81      0.00
   11   11   13     -0.57      0.00
  -26   12   13     -3.54      0.00
  -24   12   13     -3.17      0.00
  -22   12   13      1.03      0.00
  -20   12   13     -0.31      0.00
  -18   12   13      0.42      0.00
  -16   12   13      4.73      0.00
  -14   12   13      2.97      0.00
  -12   12   13     -0.72      0.00
  -10   12   13      0.68      0.00
   -8   12   13      0.76      0.00
   -6   12   13      0.19      0.00
   -4   12   13      2.88      0.00
   -2   12   13      0.92      0.00
    0   12   13     -1.44      0.00
    2   12   13     -0.34      0.00
    4   12   13     -0.23      0.00
    6   12   13      0.33      0.00
    8   12   13     -0.51      0.00
  -23   13   13      0.96      0.00
  -21   13   13     -0.96      0.00
  -19   13   13     -1.09      0.00
  -17   13   13      3.50      0.00
  -15   13   13      3.56      0.00
  -13   13   13     -1.96      0.00
  -11   13   13     -3.07      0.00
   -9   13   13      0.70      0.00
   -7   13   13      0.59      0.00
   -5   13   13      3.20      0.00
   -3   13   13      3.54      0.00
   -1   13   13     -1.31      0.00
    1   13   13      0.91      0.00
    3   13   13      1.38      0.00
  -14   14   13     -1.75      0.00
  -12   14   13     -2.52      0.00
  -10   14   13     -0.42      0.00
   -8   14   13      0.19      0.00
   -6   14   13      1.16      0.00
   -4   14   13      2.64      0.00
  -38    0   14      2.23      0.00
  -36    0   14      0.41      0.00
  -34    0   14     -1.54      0.00
  -32    0   14    -10.60      0.00
   10    0   14      5.79      0.00
   12    0   14      4.64      0.00
   14    0   14     -3.93      0.00
   16    0   14     -2.61      0.00
   18    0   14     -0.48      0.00
   20    0   14     -2.46      0.00
  -37    1   14     -1.36      0.00
  -35    1   14     -1.26      0.00
  -33    1   14     -5.24      0.00
  -31    1   14    -12.21      0.00
   11    1   14      4.77      0.00
   13    1   14     -1.39      0.00
   15    1   14     -1.41      0.00
   17    1   14      0.57      0.00
   19    1   14     -0.65      0.00
   21    1   14      0.67      0.00
  -38    2   14     -3.05      0.00
  -36    2   14     -4.67      0.00
  -34    2   14     -3.71      0.00
  -32    2   14     -6.38      0.00
   10    2   14      0.27      0.00
   12    2   14     -2.49      0.00
   14    2   14      0.71      0.00
   16    2   14      2.68      0.00
   18    2   14      2.01      0.00
   20    2   14      3.46      0.00
  -37    3   14     -2.52      0.00
  -35    3   14     -4.58      0.00
  -33    3   14     -4.25      0.00
  -31    3   14     -3.76      0.00
    9    3   14     -3.36      0.00
   11    3   14     -6.08      0.00
   13    3   14      0.06      0.00
   15    3   14      1.32      0.00
   17    3   14      2.27      0.00
   19    3   14      5.06      0.00
  -38    4   14      2.46      0.00
  -36    4   14      1.27      0.00
  -34    4   14     -2.77      0.00
  -32    4   14     -3.13      0.00
  -30    4   14      4.84      0.00
    8    4   14     -1.74      0.00
   10    4   14     -6.50      0.00
   12    4   14     -2.07      0.00
   14    4   14     -1.11      0.00
   16    4   14      0.13      0.00
   18    4   14      3.28      0.00
   20    4   14      0.00      0.00
  -37    5   14      3.81      0.00
  -35    5   14      3.11      0.00
  -33    5   14     -0.61      0.00
  -31    5   14      2.59      0.00
  -29    5   14      4.80      0.00
  -27    5   14      3.51      0.00
    7    5   14      0.89      0.00
    9    5   14     -4.59      0.00
   11    5   14     -1.21      0.00
   13    5   14     -1.52      0.00
   15    5   14     -0.69      0.00
   17    5   14      1.55      0.00
   19    5   14     -1.20      0.00
  -38    6   14      0.17      0.00
  -36    6   14      2.41      0.00
  -34    6   14      3.17      0.00
  -32    6   14      3.69      0.00
  -30    6   14      1.54      0.00
  -28    6   14      1.95      0.00
  -26    6   14      4.90      0.00
    4    6   14      5.46      0.00
    6    6   14      1.87      0.00
    8    6   14     -2.10      0.00
   10    6   14     -1.15      0.00
   12    6   14      0.14      0.00
   14    6   14      0.52      0.00
   16    6   14      1.67      0.00
   18    6   14     -0.50      0.00
  -37    7   14     -0.03      0.00
  -35    7   14      0.72      0.00
  -33    7   14      2.90      0.00
  -31    7   14      2.62      0.00
  -29    7   14      2.92      0.00
  -27    7   14      2.91      0.00
  -25    7   14      1.61      0.00
  -23    7   14      3.76      0.00
    3    7   14      5.04      0.00
    5    7   14      3.50      0.00
    7    7   14     -1.56      0.00
    9    7   14     -0.57      0.00
   11    7   14     -1.11      0.00
   13    7   14      0.73      0.00
   15    7   14      2.16      0.00
  -34    8   14     -1.04      0.00
  -32    8   14      0.70      0.00
  -30    8   14      4.72      0.00
  -28    8   14      2.74      0.00
  -26    8   14     -1.29      0.00
  -24    8   14      1.22      0.00
  -22    8   14     -0.41      0.00
  -20    8   14     -4.77      0.00
  -18    8   14     -1.19      0.00
   -2    8   14      3.19      0.00
    0    8   14      4.87      0.00
    2    8   14      1.94      0.00
    4    8   14      2.13      0.00
    6    8   14      0.07      0.00
    8    8   14     -1.13      0.00
   10    8   14     -2.43      0.00
   12    8   14     -1.66      0.00
   14    8   14      1.28      0.00
  -33    9   14     -1.73      0.00
  -31    9   14      2.15      0.00
  -29    9   14      1.96      0.00
  -27    9   14     -1.14      0.00
  -25    9   14      1.17      0.00
  -23    9   14     -1.38      0.00
  -21    9   14     -3.38      0.00
  -19    9   14     -3.31      0.00
  -17    9   14     -1.44      0.00
  -15    9   14      2.03      0.00
  -13    9   14      1.68      0.00
  -11    9   14      8.17      0.00
   -9    9   14      6.17      0.00
   -7    9   14     -2.21      0.00
   -5    9   14      0.47      0.00
   -3    9   14      0.95      0.00
   -1    9   14      3.99      0.00
    1    9   14      4.10      0.00
    3    9   14     -1.71      0.00
    5    9   14     -0.41      0.00
    7    9   14     -0.36      0.00
    9    9   14     -2.82      0.00
   11    9   14     -2.83      0.00
   13    9   14     -0.45      0.00
  -30   10   14     -0.35      0.00
  -28   10   14     -0.17      0.00
  -26   10   14      1.39      0.00
  -24   10   14     -0.15      0.00
  -22   10   14      0.15      0.00
  -20   10   14      0.37      0.00
  -18   10   14     -2.10      0.00
  -16   10   14      0.46      0.00
  -14   10   14      0.98      0.00
  -12   10   14      4.46      0.00
  -10   10   14      8.00      0.00
   -8   10   14     -1.63      0.00
   -6   10   14     -3.95      0.00
   -4   10   14      0.84      0.00
   -2   10   14      0.63      0.00
    0   10   14      0.88      0.00
    2   10   14     -1.15      0.00
    4   10   14     -2.12      0.00
    6   10   14     -1.09      0.00
    8   10   14     -1.34      0.00
   10   10   14     -1.51      0.00
  -27   11   14      1.37      0.00
  -25   11   14     -1.05      0.00
  -23   11   14      2.02      0.00
  -21   11   14      5.24      0.00
  -19   11   14      0.07      0.00
  -17   11   14     -2.08      0.00
  -15   11   14      1.39      0.00
  -13   11   14      3.73      0.00
  -11   11   14      1.94      0.00
   -9   11   14     -1.57      0.00
   -7   11   14     -3.90      0.00
   -5   11   14     -1.21      0.00
   -3   11   14      1.46      0.00
   -1   11   14     -2.31      0.00
    1   11   14     -1.96      0.00
    3   11   14     -0.24      0.00
    5   11   14     -1.86      0.00
    7   11   14     -0.41      0.00
  -24   12   14      0.90      0.00
  -22   12   14      4.05      0.00
  -20   12   14      1.83      0.00
  -18   12   14     -1.58      0.00
  -16   12   14     -0.38      0.00
  -14   12   14      2.96      0.00
  -12   12   14     -0.19      0.00
  -10   12   14     -3.26      0.00
   -8   12   14     -2.15      0.00
   -6   12   14     -1.25      0.00
   -4   12   14      2.15      0.00
   -2   12   14      0.00      0.00
    0   12   14     -2.11      0.00
    2   12   14      0.90      0.00
    4   12   14     -0.57      0.00
  -17   13   14     -0.20      0.00
  -15   13   14      0.98      0.00
  -13   13   14     -0.67      0.00
  -11   13   14     -2.79      0.00
   -9   13   14     -0.81      0.00
   -7   13   14      0.18      0.00
   -5   13   14      1.17      0.00
   -3   13   14      0.71      0.00
  -37    1   15      1.27      0.00
  -35    1   15     -0.57      0.00
  -33    1   15      0.43      0.00
  -31    1   15      2.18      0.00
  -29    1   15     -0.42      0.00
    7    1   15      3.47      0.00
    9    1   15      2.17      0.00
   11    1   15      0.01      0.00
   13    1   15     -0.87      0.00
   15    1   15      1.51      0.00
   17    1   15     -0.36      0.00
  -38    2   15      2.04      0.00
  -36    2   15      0.97      0.00
  -34    2   15     -1.90      0.00
  -32    2   15     -1.15      0.00
  -30    2   15      1.03      0.00
  -28    2   15      1.40      0.00
    6    2   15      5.48      0.00
    8    2   15      4.91      0.00
   10    2   15     -0.68      0.00
   12    2   15     -1.45      0.00
   14    2   15      2.70      0.00
   16    2   15      0.02      0.00
   18    2   15     -1.36      0.00
  -37    3   15      1.05      0.00
  -35    3   15     -0.63      0.00
  -33    3   15     -4.33      0.00
  -31    3   15     -3.02      0.00
  -29    3   15      1.11      0.00
  -27    3   15     -0.08      0.00
    5    3   15      3.18      0.00
    7    3   15      4.41      0.00
    9    3   15     -0.93      0.00
   11    3   15     -2.24      0.00
   13    3   15      2.20      0.00
   15    3   15      0.75      0.00
   17    3   15     -0.66      0.00
  -38    4   15     -0.43      0.00
  -36    4   15     -0.38      0.00
  -34    4   15     -3.11      0.00
  -32    4   15     -2.40      0.00
  -30    4   15     -0.40      0.00
  -28    4   15     -3.78      0.00
  -26    4   15     -4.18      0.00
    4    4   15      0.24      0.00
    6    4   15      0.82      0.00
    8    4   15     -1.70      0.00
   10    4   15     -2.27      0.00
   12    4   15      0.86      0.00
   14    4   15     -0.40      0.00
   16    4   15      0.60      0.00
  -37    5   15      0.44      0.00
  -35    5   15     -2.55      0.00
  -33    5   15     -0.71      0.00
  -31    5   15      3.68      0.00
  -29    5   15     -2.91      0.00
  -27    5   15     -7.73      0.00
  -25    5   15      0.60      0.00
  -23    5   15      7.15      0.00
    1    5   15      2.96      0.00
    3    5   15      0.53      0.00
    5    5   15     -2.06      0.00
    7    5   15     -2.74      0.00
    9    5   15     -0.92      0.00
   11    5   15     -0.39      0.00
   13    5   15     -1.02      0.00
   15    5   15      0.51      0.00
  -36    6   15      0.16      0.00
  -34    6   15     -0.30      0.00
  -32    6   15      3.10      0.00
  -30    6   15      1.45      0.00
  -28    6   15     -3.06      0.00
  -26    6   15     -2.28      0.00
  -24    6   15      5.28      0.00
  -22    6   15      6.88      0.00
  -20    6   15     -2.31      0.00
   -2    6   15      2.84      0.00
    0    6   15      8.35      0.00
    2    6   15      2.59      0.00
    4    6   15     -0.23      0.00
    6    6   15     -3.15      0.00
    8    6   15      0.01      0.00
   10    6   15      1.04      0.00
   12    6   15     -1.53      0.00
   14    6   15      0.80      0.00
  -35    7   15      1.89      0.00
  -33    7   15      1.12      0.00
  -31    7   15      0.49      0.00
  -29    7   15      1.05      0.00
  -27    7   15     -0.08      0.00
  -25    7   15     -0.23      0.00
  -23    7   15      1.85      0.00
  -21    7   15      2.00      0.00
  -19    7   15     -0.17      0.00
  -17    7   15     -3.63      0.00
  -15    7   15     -5.84      0.00
  -13    7   15     -2.73      0.00
  -11    7   15      0.44      0.00
   -9    7   15     -0.41      0.00
   -7    7   15      0.69      0.00
   -5    7   15      1.29      0.00
   -3    7   15      0.64      0.00
   -1    7   15      3.96      0.00
    1    7   15      5.17      0.00
    3    7   15      1.17      0.00
    5    7   15     -1.98      0.00
    7    7   15      0.71      0.00
    9    7   15      2.55      0.00
   11    7   15     -0.56      0.00
   13    7   15      0.14      0.00
  -32    8   15      0.07      0.00
  -30    8   15      1.02      0.00
  -28    8   15     -0.69      0.00
  -26    8   15     -2.02      0.00
  -24    8   15     -2.38      0.00
  -22    8   15     -1.82      0.00
  -20    8   15      2.33      0.00
  -18    8   15     -1.05      0.00
  -16    8   15     -1.97      0.00
  -14    8   15     -4.05      0.00
  -12    8   15     -8.86      0.00
  -10    8   15      1.73      0.00
   -8    8   15      1.43      0.00
   -6    8   15     -3.29      0.00
   -4    8   15      4.31      0.00
   -2    8   15      1.79      0.00
    0    8   15      0.66      0.00
    2    8   15      1.59      0.00
    4    8   15     -2.99      0.00
    6    8   15      0.46      0.00
    8    8   15      3.70      0.00
   10    8   15      0.41      0.00
  -31    9   15      1.25      0.00
  -29    9   15     -1.55      0.00
  -27    9   15     -2.38      0.00
  -25    9   15     -3.15      0.00
  -23    9   15     -3.55      0.00
  -21    9   15      0.91      0.00
  -19    9   15      1.08      0.00
  -17    9   15      0.67      0.00
  -15    9   15      1.66      0.00
  -13    9   15     -4.53      0.00
  -11    9   15     -1.75      0.00
   -9    9   15      2.46      0.00
   -7    9   15     -3.15      0.00
   -5    9   15      0.46      0.00
   -3    9   15      3.95      0.00
   -1    9   15      0.12      0.00
    1    9   15     -1.45      0.00
    3    9   15     -2.92      0.00
    5    9   15     -0.97      0.00
    7    9   15      2.29      0.00
    9    9   15      1.31      0.00
  -28   10   15     -0.87      0.00
  -26   10   15     -0.86      0.00
  -24   10   15     -2.99      0.00
  -22   10   15      0.18      0.00
  -20   10   15      1.82      0.00
  -18   10   15      0.88      0.00
  -16   10   15      1.12      0.00
  -14   10   15      1.38      0.00
  -12   10   15      2.96      0.00
  -10   10   15      0.31      0.00
   -8   10   15     -2.61      0.00
   -6   10   15     -0.46      0.00
   -4   10   15      1.99      0.00
   -2   10   15      1.90      0.00
    0   10   15     -1.41      0.00
    2   10   15     -2.70      0.00
    4   10   15     -0.72      0.00
    6   10   15      0.68      0.00
  -23   11   15      1.02      0.00
  -21   11   15      1.03      0.00
  -19   11   15      0.07      0.00
  -17   11   15     -1.03      0.00
  -15   11   15      0.42      0.00
  -13   11   15      4.37      0.00
  -11   11   15      0.78      0.00
   -9   11   15     -2.61      0.00
   -7   11   15     -0.31      0.00
   -5   11   15      0.89      0.00
   -3   11   15      0.98      0.00
   -1   11   15     -0.70      0.00
    1   11   15     -0.74      0.00
  -18   12   15     -1.68      0.00
  -16   12   15     -0.90      0.00
  -14   12   15      1.69      0.00
  -12   12   15     -0.04      0.00
  -10   12   15     -2.39      0.00
   -8   12   15     -0.31      0.00
   -6   12   15      1.20      0.00
   -4   12   15      0.47      0.00
  -38    0   16     -0.11      0.00
  -36    0   16     -1.43      0.00
  -34    0   16     -1.90      0.00
  -32    0   16      2.17      0.00
  -30    0   16      3.97      0.00
  -28    0   16     -0.76      0.00
  -26    0   16     -0.78      0.00
  -24    0   16     -1.81      0.00
    0    0   16     -3.73      0.00
    2    0   16     -4.58      0.00
    4    0   16     -3.10      0.00
    6    0   16      2.99      0.00
    8    0   16      3.13      0.00
   10    0   16     -0.63      0.00
   12    0   16     -3.09      0.00
   14    0   16     -2.25      0.00
  -37    1   16      0.03      0.00
  -35    1   16     -0.28      0.00
  -33    1   16      0.06      0.00
  -31    1   16      2.44      0.00
  -29    1   16      2.00      0.00
  -27    1   16     -0.43      0.00
  -25    1   16     -0.47      0.00
  -23    1   16     -0.85      0.00
   -1    1   16     -2.04      0.00
    1    1   16     -3.52      0.00
    3    1   16     -4.22      0.00
    5    1   16     -1.20      0.00
    7    1   16      2.92      0.00
    9    1   16      2.38      0.00
   11    1   16     -2.17      0.00
   13    1   16     -2.36      0.00
  -36    2   16      1.56      0.00
  -34    2   16      0.60      0.00
  -32    2   16     -0.05      0.00
  -30    2   16      1.05      0.00
  -28    2   16      1.38      0.00
  -26    2   16      0.29      0.00
  -24    2   16      1.61      0.00
  -22    2   16     -0.56      0.00
   -2    2   16      1.50      0.00
    0    2   16     -1.03      0.00
    2    2   16     -2.58      0.00
    4    2   16     -3.05      0.00
    6    2   16     -0.59      0.00
    8    2   16      3.01      0.00
   10    2   16      0.35      0.00
   12    2   16     -1.18      0.00
   14    2   16      1.04      0.00
  -37    3   16      1.22      0.00
  -35    3   16     -0.68      0.00
  -33    3   16     -2.15      0.00
  -31    3   16      0.45      0.00
  -29    3   16      1.19      0.00
  -27    3   16     -0.37      0.00
  -25    3   16      0.77      0.00
  -23    3   16      0.64      0.00
  -21    3   16     -5.07      0.00
   -3    3   16     -0.05      0.00
   -1    3   16      1.00      0.00
    1    3   16      0.32      0.00
    3    3   16      0.05      0.00
    5    3   16     -1.15      0.00
    7    3   16      0.79      0.00
    9    3   16      0.34      0.00
   11    3   16      1.17      0.00
   13    3   16      1.91      0.00
  -36    4   16     -0.65      0.00
  -34    4   16     -4.71      0.00
  -32    4   16     -2.75      0.00
  -30    4   16      1.83      0.00
  -28    4   16      0.65      0.00
  -26    4   16     -1.84      0.00
  -24    4   16     -1.11      0.00
  -22    4   16     -2.17      0.00
  -20    4   16     -2.21      0.00
  -18    4   16      3.86      0.00
   -6    4   16     -0.91      0.00
   -4    4   16     -4.10      0.00
   -2    4   16     -2.56      0.00
    0    4   16      1.50      0.00
    2    4   16      3.39      0.00
    4    4   16      2.10      0.00
    6    4   16     -0.30      0.00
    8    4   16     -0.39      0.00
   10    4   16      1.37      0.00
   12    4   16      1.80      0.00
  -35    5   16     -2.56      0.00
  -33    5   16     -3.53      0.00
  -31    5   16     -2.19      0.00
  -29    5   16     -0.04      0.00
  -27    5   16      1.53      0.00
  -25    5   16     -0.69      0.00
  -23    5   16     -2.86      0.00
  -21    5   16     -2.63      0.00
  -19    5   16      0.16      0.00
  -17    5   16      7.41      0.00
  -15    5   16      7.38      0.00
  -13    5   16      6.24      0.00
  -11    5   16      8.07      0.00
   -9    5   16     -0.25      0.00
   -7    5   16     -1.86      0.00
   -5    5   16      0.39      0.00
   -3    5   16     -4.74      0.00
   -1    5   16     -0.93      0.00
    1    5   16      3.81      0.00
    3    5   16      2.78      0.00
    5    5   16      0.84      0.00
    7    5   16     -0.89      0.00
    9    5   16      1.32      0.00
   11    5   16      0.81      0.00
  -34    6   16      0.01      0.00
  -32    6   16     -2.37      0.00
  -30    6   16     -4.50      0.00
  -28    6   16      0.47      0.00
  -26    6   16      5.01      0.00
  -24    6   16      0.18      0.00
  -22    6   16     -5.15      0.00
  -20    6   16     -3.07      0.00
  -18    6   16      2.41      0.00
  -16    6   16      8.61      0.00
  -14    6   16      7.27      0.00
  -12    6   16      2.83      0.00
  -10    6   16      3.57      0.00
   -8    6   16      0.39      0.00
   -6    6   16     -1.74      0.00
   -4    6   16     -0.04      0.00
   -2    6   16     -0.24      0.00
    0    6   16      1.39      0.00
    2    6   16      1.82      0.00
    4    6   16     -0.54      0.00
    6    6   16     -1.05      0.00
    8    6   16      0.74      0.00
   10    6   16      0.76      0.00
  -31    7   16     -3.83      0.00
  -29    7   16     -2.07      0.00
  -27    7   16      3.02      0.00
  -25    7   16      3.82      0.00
  -23    7   16     -2.23      0.00
  -21    7   16     -4.21      0.00
  -19    7   16     -1.20      0.00
  -17    7   16      0.87      0.00
  -15    7   16      7.01      0.00
  -13    7   16      2.90      0.00
  -11    7   16     -2.38      0.00
   -9    7   16      4.83      0.00
   -7    7   16      0.68      0.00
   -5    7   16     -3.09      0.00
   -3    7   16      2.40      0.00
   -1    7   16      0.64      0.00
    1    7   16      0.05      0.00
    3    7   16     -0.53      0.00
    5    7   16     -3.02      0.00
    7    7   16     -0.40      0.00
    9    7   16      0.78      0.00
  -30    8   16     -1.35      0.00
  -28    8   16      0.46      0.00
  -26    8   16      1.48      0.00
  -24    8   16     -0.79      0.00
  -22    8   16     -1.39      0.00
  -20    8   16     -0.53      0.00
  -18    8   16     -2.15      0.00
  -16    8   16     -0.43      0.00
  -14    8   16      0.67      0.00
  -12    8   16     -1.86      0.00
  -10    8   16      1.31      0.00
   -8    8   16      2.50      0.00
   -6    8   16     -1.12      0.00
   -4    8   16     -0.85      0.00
   -2    8   16     -0.37      0.00
    0    8   16     -0.63      0.00
    2    8   16     -1.13      0.00
    4    8   16     -1.99      0.00
    6    8   16     -1.08      0.00
  -27    9   16      0.12      0.00
  -25    9   16     -1.32      0.00
  -23    9   16     -0.94      0.00
  -21    9   16      0.67      0.00
  -19    9   16     -0.20      0.00
  -17    9   16     -1.09      0.00
  -15    9   16     -4.45      0.00
  -13    9   16     -3.28      0.00
  -11    9   16      2.14      0.00
   -9    9   16      0.15      0.00
   -7    9   16     -0.32      0.00
   -5    9   16      0.62      0.00
   -3    9   16     -2.18      0.00
   -1    9   16     -1.34      0.00
    1    9   16     -1.34      0.00
    3    9   16     -1.68      0.00
  -24   10   16     -0.58      0.00
  -22   10   16      0.65      0.00
  -20   10   16      0.03      0.00
  -18   10   16      0.88      0.00
  -16   10   16     -2.87      0.00
  -14   10   16     -3.82      0.00
  -12   10   16      0.91      0.00
  -10   10   16     -0.46      0.00
   -8   10   16     -0.61      0.00
   -6   10   16      1.47      0.00
   -4   10   16     -0.21      0.00
   -2   10   16     -1.19      0.00
    0   10   16     -1.26      0.00
  -17   11   16     -0.10      0.00
  -15   11   16     -1.15      0.00
  -13   11   16      0.47      0.00
  -11   11   16     -1.09      0.00
   -9   11   16     -1.16      0.00
   -7   11   16      1.46      0.00
    0    0    0      0.00      0.00
# SQUEEZE RESULTS (Version =  70515)
# Note: Data are Listed for all Voids in the P1 Unit Cell
# i.e. Centre of Gravity, Solvent Accessible Volume,
# Recovered number of Electrons in the Void and
# Details about the Squeezed Material
loop_
  _platon_squeeze_void_nr
  _platon_squeeze_void_average_x
  _platon_squeeze_void_average_y
  _platon_squeeze_void_average_z
  _platon_squeeze_void_volume
  _platon_squeeze_void_count_electrons
  _platon_squeeze_void_content
   1  0.000  0.000 -0.005       935       376 ' '
   2  0.500  0.500  1.082       935       376 ' '
# Missing Reflections Below sin(th)/lambda = 0.25
loop_
  _platon_missing_refln_index_h
  _platon_missing_refln_index_k
  _platon_missing_refln_index_l
  _platon_missing_refln_theta
    2    0    0     1.208
    4    4    0     6.197
    4    6    0     8.912
   -1    1    1     1.950
   -3    3    1     4.682
    5    3    1     5.662
   -8    6    1     9.742
   -2    6    1     8.710
  -14    0    2     8.055
  -10    2    2     6.476
   -5    5    2     7.914
   -4    6    2     9.111
  -16    2    3     9.719
    2    0    4     6.076
    4    0    6     9.450
_platon_squeeze_void_probe_radius                  1.20
_platon_squeeze_details
;
_olex2_submission_special_instructions 'No special instructions were received'
loop_
_space_group_symop_operation_xyz
'x, y, z'
'-x, y, -z+1/2'
'x+1/2, y+1/2, z'
'-x+1/2, y+1/2, -z+1/2'
'-x, -y, -z'
'x, -y, z-1/2'
'-x+1/2, -y+1/2, -z'
'x+1/2, -y+1/2, z-1/2'
loop_
_atom_site_label
_atom_site_type_symbol
_atom_site_fract_x
_atom_site_fract_y
_atom_site_fract_z
_atom_site_U_iso_or_equiv
_atom_site_adp_type
_atom_site_occupancy
_atom_site_site_symmetry_order
_atom_site_calc_flag
_atom_site_refinement_flags_posn
_atom_site_refinement_flags_adp
_atom_site_refinement_flags_occupancy
_atom_site_disorder_assembly
_atom_site_disorder_group
Cu1 Cu 0.5000 1.0000 0.5000 0.0586(6) Uani 1 2 d S T P A .
O2 O 0.87901(16) 0.7687(5) 0.6370(4) 0.0749(19) Uani 1 1 d . . . . .
O4 O 0.46853(19) 0.9562(5) 0.6166(4) 0.0707(18) Uani 1 1 d . . . . .
O3 O 0.80838(17) 0.4319(5) 0.3027(4) 0.0664(17) Uani 1 1 d . . . . .
N2 N 0.75293(19) 0.5113(4) 0.3052(4) 0.0516(17) Uani 1 1 d . . . . .
H2 H 0.7347 0.5525 0.2778 0.062 Uiso 1 1 calc R . . . .
N6 N 0.63872(18) 0.6380(5) 0.5547(4) 0.0558(18) Uani 1 1 d . . . . .
H6 H 0.6366 0.6721 0.5058 0.067 Uiso 1 1 calc R . . . .
N4 N 0.83293(18) 0.6830(5) 0.6775(4) 0.0515(18) Uani 1 1 d . . . . .
H4 H 0.8291 0.6410 0.7156 0.062 Uiso 1 1 calc R . . . .
N3 N 0.96084(18) 0.5739(5) 0.9002(4) 0.0458(16) Uani 1 1 d . . . . .
C3 C 0.7327(2) 0.6398(5) 0.5910(4) 0.044(2) Uani 1 1 d . . . . .
N5 N 0.5352(2) 0.8891(6) 0.5339(4) 0.063(2) Uani 1 1 d . . . . .
C1 C 0.7062(2) 0.5222(5) 0.4718(5) 0.0444(19) Uani 1 1 d . . . . .
C4 C 0.7672(2) 0.6442(5) 0.5643(5) 0.0445(19) Uani 1 1 d . . . . .
C6 C 0.7422(2) 0.5223(5) 0.4536(5) 0.046(2) Uani 1 1 d . . . . .
C5 C 0.7729(2) 0.5830(6) 0.5008(5) 0.047(2) Uani 1 1 d . . . . .
C20 C 0.9016(2) 0.6615(6) 0.7629(5) 0.0430(19) Uani 1 1 d . . . . .
C2 C 0.7028(2) 0.5753(6) 0.5448(5) 0.052(2) Uani 1 1 d . . . . .
C13 C 0.7840(3) 0.4997(6) 0.2733(5) 0.055(2) Uani 1 1 d . . . . .
C8 C 0.6675(2) 0.5619(6) 0.5784(5) 0.061(2) Uani 1 1 d . . . . .
H8A H 0.6540 0.5030 0.5525 0.073 Uiso 1 1 calc R . . . .
H8B H 0.6772 0.5551 0.6458 0.073 Uiso 1 1 calc R . . . .
O1 O 0.6189(2) 0.6147(6) 0.6763(5) 0.118(3) Uani 1 1 d . . . . .
C19 C 0.8699(2) 0.7117(6) 0.6865(5) 0.052(2) Uani 1 1 d . . . . .
C7 C 0.7480(2) 0.4599(6) 0.3818(5) 0.057(2) Uani 1 1 d . . . . .
H7A H 0.7717 0.4205 0.4089 0.069 Uiso 1 1 calc R . . . .
H7B H 0.7247 0.4179 0.3595 0.069 Uiso 1 1 calc R . . . .
C14 C 0.7897(2) 0.5649(5) 0.2083(5) 0.049(2) Uani 1 1 d . . . . .
C26 C 0.5880(2) 0.7378(6) 0.5805(5) 0.054(2) Uani 1 1 d . . . . .
C25 C 0.6159(3) 0.6565(6) 0.6051(6) 0.065(3) Uani 1 1 d . . . . .
C9 C 0.7987(2) 0.7210(6) 0.6048(5) 0.062(2) Uani 1 1 d . . . . .
H9A H 0.8079 0.7475 0.5556 0.074 Uiso 1 1 calc R . . . .
H9B H 0.7865 0.7721 0.6302 0.074 Uiso 1 1 calc R . . . .
C15 C 0.7587(3) 0.6225(7) 0.1539(6) 0.072(3) Uani 1 1 d . . . . .
H15 H 0.7327 0.6179 0.1582 0.086 Uiso 1 1 calc R . . . .
C12 C 0.7290(3) 0.7002(7) 0.6667(5) 0.074(3) Uani 1 1 d . . . . .
H12A H 0.7549 0.7060 0.7138 0.110 Uiso 1 1 calc GR . . . .
H12B H 0.7100 0.6721 0.6935 0.110 Uiso 1 1 calc GR . . . .
H12C H 0.7195 0.7623 0.6426 0.110 Uiso 1 1 calc GR . . . .
C10 C 0.8131(2) 0.5788(6) 0.4834(6) 0.065(2) Uani 1 1 d . . . . .
H10A H 0.8108 0.6076 0.4242 0.098 Uiso 1 1 calc GR . . . .
H10B H 0.8213 0.5134 0.4829 0.098 Uiso 1 1 calc GR . . . .
H10C H 0.8330 0.6126 0.5321 0.098 Uiso 1 1 calc GR . . . .
C11 C 0.6722(3) 0.4664(7) 0.4147(6) 0.078(3) Uani 1 1 d . . . . .
H11A H 0.6720 0.4675 0.3509 0.116 Uiso 1 1 calc GR . . . .
H11B H 0.6474 0.4930 0.4187 0.116 Uiso 1 1 calc GR . . . .
H11C H 0.6748 0.4017 0.4367 0.116 Uiso 1 1 calc GR . . . .
N1 N 0.8013(3) 0.6991(6) 0.0831(6) 0.090(3) Uani 1 1 d . . . . .
N7 N 0.4420(4) 0.9098(10) 0.6305(8) 0.118(4) Uani 1 1 d . U . . .
C16 C 0.7670(4) 0.6842(8) 0.0955(6) 0.088(3) Uani 1 1 d . . . . .
H16 H 0.7454 0.7209 0.0595 0.106 Uiso 1 1 calc R . . . .
C18 C 0.8259(3) 0.5816(7) 0.1970(8) 0.083(3) Uani 1 1 d . . . . .
H18 H 0.8485 0.5495 0.2351 0.099 Uiso 1 1 calc R . . . .
C17 C 0.8306(4) 0.6421(9) 0.1335(8) 0.100(4) Uani 1 1 d . . . . .
H17 H 0.8557 0.6447 0.1238 0.119 Uiso 1 1 calc R . . . .
C24A C 0.8952(5) 0.6180(16) 0.8355(12) 0.054(5) Uani 0.526(13) 1 d . . . A 1
H24A H 0.8694 0.6179 0.8415 0.064 Uiso 0.526(13) 1 calc R . . A 1
C27A C 0.5747(5) 0.7840(14) 0.6469(12) 0.050(5) Uani 0.526(13) 1 d . . . A 1
H27A H 0.5862 0.7707 0.7103 0.060 Uiso 0.526(13) 1 calc R . . A 1
C21A C 0.9433(5) 0.6720(15) 0.7688(11) 0.056(5) Uani 0.526(13) 1 d . . . A 1
H21A H 0.9512 0.7086 0.7261 0.067 Uiso 0.526(13) 1 calc R . . A 1
C30A C 0.5708(6) 0.7646(14) 0.4906(13) 0.067(6) Uani 0.526(13) 1 d . . . A 1
H30A H 0.5776 0.7334 0.4431 0.080 Uiso 0.526(13) 1 calc R . . A 1
C22A C 0.9707(5) 0.6255(15) 0.8404(13) 0.065(6) Uani 0.526(13) 1 d . . . A 1
H22A H 0.9980 0.6314 0.8464 0.078 Uiso 0.526(13) 1 calc R . . A 1
C30B C 0.5282(8) 0.812(2) 0.571(2) 0.087(8) Uani 0.474(13) 1 d . . . A 2
H30B H 0.5035 0.8083 0.5822 0.105 Uiso 0.474(13) 1 calc R . . A 2
C23A C 0.9250(5) 0.5754(19) 0.8985(11) 0.062(6) Uani 0.526(13) 1 d . . . A 1
H23A H 0.9187 0.5433 0.9462 0.075 Uiso 0.526(13) 1 calc R . . A 1
C24B C 0.9235(6) 0.6037(16) 0.7411(11) 0.057(6) Uani 0.474(13) 1 d . . . A 2
H24B H 0.9210 0.5929 0.6786 0.069 Uiso 0.474(13) 1 calc R . . A 2
C28B C 0.5980(8) 0.8120(19) 0.5392(19) 0.087(8) Uani 0.474(13) 1 d . . . A 2
H28B H 0.6216 0.8113 0.5229 0.104 Uiso 0.474(13) 1 calc R . . A 2
C29A C 0.5445(5) 0.8343(13) 0.4703(10) 0.066(6) Uani 0.526(13) 1 d . . . A 1
H29A H 0.5313 0.8470 0.4075 0.079 Uiso 0.526(13) 1 calc R . . A 1
O5A O 0.4460(7) 0.823(2) 0.6274(19) 0.212(12) Uiso 0.64(3) 1 d . U . B 1
O6A O 0.4213(7) 0.9527(18) 0.669(2) 0.211(13) Uiso 0.64(3) 1 d . U . B 1
C29B C 0.5526(9) 0.7371(17) 0.594(2) 0.093(9) Uani 0.474(13) 1 d . . . A 2
H29B H 0.5446 0.6837 0.6206 0.112 Uiso 0.474(13) 1 calc R . . A 2
C23B C 0.9520(6) 0.555(3) 0.8108(12) 0.094(10) Uani 0.474(13) 1 d . . . A 2
H23B H 0.9659 0.5055 0.7934 0.113 Uiso 0.474(13) 1 calc R . . A 2
C21B C 0.9064(7) 0.690(3) 0.8493(17) 0.092(9) Uani 0.474(13) 1 d . . . A 2
H21B H 0.8910 0.7381 0.8643 0.111 Uiso 0.474(13) 1 calc R . . A 2
C22B C 0.9371(8) 0.6406(19) 0.9155(15) 0.071(7) Uani 0.474(13) 1 d . . . A 2
H22B H 0.9413 0.6567 0.9778 0.085 Uiso 0.474(13) 1 calc R . . A 2
C27B C 0.5731(7) 0.8905(14) 0.5201(15) 0.076(7) Uani 0.474(13) 1 d . . . A 2
H27B H 0.5816 0.9458 0.4976 0.091 Uiso 0.474(13) 1 calc R . . A 2
C28A C 0.5472(6) 0.8436(14) 0.6193(13) 0.053(5) Uani 0.526(13) 1 d . . . A 1
H28A H 0.5331 0.8593 0.6606 0.064 Uiso 0.526(13) 1 calc R . . A 1
O5B O 0.4067(10) 0.9393(19) 0.582(2) 0.131(16) Uiso 0.36(3) 1 d . . . B 2
O6B O 0.4419(11) 0.850(3) 0.683(3) 0.174(17) Uiso 0.36(3) 1 d . . . B 2
loop_
_atom_site_aniso_label
_atom_site_aniso_U_11
_atom_site_aniso_U_22
_atom_site_aniso_U_33
_atom_site_aniso_U_23
_atom_site_aniso_U_13
_atom_site_aniso_U_12
Cu1 0.0422(9) 0.0772(12) 0.0401(8) -0.0176(7) -0.0106(6) 0.0117(7)
O2 0.063(4) 0.094(5) 0.069(4) 0.049(4) 0.022(3) 0.021(3)
O4 0.058(4) 0.100(5) 0.053(4) -0.001(4) 0.017(3) -0.011(4)
O3 0.056(4) 0.086(5) 0.057(4) -0.009(3) 0.018(3) 0.007(4)
N2 0.054(4) 0.059(5) 0.040(4) -0.005(3) 0.013(3) 0.012(3)
N6 0.057(4) 0.067(5) 0.044(4) 0.023(4) 0.016(3) 0.028(4)
N4 0.050(4) 0.065(5) 0.026(3) 0.016(3) -0.008(3) -0.001(3)
N3 0.036(4) 0.051(5) 0.044(4) 0.004(3) 0.003(3) -0.004(3)
C3 0.053(5) 0.043(5) 0.024(4) 0.004(4) -0.005(4) 0.024(4)
N5 0.042(4) 0.092(7) 0.045(5) -0.011(4) 0.002(3) 0.008(4)
C1 0.033(4) 0.053(5) 0.038(4) 0.001(4) -0.001(3) 0.007(4)
C4 0.042(5) 0.049(5) 0.027(4) 0.006(4) -0.011(3) 0.011(4)
C6 0.050(5) 0.050(5) 0.032(4) 0.003(4) 0.005(4) 0.013(4)
C5 0.039(4) 0.072(6) 0.022(4) 0.010(4) -0.004(3) 0.010(4)
C20 0.039(5) 0.049(5) 0.035(5) 0.009(4) 0.003(4) -0.001(4)
C2 0.052(5) 0.060(6) 0.038(5) 0.023(4) 0.004(4) 0.025(4)
C13 0.054(5) 0.064(6) 0.044(5) -0.022(5) 0.013(4) -0.008(5)
C8 0.061(5) 0.076(7) 0.048(5) 0.017(5) 0.019(4) 0.018(5)
O1 0.140(7) 0.135(7) 0.115(6) 0.068(5) 0.089(5) 0.086(6)
C19 0.047(5) 0.074(6) 0.028(4) 0.013(4) 0.003(4) 0.004(4)
C7 0.062(5) 0.062(6) 0.052(5) -0.001(5) 0.024(4) 0.013(4)
C14 0.064(6) 0.038(5) 0.050(5) -0.014(4) 0.026(4) 0.005(4)
C26 0.048(5) 0.073(7) 0.042(5) 0.021(5) 0.017(4) 0.010(5)
C25 0.075(6) 0.071(7) 0.056(6) 0.026(5) 0.033(5) 0.037(5)
C9 0.045(5) 0.088(7) 0.033(4) 0.012(4) -0.016(4) 0.010(5)
C15 0.079(7) 0.102(8) 0.038(5) 0.004(5) 0.024(5) -0.003(6)
C12 0.077(6) 0.102(7) 0.028(4) -0.001(5) -0.004(4) 0.036(6)
C10 0.051(5) 0.084(7) 0.052(5) -0.005(5) 0.004(4) 0.012(5)
C11 0.065(6) 0.084(7) 0.074(6) 0.002(6) 0.008(5) -0.001(5)
N1 0.109(8) 0.085(7) 0.084(6) 0.004(5) 0.042(6) -0.010(6)
N7 0.131(11) 0.129(11) 0.098(8) 0.004(9) 0.044(8) 0.014(9)
C16 0.096(9) 0.114(9) 0.051(6) 0.008(6) 0.019(6) 0.012(7)
C18 0.074(7) 0.081(8) 0.104(8) 0.008(6) 0.045(6) 0.017(6)
C17 0.082(8) 0.129(11) 0.100(9) 0.010(8) 0.046(7) 0.003(8)
C24A 0.033(10) 0.089(15) 0.043(10) 0.027(11) 0.017(8) 0.007(10)
C27A 0.062(12) 0.047(12) 0.045(10) 0.014(9) 0.023(9) 0.023(11)
C21A 0.033(9) 0.074(15) 0.056(11) 0.015(10) 0.007(8) 0.018(9)
C30A 0.063(13) 0.066(14) 0.068(13) 0.004(11) 0.015(10) 0.033(12)
C22A 0.036(10) 0.100(16) 0.051(11) 0.032(12) 0.003(9) -0.006(10)
C30B 0.062(16) 0.08(2) 0.11(2) -0.023(18) 0.018(16) -0.031(16)
C23A 0.030(11) 0.13(2) 0.027(9) 0.019(12) 0.003(7) 0.014(12)
C24B 0.068(14) 0.067(15) 0.025(9) 0.015(10) -0.002(9) 0.026(13)
C28B 0.076(18) 0.09(2) 0.11(2) 0.023(18) 0.054(17) 0.055(16)
C29A 0.083(14) 0.078(14) 0.035(9) -0.003(9) 0.018(9) 0.041(12)
C29B 0.10(2) 0.047(16) 0.15(3) 0.040(18) 0.08(2) 0.036(16)
C23B 0.045(13) 0.20(3) 0.030(11) -0.006(15) -0.002(9) 0.028(17)
C21B 0.067(16) 0.15(3) 0.058(16) 0.029(19) 0.012(12) 0.026(18)
C22B 0.073(17) 0.077(18) 0.045(13) 0.002(13) -0.007(11) -0.005(15)
C27B 0.090(17) 0.038(12) 0.100(17) 0.000(12) 0.030(14) -0.015(12)
C28A 0.044(12) 0.067(14) 0.052(11) -0.008(11) 0.019(9) 0.022(11)
loop_
_atom_type_symbol
_atom_type_description
_atom_type_scat_dispersion_real
_atom_type_scat_dispersion_imag
_atom_type_scat_source
C C 0.0033 0.0016 'International Tables Vol C Tables 4.2.6.8 and 6.1.1.4'
H H 0.0000 0.0000 'International Tables Vol C Tables 4.2.6.8 and 6.1.1.4'
Cu Cu 0.3201 1.2651 'International Tables Vol C Tables 4.2.6.8 and 6.1.1.4'
N N 0.0061 0.0033 'International Tables Vol C Tables 4.2.6.8 and 6.1.1.4'
O O 0.0106 0.0060 'International Tables Vol C Tables 4.2.6.8 and 6.1.1.4'
loop_
_geom_angle_atom_site_label_1
_geom_angle_atom_site_label_2
_geom_angle_atom_site_label_3
_geom_angle
_geom_angle_site_symmetry_1
_geom_angle_site_symmetry_3
N3 Cu1 N3 180.0(3) 4_656 8_465
N5 Cu1 N3 89.6(3) . 4_656
N5 Cu1 N3 90.4(3) 5_676 4_656
N5 Cu1 N3 90.4(3) . 8_465
N5 Cu1 N3 89.6(3) 5_676 8_465
N5 Cu1 N5 180.0(5) . 5_676
C13 N2 H2 118.1 . .
C13 N2 C7 123.8(7) . .
C7 N2 H2 118.1 . .
C8 N6 H6 119.4 . .
C25 N6 H6 119.4 . .
C25 N6 C8 121.2(6) . .
C19 N4 H4 119.6 . .
C19 N4 C9 120.8(6) . .
C9 N4 H4 119.6 . .
C22A N3 Cu1 123.9(9) . 4_646
C23A N3 Cu1 118.2(10) . 4_646
C23A N3 C22A 117.8(13) . .
C23B N3 Cu1 124.1(12) . 4_646
C22B N3 Cu1 124.0(10) . 4_646
C22B N3 C23B 111.5(15) . .
C4 C3 C2 117.7(7) . .
C4 C3 C12 120.1(7) . .
C2 C3 C12 122.2(8) . .
C30B N5 Cu1 126.8(13) . .
C30B N5 C27B 113.6(16) . .
C29A N5 Cu1 122.8(8) . .
C29A N5 C28A 109.5(11) . .
C27B N5 Cu1 119.6(10) . .
C28A N5 Cu1 126.5(8) . .
C6 C1 C2 118.7(7) . .
C6 C1 C11 120.6(7) . .
C2 C1 C11 120.8(7) . .
C3 C4 C9 119.7(7) . .
C5 C4 C3 120.9(7) . .
C5 C4 C9 119.3(7) . .
C1 C6 C5 120.6(7) . .
C1 C6 C7 120.0(7) . .
C5 C6 C7 119.3(7) . .
C4 C5 C6 119.9(7) . .
C4 C5 C10 120.1(7) . .
C6 C5 C10 120.0(7) . .
C24A C20 C19 125.1(9) . .
C24A C20 C21A 115.1(11) . .
C21A C20 C19 119.1(8) . .
C24B C20 C19 118.3(10) . .
C24B C20 C21B 124.7(15) . .
C21B C20 C19 116.7(13) . .
C3 C2 C8 118.8(7) . .
C1 C2 C3 121.2(7) . .
C1 C2 C8 119.9(8) . .
O3 C13 N2 120.1(8) . .
O3 C13 C14 120.7(7) . .
N2 C13 C14 119.1(8) . .
N6 C8 C2 114.4(7) . .
N6 C8 H8A 108.7 . .
N6 C8 H8B 108.7 . .
C2 C8 H8A 108.7 . .
C2 C8 H8B 108.7 . .
H8A C8 H8B 107.6 . .
O2 C19 N4 125.5(7) . .
O2 C19 C20 121.0(7) . .
N4 C19 C20 113.3(7) . .
N2 C7 C6 112.5(7) . .
N2 C7 H7A 109.1 . .
N2 C7 H7B 109.1 . .
C6 C7 H7A 109.1 . .
C6 C7 H7B 109.1 . .
H7A C7 H7B 107.8 . .
C15 C14 C13 122.6(8) . .
C18 C14 C13 123.3(9) . .
C18 C14 C15 114.0(8) . .
C27A C26 C25 121.6(9) . .
C30A C26 C25 121.3(10) . .
C30A C26 C27A 116.8(11) . .
C28B C26 C25 118.9(11) . .
C29B C26 C25 122.2(12) . .
C29B C26 C28B 118.8(15) . .
N6 C25 C26 119.3(7) . .
O1 C25 N6 122.3(7) . .
O1 C25 C26 118.1(7) . .
N4 C9 C4 111.2(7) . .
N4 C9 H9A 109.4 . .
N4 C9 H9B 109.4 . .
C4 C9 H9A 109.4 . .
C4 C9 H9B 109.4 . .
H9A C9 H9B 108.0 . .
C14 C15 H15 120.7 . .
C16 C15 C14 118.7(9) . .
C16 C15 H15 120.7 . .
C3 C12 H12A 109.5 . .
C3 C12 H12B 109.5 . .
C3 C12 H12C 109.5 . .
H12A C12 H12B 109.5 . .
H12A C12 H12C 109.5 . .
H12B C12 H12C 109.5 . .
C5 C10 H10A 109.5 . .
C5 C10 H10B 109.5 . .
C5 C10 H10C 109.5 . .
H10A C10 H10B 109.5 . .
H10A C10 H10C 109.5 . .
H10B C10 H10C 109.5 . .
C1 C11 H11A 109.5 . .
C1 C11 H11B 109.5 . .
C1 C11 H11C 109.5 . .
H11A C11 H11B 109.5 . .
H11A C11 H11C 109.5 . .
H11B C11 H11C 109.5 . .
C16 N1 C17 113.6(9) . .
O4 N7 O5A 115.3(16) . .
O4 N7 O6A 114.8(16) . .
O4 N7 O5B 112.2(16) . .
O5A N7 O6A 127(2) . .
O6B N7 O4 133(2) . .
O6B N7 O5B 114(2) . .
C15 C16 H16 116.2 . .
N1 C16 C15 127.5(10) . .
N1 C16 H16 116.2 . .
C14 C18 H18 118.8 . .
C17 C18 C14 122.5(10) . .
C17 C18 H18 118.8 . .
N1 C17 H17 118.3 . .
C18 C17 N1 123.3(10) . .
C18 C17 H17 118.3 . .
C20 C24A H24A 119.8 . .
C23A C24A C20 120.4(15) . .
C23A C24A H24A 119.8 . .
C26 C27A H27A 121.0 . .
C28A C27A C26 118.0(15) . .
C28A C27A H27A 121.0 . .
C20 C21A H21A 121.9 . .
C22A C21A C20 116.3(14) . .
C22A C21A H21A 121.9 . .
C26 C30A H30A 120.0 . .
C29A C30A C26 120.0(15) . .
C29A C30A H30A 120.0 . .
N3 C22A C21A 123.5(15) . .
N3 C22A H22A 118.2 . .
C21A C22A H22A 118.2 . .
N5 C30B H30B 116.9 . .
N5 C30B C29B 126(2) . .
C29B C30B H30B 116.9 . .
N3 C23A C24A 125.7(16) . .
N3 C23A H23A 117.1 . .
C24A C23A H23A 117.1 . .
C20 C24B H24B 120.7 . .
C20 C24B C23B 118.7(16) . .
C23B C24B H24B 120.7 . .
C26 C28B H28B 120.3 . .
C26 C28B C27B 119.4(18) . .
C27B C28B H28B 120.3 . .
N5 C29A H29A 117.7 . .
C30A C29A N5 124.5(14) . .
C30A C29A H29A 117.7 . .
C26 C29B C30B 120(2) . .
C26 C29B H29B 119.9 . .
C30B C29B H29B 119.9 . .
N3 C23B C24B 124(2) . .
N3 C23B H23B 117.8 . .
C24B C23B H23B 117.8 . .
C20 C21B H21B 123.7 . .
C20 C21B C22B 113(2) . .
C22B C21B H21B 123.7 . .
N3 C22B C21B 128(2) . .
N3 C22B H22B 116.2 . .
C21B C22B H22B 116.2 . .
N5 C27B H27B 119.4 . .
C28B C27B N5 121.2(18) . .
C28B C27B H27B 119.4 . .
N5 C28A H28A 116.6 . .
C27A C28A N5 126.8(14) . .
C27A C28A H28A 116.6 . .
loop_
_geom_bond_atom_site_label_1
_geom_bond_atom_site_label_2
_geom_bond_distance
_geom_bond_site_symmetry_2
Cu1 N3 2.016(6) 8_465
Cu1 N3 2.016(6) 4_656
Cu1 N5 1.986(8) .
Cu1 N5 1.986(8) 5_676
O2 C19 1.228(9) .
O4 N7 1.225(13) .
O3 C13 1.284(10) .
N2 H2 0.8800 .
N2 C13 1.351(10) .
N2 C7 1.447(10) .
N6 H6 0.8800 .
N6 C8 1.459(9) .
N6 C25 1.313(9) .
N4 H4 0.8800 .
N4 C19 1.340(9) .
N4 C9 1.472(9) .
N3 Cu1 2.016(6) 4_646
N3 C22A 1.310(17) .
N3 C23A 1.264(18) .
N3 C23B 1.34(2) .
N3 C22B 1.34(3) .
C3 C4 1.413(10) .
C3 C2 1.416(11) .
C3 C12 1.490(10) .
N5 C30B 1.29(3) .
N5 C29A 1.373(16) .
N5 C27B 1.42(2) .
N5 C28A 1.407(19) .
C1 C6 1.392(10) .
C1 C2 1.392(10) .
C1 C11 1.483(11) .
C4 C5 1.373(10) .
C4 C9 1.551(11) .
C6 C5 1.404(10) .
C6 C7 1.485(10) .
C5 C10 1.535(10) .
C20 C19 1.528(10) .
C20 C24A 1.360(18) .
C20 C21A 1.461(18) .
C20 C24B 1.251(18) .
C20 C21B 1.35(3) .
C2 C8 1.511(10) .
C13 C14 1.428(11) .
C8 H8A 0.9900 .
C8 H8B 0.9900 .
O1 C25 1.224(9) .
C7 H7A 0.9900 .
C7 H7B 0.9900 .
C14 C15 1.418(12) .
C14 C18 1.372(11) .
C26 C25 1.496(11) .
C26 C27A 1.418(19) .
C26 C30A 1.38(2) .
C26 C28B 1.34(3) .
C26 C29B 1.34(3) .
C9 H9A 0.9900 .
C9 H9B 0.9900 .
C15 H15 0.9500 .
C15 C16 1.357(13) .
C12 H12A 0.9800 .
C12 H12B 0.9800 .
C12 H12C 0.9800 .
C10 H10A 0.9800 .
C10 H10B 0.9800 .
C10 H10C 0.9800 .
C11 H11A 0.9800 .
C11 H11B 0.9800 .
C11 H11C 0.9800 .
N1 C16 1.309(12) .
N1 C17 1.357(13) .
N7 O5A 1.25(3) .
N7 O6A 1.25(3) .
N7 O5B 1.31(3) .
N7 O6B 1.18(4) .
C16 H16 0.9500 .
C18 H18 0.9500 .
C18 C17 1.355(14) .
C17 H17 0.9500 .
C24A H24A 0.9500 .
C24A C23A 1.34(2) .
C27A H27A 0.9500 .
C27A C28A 1.26(2) .
C21A H21A 0.9500 .
C21A C22A 1.39(2) .
C30A H30A 0.9500 .
C30A C29A 1.33(2) .
C22A H22A 0.9500 .
C30B H30B 0.9500 .
C30B C29B 1.36(3) .
C23A H23A 0.9500 .
C24B H24B 0.9500 .
C24B C23B 1.40(3) .
C28B H28B 0.9500 .
C28B C27B 1.40(3) .
C29A H29A 0.9500 .
C29B H29B 0.9500 .
C23B H23B 0.9500 .
C21B H21B 0.9500 .
C21B C22B 1.43(3) .
C22B H22B 0.9500 .
C27B H27B 0.9500 .
C28A H28A 0.9500 .
loop_
_geom_torsion_atom_site_label_1
_geom_torsion_atom_site_label_2
_geom_torsion_atom_site_label_3
_geom_torsion_atom_site_label_4
_geom_torsion
_geom_torsion_site_symmetry_1
Cu1 N3 C22A C21A 176.3(14) 4_646
Cu1 N3 C23A C24A -177.5(19) 4_646
Cu1 N3 C23B C24B 177.2(19) 4_646
Cu1 N3 C22B C21B -174(2) 4_646
Cu1 N5 C30B C29B -179(2) .
Cu1 N5 C29A C30A 173.7(16) .
Cu1 N5 C27B C28B -176.9(19) .
Cu1 N5 C28A C27A -166.6(18) .
O3 C13 C14 C15 160.7(7) .
O3 C13 C14 C18 -23.4(12) .
N2 C13 C14 C15 -20.7(11) .
N2 C13 C14 C18 155.1(8) .
C3 C4 C5 C6 7.5(10) .
C3 C4 C5 C10 -170.6(7) .
C3 C4 C9 N4 101.9(8) .
C3 C2 C8 N6 75.2(9) .
N5 C30B C29B C26 0(5) .
C1 C6 C5 C4 -1.2(11) .
C1 C6 C5 C10 176.9(7) .
C1 C6 C7 N2 114.3(8) .
C1 C2 C8 N6 -107.0(8) .
C4 C3 C2 C1 -4.0(10) .
C4 C3 C2 C8 173.8(6) .
C6 C1 C2 C3 10.1(11) .
C6 C1 C2 C8 -167.7(7) .
C5 C4 C9 N4 -79.9(8) .
C5 C6 C7 N2 -63.9(9) .
C20 C24A C23A N3 3(4) .
C20 C21A C22A N3 0(3) .
C20 C24B C23B N3 -8(4) .
C20 C21B C22B N3 2(4) .
C2 C3 C4 C5 -4.9(10) .
C2 C3 C4 C9 173.2(6) .
C2 C1 C6 C5 -7.5(11) .
C2 C1 C6 C7 174.4(7) .
C13 N2 C7 C6 126.1(8) .
C13 C14 C15 C16 178.3(8) .
C13 C14 C18 C17 178.4(9) .
C8 N6 C25 O1 3.9(15) .
C8 N6 C25 C26 177.3(8) .
C19 N4 C9 C4 142.0(7) .
C19 C20 C24A C23A 179.5(17) .
C19 C20 C21A C22A 179.3(14) .
C19 C20 C24B C23B -178.1(19) .
C19 C20 C21B C22B -178.8(18) .
C7 N2 C13 O3 9.5(11) .
C7 N2 C13 C14 -169.1(7) .
C7 C6 C5 C4 177.0(7) .
C7 C6 C5 C10 -4.9(10) .
C14 C15 C16 N1 -1.0(15) .
C14 C18 C17 N1 7.8(18) .
C26 C27A C28A N5 -19(3) .
C26 C30A C29A N5 6(3) .
C26 C28B C27B N5 -7(4) .
C25 N6 C8 C2 -153.3(8) .
C25 C26 C27A C28A -170.6(16) .
C25 C26 C30A C29A 176.6(16) .
C25 C26 C28B C27B -176.7(19) .
C25 C26 C29B C30B -180(2) .
C9 N4 C19 O2 -1.1(13) .
C9 N4 C19 C20 -177.5(7) .
C9 C4 C5 C6 -170.6(6) .
C9 C4 C5 C10 11.3(10) .
C15 C14 C18 C17 -5.4(14) .
C12 C3 C4 C5 173.8(7) .
C12 C3 C4 C9 -8.1(10) .
C12 C3 C2 C1 177.3(7) .
C12 C3 C2 C8 -4.9(10) .
C11 C1 C6 C5 172.8(7) .
C11 C1 C6 C7 -5.4(11) .
C11 C1 C2 C3 -170.2(7) .
C11 C1 C2 C8 12.1(11) .
C16 N1 C17 C18 -5.9(16) .
C18 C14 C15 C16 2.1(12) .
C17 N1 C16 C15 2.6(16) .
C24A C20 C19 O2 161.1(14) .
C24A C20 C19 N4 -22.3(17) .
C24A C20 C21A C22A 9(2) .
C27A C26 C25 N6 -154.6(13) .
C27A C26 C25 O1 19.1(17) .
C27A C26 C30A C29A 3(3) .
C21A C20 C19 O2 -8.5(15) .
C21A C20 C19 N4 168.1(12) .
C21A C20 C24A C23A -11(3) .
C30A C26 C25 N6 32.5(18) .
C30A C26 C25 O1 -153.8(15) .
C30A C26 C27A C28A 3(3) .
C22A N3 C23A C24A 7(3) .
C30B N5 C27B C28B 4(3) .
C23A N3 C22A C21A -8(3) .
C24B C20 C19 O2 -68.2(17) .
C24B C20 C19 N4 108.4(15) .
C24B C20 C21B C22B -6(3) .
C28B C26 C25 N6 -30(2) .
C28B C26 C25 O1 143.7(18) .
C28B C26 C29B C30B -3(4) .
C29A N5 C28A C27A 26(3) .
C29B C26 C25 N6 147(2) .
C29B C26 C25 O1 -40(2) .
C29B C26 C28B C27B 7(4) .
C23B N3 C22B C21B -1(4) .
C21B C20 C19 O2 105.3(18) .
C21B C20 C19 N4 -78.1(18) .
C21B C20 C24B C23B 9(3) .
C22B N3 C23B C24B 5(3) .
C27B N5 C30B C29B -1(4) .
C28A N5 C29A C30A -19(3) .
