#------------------------------------------------------------------------------
#$Date: 2019-11-23 19:22:06 +0200 (Sat, 23 Nov 2019) $
#$Revision: 234623 $
#$URL: file:///home/coder/svn-repositories/cod/cif/7/12/52/7125241.cif $
#------------------------------------------------------------------------------
#
# This file is available in the Crystallography Open Database (COD),
# http://www.crystallography.net/
#
# All data on this site have been placed in the public domain by the
# contributors.
#
data_7125241
loop_
_publ_author_name
'Sarkar, Koushik'
'Paul, Mithun'
'Dastidar, Parthasarathi'
_publ_section_title
;
 Multifunctional single-layered vesicles derived from
 Cu(ii)-metal-organic-polyhedra.
;
_journal_issue                   89
_journal_name_full
'Chemical communications (Cambridge, England)'
_journal_page_first              13124
_journal_page_last               13127
_journal_paper_doi               10.1039/c6cc07804d
_journal_volume                  52
_journal_year                    2016
_chemical_formula_moiety         '0.5(C120 H120 Cu2 N24 O12), 2(B F4)'
_chemical_formula_sum            'C60 H60 B2 Cu F8 N12 O6'
_chemical_formula_weight         1282.36
_chemical_name_systematic        CP2
_space_group_crystal_system      monoclinic
_space_group_IT_number           15
_space_group_name_Hall           '-C 2yc'
_space_group_name_H-M_alt        'C 1 2/c 1'
_atom_sites_solution_hydrogens   geom
_audit_creation_date             2016-07-20
_audit_creation_method
;
Olex2 1.2
(compiled 2015.09.30 svn.r3233 for OlexSys, GUI svn.r5103)
;
_audit_update_record
;
2016-07-25 deposited with the CCDC.
2016-10-13 downloaded from the CCDC.
;
_cell_angle_alpha                90
_cell_angle_beta                 109.211(2)
_cell_angle_gamma                90
_cell_formula_units_Z            4
_cell_length_a                   35.729(3)
_cell_length_b                   13.9528(11)
_cell_length_c                   15.8889(13)
_cell_measurement_reflns_used    2943
_cell_measurement_temperature    100
_cell_measurement_theta_max      18.116
_cell_measurement_theta_min      2.208
_cell_volume                     7479.8(11)
_computing_cell_refinement       'SAINT v8.34A (Bruker, 2013)'
_computing_data_reduction        'SAINT v8.34A (Bruker, 2013)'
_computing_molecular_graphics    'Olex2 (Dolomanov et al., 2009)'
_computing_publication_material  'Olex2 (Dolomanov et al., 2009)'
_computing_structure_refinement  'XL (Sheldrick, 2008)'
_computing_structure_solution    'ShelXS (Sheldrick, 2008)'
_diffrn_ambient_temperature      100
_diffrn_measured_fraction_theta_full 0.656
_diffrn_measured_fraction_theta_max 1.000
_diffrn_measurement_device_type  'Bruker APEX-II CCD'
_diffrn_measurement_method       '\f and \w scans'
_diffrn_radiation_type           MoK\a
_diffrn_radiation_wavelength     0.71073
_diffrn_reflns_av_R_equivalents  0.0732
_diffrn_reflns_av_unetI/netI     0.0660
_diffrn_reflns_Laue_measured_fraction_full 0.656
_diffrn_reflns_Laue_measured_fraction_max 1.000
_diffrn_reflns_limit_h_max       37
_diffrn_reflns_limit_h_min       -37
_diffrn_reflns_limit_k_max       14
_diffrn_reflns_limit_k_min       -14
_diffrn_reflns_limit_l_max       16
_diffrn_reflns_limit_l_min       -16
_diffrn_reflns_number            25737
_diffrn_reflns_point_group_measured_fraction_full 0.656
_diffrn_reflns_point_group_measured_fraction_max 1.000
_diffrn_reflns_theta_full        25.242
_diffrn_reflns_theta_max         21.726
_diffrn_reflns_theta_min         1.207
_diffrn_standards_number         0
_exptl_absorpt_coefficient_mu    0.362
_exptl_absorpt_correction_T_max  0.7447
_exptl_absorpt_correction_T_min  0.6678
_exptl_absorpt_correction_type   multi-scan
_exptl_absorpt_process_details
;
SADABS-2014/4 (Bruker,2014/4) was used for absorption correction.
wR2(int) was 0.0713 before and 0.0527 after correction.
The Ratio of minimum to maximum transmission is 0.8967.
The \l/2 correction factor is 0.00150.
;
_exptl_crystal_colour            'light violet'
_exptl_crystal_colour_modifier   light
_exptl_crystal_colour_primary    violet
_exptl_crystal_density_diffrn    1.139
_exptl_crystal_description       block
_exptl_crystal_F_000             2652
_exptl_crystal_size_max          0.32
_exptl_crystal_size_mid          0.28
_exptl_crystal_size_min          0.18
_refine_diff_density_max         0.789
_refine_diff_density_min         -0.430
_refine_diff_density_rms         0.089
_refine_ls_extinction_coef       0.0013(4)
_refine_ls_extinction_expression Fc^*^=kFc[1+0.001xFc^2^\l^3^/sin(2\q)]^-1/4^
_refine_ls_extinction_method     SHELXL
_refine_ls_goodness_of_fit_ref   1.041
_refine_ls_hydrogen_treatment    constr
_refine_ls_matrix_type           full
_refine_ls_number_parameters     468
_refine_ls_number_reflns         4430
_refine_ls_number_restraints     0
_refine_ls_restrained_S_all      1.041
_refine_ls_R_factor_all          0.1322
_refine_ls_R_factor_gt           0.0819
_refine_ls_shift/su_max          0.000
_refine_ls_shift/su_mean         0.000
_refine_ls_structure_factor_coef Fsqd
_refine_ls_weighting_details
'w=1/[\s^2^(Fo^2^)+(0.1730P)^2^] where P=(Fo^2^+2Fc^2^)/3'
_refine_ls_weighting_scheme      calc
_refine_ls_wR_factor_gt          0.2313
_refine_ls_wR_factor_ref         0.2587
_reflns_Friedel_coverage         0.000
_reflns_number_gt                2714
_reflns_number_total             4430
_reflns_threshold_expression     'I > 2\s(I)'
_cod_data_source_file            c6cc07804d3.cif
_cod_data_source_block           CP-2
_cod_original_cell_volume        7479.9(11)
_cod_original_sg_symbol_H-M      'C 2/c'
_cod_database_code               7125241
_shelxl_version_number           2014/6
_shelx_space_group_comment
;
The symmetry employed for this shelxl refinement is uniquely defined
by the following loop, which should always be used as a source of
symmetry information in preference to the above space-group names.
They are only intended as comments.
;
_olex2_refinement_description
;
1. Fixed Uiso
 At 1.2 times of:
  All C(H) groups, All C(H,H) groups, All N(H) groups
 At 1.5 times of:
  All C(H,H,H) groups
2. Others
 Sof(C24B)=Sof(H24B)=Sof(C23B)=Sof(H23B)=Sof(C15B)=Sof(H15B)=Sof(C21B)=
 Sof(H21B)=Sof(C22B)=Sof(H22B)=Sof(C17B)=Sof(H17B)=Sof(C18B)=Sof(H18B)=
 Sof(C16B)=Sof(H16B)=1-FVAR(1)
 Sof(C18A)=Sof(H18A)=Sof(C17A)=Sof(H17A)=Sof(C24A)=Sof(H24A)=Sof(C23A)=
 Sof(H23A)=Sof(C21A)=Sof(H21A)=Sof(C15A)=Sof(H15A)=Sof(C22A)=Sof(H22A)=
 Sof(C16A)=Sof(H16A)=FVAR(1)
3.a Secondary CH2 refined with riding coordinates:
 C10(H10A,H10B), C12(H12A,H12B), C11(H11A,H11B)
3.b Aromatic/amide H refined with riding coordinates:
 N6(H6), N4(H4), N5(H5), C30(H30), C29(H29), C27(H27), C28(H28), C18A(H18A),
 C17A(H17A), C24A(H24A), C23A(H23A), C21A(H21A), C15A(H15A), C22A(H22A),
 C16A(H16A), C24B(H24B), C23B(H23B), C15B(H15B), C21B(H21B), C22B(H22B),
 C17B(H17B), C18B(H18B), C16B(H16B)
3.c Fitted hexagon refined as free rotating group:
 C2(C3,C4,C5,C6,C1)
3.d Idealised Me refined as rotating group:
 C7(H7A,H7B,H7C), C8(H8A,H8B,H8C), C9(H9A,H9B,H9C)
;
_shelx_res_file
;
TITL TEST_a.res in C2/c
CELL 0.71073 35.7293 13.9528 15.8889 90 109.211 90
ZERR 4 0.003 0.0011 0.0013 0 0.002 0
LATT 7
SYMM -X,+Y,0.5-Z
SFAC C H B Cu F N O
UNIT 240 240 8 4 32 48 24

L.S. 20 0 106
PLAN  20
BOND $H
HTAB
WGHT    0.173000
EXTI    0.001314
FVAR       0.19163   0.55456
PART
MORE -1
CONF
ABIN
fmap 2
acta
MERG 2
OMIT 0 180
REM <olex2.extras>
REM <HklSrc "%.\\TEST_a.hkl">
REM </olex2.extras>

PART 1
AFIX  66
C2    1    0.273393    0.580763    0.498253    11.00000    0.05821    0.04464 =
         0.03080    0.01040    0.00109    0.02060
C3    1    0.268746    0.638934    0.565144    11.00000    0.05324    0.04281 =
         0.02456    0.00966   -0.01066    0.02299
C4    1    0.233627    0.636218    0.584835    11.00000    0.07900    0.04180 =
         0.01506    0.00639   -0.00795    0.03797
C5    1    0.203157    0.575331    0.537636    11.00000    0.06156    0.05177 =
         0.03503    0.01545    0.01708    0.03058
C6    1    0.207804    0.517160    0.470745    11.00000    0.05677    0.03308 =
         0.03946    0.01203    0.00599    0.01616
C1    1    0.242922    0.519875    0.451053    11.00000    0.04580    0.03131 =
         0.03174    0.00666    0.00420    0.01231
AFIX   0
CU1   4    0.500000    0.500000    1.000000    10.50000    0.05959    0.09101 =
         0.06134    0.03630   -0.01985   -0.02974
O6    7    0.307958    0.432790    0.300525    11.00000    0.05923    0.05392 =
         0.06295   -0.00940    0.01274    0.01061
N6    6    0.253671    0.509706    0.306721    11.00000    0.05447    0.04759 =
         0.03420   -0.00368    0.01243    0.00617
AFIX  43
H6    2    0.235822    0.551620    0.281753    11.00000   -1.20000
AFIX   0
N4    6    0.333355    0.679958    0.674736    11.00000    0.05300    0.03862 =
         0.03272    0.01309   -0.00590    0.00280
AFIX  43
H4    2    0.329315    0.637965    0.710426    11.00000   -1.20000
AFIX   0
O5    7    0.379354    0.765589    0.636055    11.00000    0.07566    0.11059 =
         0.06856    0.05106    0.02915    0.01504
N5    6    0.138669    0.633509    0.545808    11.00000    0.06753    0.06154 =
         0.06001    0.02232    0.03056    0.02916
AFIX  43
H5    2    0.136028    0.668097    0.499406    11.00000   -1.20000
AFIX   0
PART 0
N3    6    0.460224    0.570230    0.897915    11.00000    0.05361    0.06765 =
         0.04621    0.02129    0.00551   -0.01677
N2    6    0.034857    0.884678    0.528465    11.00000    0.05560    0.08869 =
         0.05186   -0.03003   -0.00587    0.02634
PART 1
O7    7    0.117811    0.602147    0.660555    11.00000    0.14466    0.13677 =
         0.11012    0.06823    0.09426    0.07020
C25   1    0.283747    0.498388    0.275425    11.00000    0.05025    0.04146 =
         0.04540   -0.00583    0.00858   -0.00234
PART 0
C14   1    0.401744    0.660689    0.762263    11.00000    0.05326    0.04266 =
         0.04301    0.00559    0.01027    0.00238
PART 1
C10   1    0.249558    0.455130    0.380426    11.00000    0.07016    0.04648 =
         0.04179   -0.00036    0.01882    0.00694
AFIX  23
H10A  2    0.273305    0.417273    0.406884    11.00000   -1.20000
H10B  2    0.227355    0.411402    0.358562    11.00000   -1.20000
AFIX   0
C30   1    0.256878    0.622936    0.155444    11.00000    0.06439    0.05215 =
         0.04291   -0.01250    0.01593   -0.01229
AFIX  43
H30   2    0.231643    0.615617    0.159426    11.00000   -1.20000
AFIX   0
C13   1    0.370151    0.707787    0.686340    11.00000    0.06005    0.05966 =
         0.03094    0.00722    0.00369    0.00680
C26   1    0.287731    0.570108    0.208710    11.00000    0.06297    0.03753 =
         0.06147   -0.01762    0.02912   -0.00837
PART 0
C20   1    0.087649    0.731600    0.569126    11.00000    0.05688    0.06195 =
         0.05334    0.00562    0.01911    0.01041
PART 1
C12   1    0.168383    0.557137    0.569913    11.00000    0.09973    0.04788 =
         0.05697    0.02861    0.04065    0.03269
AFIX  23
H12A  2    0.155882    0.497169    0.544878    11.00000   -1.20000
H12B  2    0.178103    0.550345    0.634248    11.00000   -1.20000
AFIX   0
C11   1    0.299448    0.717999    0.603588    11.00000    0.06616    0.04275 =
         0.04255    0.01004   -0.01112    0.01223
AFIX  23
H11A  2    0.308273    0.744084    0.556723    11.00000   -1.20000
H11B  2    0.287389    0.769455    0.626752    11.00000   -1.20000
AFIX   0
N1    6    0.298327    0.702174    0.085982    11.00000    0.10700    0.06141 =
         0.10483    0.00725    0.05726   -0.01406
C7    1    0.173328    0.460615    0.409333    11.00000    0.06002    0.05195 =
         0.07048    0.00189    0.01021    0.00214
AFIX 137
H7A   2    0.175765    0.394566    0.427249    11.00000   -1.50000
H7B   2    0.173515    0.465480    0.349204    11.00000   -1.50000
H7C   2    0.148887    0.486014    0.412679    11.00000   -1.50000
AFIX   0
C19   1    0.116302    0.649193    0.594218    11.00000    0.07315    0.07531 =
         0.06813    0.02714    0.03693    0.02637
C8    1    0.314138    0.575657    0.485159    11.00000    0.05614    0.06401 =
         0.05182    0.01190    0.00366    0.00852
AFIX 137
H8A   2    0.314653    0.619065    0.438676    11.00000   -1.50000
H8B   2    0.318765    0.511543    0.468982    11.00000   -1.50000
H8C   2    0.334421    0.593175    0.539649    11.00000   -1.50000
AFIX   0
C9    1    0.229157    0.698313    0.659716    11.00000    0.09338    0.06835 =
         0.04421    0.00111    0.00827    0.03894
AFIX 137
H9A   2    0.253242    0.696296    0.709657    11.00000   -1.50000
H9B   2    0.207659    0.674597    0.677465    11.00000   -1.50000
H9C   2    0.223751    0.763209    0.639253    11.00000   -1.50000
AFIX   0
C29   1    0.263236    0.686968    0.095917    11.00000    0.09137    0.07081 =
         0.06296   -0.00449    0.03470   -0.00482
AFIX  43
H29   2    0.241667    0.721913    0.060299    11.00000   -1.20000
AFIX   0
C27   1    0.324273    0.585705    0.200093    11.00000    0.07054    0.05815 =
         0.12039   -0.00108    0.03726    0.00304
AFIX  43
H27   2    0.346173    0.550863    0.234380    11.00000   -1.20000
AFIX   0
C28   1    0.328332    0.653953    0.139752    11.00000    0.08207    0.08367 =
         0.14791    0.02125    0.06535   -0.00710
AFIX  43
H28   2    0.353557    0.666056    0.137352    11.00000   -1.20000
AFIX   0
C18A  1    0.395969    0.607668    0.828426    21.00000    0.03264    0.04955 =
         0.02400    0.00150   -0.00374   -0.00859
AFIX  43
H18A  2    0.370240    0.600418    0.829404    21.00000   -1.20000
AFIX   0
C17A  1    0.425513    0.565236    0.892430    21.00000    0.02681    0.06388 =
         0.04797    0.01048    0.00105   -0.00787
AFIX  43
H17A  2    0.419101    0.529762    0.935331    21.00000   -1.20000
AFIX   0
C24A  1    0.071701    0.761546    0.632449    21.00000    0.07733    0.08305 =
         0.07702    0.03313    0.04044    0.04741
AFIX  43
H24A  2    0.078443    0.731707    0.687780    21.00000   -1.20000
AFIX   0
C23A  1    0.045261    0.837572    0.611351    21.00000    0.05360    0.10166 =
         0.05537   -0.01316    0.02227   -0.00078
AFIX  43
H23A  2    0.034023    0.858144    0.653335    21.00000   -1.20000
AFIX   0

PART 0
F1    5    0.532990    0.445076    0.891854    11.00000    0.05856    0.11562 =
         0.09691    0.00781   -0.00150   -0.00510

PART 1
C21A  1    0.072167    0.766481    0.488243    21.00000    0.08233    0.06841 =
         0.05715   -0.01277    0.03312    0.02985
AFIX  43
H21A  2    0.079729    0.741000    0.442190    21.00000   -1.20000
AFIX   0
C15A  1    0.442681    0.665611    0.768522    21.00000    0.04971    0.08306 =
         0.05376    0.01739    0.01666   -0.00367
AFIX  43
H15A  2    0.450492    0.703498    0.729093    21.00000   -1.20000
AFIX   0
C22A  1    0.045090    0.839694    0.470402    21.00000    0.06682    0.09059 =
         0.07757    0.00326    0.01355    0.01961
AFIX  43
H22A  2    0.033359    0.857646    0.411156    21.00000   -1.20000
AFIX   0
C16A  1    0.470751    0.612714    0.834684    21.00000    0.03233    0.11226 =
         0.05819    0.02400    0.00874    0.01600
AFIX  43
H16A  2    0.496625    0.607484    0.834176    21.00000   -1.20000
AFIX   0
PART 0
PART 2
C24B  1    0.099862    0.815802    0.537155   -21.00000    0.04159    0.07458 =
         0.06097    0.01861    0.02620    0.01366
AFIX  43
H24B  2    0.124436    0.817823    0.528884   -21.00000   -1.20000
AFIX   0
C23B  1    0.075914    0.894671    0.518146   -21.00000    0.03595    0.07302 =
         0.09211    0.01493    0.01911    0.01112
AFIX  43
H23B  2    0.084111    0.951897    0.499765   -21.00000   -1.20000
AFIX   0
C15B  1    0.418086    0.588522    0.747889   -21.00000    0.09592    0.08025 =
         0.03582   -0.01243   -0.03623    0.02561
AFIX  43
H15B  2    0.411405    0.564343    0.690278   -21.00000   -1.20000
AFIX   0
C21B  1    0.050571    0.729254    0.569121   -21.00000    0.04967    0.12185 =
         0.08372    0.00955    0.01899    0.00597
AFIX  43
H21B  2    0.039883    0.672546    0.581972   -21.00000   -1.20000
AFIX   0
C22B  1    0.027727    0.812348    0.549726   -21.00000    0.02451    0.06131 =
         0.13979   -0.01754    0.01041    0.01005
AFIX  43
H22B  2    0.002703    0.806934    0.555287   -21.00000   -1.20000
AFIX   0
C17B  1    0.438311    0.654888    0.912263   -21.00000    0.11028    0.14501 =
         0.03946   -0.00518   -0.01152    0.06734
AFIX  43
H17B  2    0.444970    0.681280    0.969044   -21.00000   -1.20000
AFIX   0
C18B  1    0.407458    0.696867    0.841878   -21.00000    0.16869    0.19668 =
         0.03138    0.00941    0.00287    0.12307
AFIX  43
H18B  2    0.392149    0.746991    0.851327   -21.00000   -1.20000
AFIX   0

PART 0
F2    5    0.597206    0.428327    0.928313    11.00000    0.10503    0.44630 =
         0.19017   -0.08275    0.06265   -0.03081
F3    5    0.562107    0.397903    0.798187    11.00000    0.25521    0.66040 =
         0.06878    0.01410    0.05738    0.17157
F4    5    0.559939    0.311551    0.902476    11.00000    0.24883    0.23703 =
         0.44689   -0.03228    0.13360    0.05171
B5    3    0.561268    0.401023    0.872561    11.00000    0.08318    0.21137 =
         0.16367    0.11412   -0.03815   -0.01748

PART 2
C16B  1    0.446435    0.542851    0.816997   -21.00000    0.07182    0.05818 =
         0.05035   -0.00457   -0.02916    0.00893
AFIX  43
H16B  2    0.456576    0.485917    0.802993   -21.00000   -1.20000
AFIX   0
HKLF 4

REM  TEST_a.res in C2/c
REM R1 =  0.0819 for    2714 Fo > 4sig(Fo)  and  0.1322 for all    4430 data
REM    468 parameters refined using      0 restraints

END

WGHT      0.1729      0.0000

REM Instructions for potential hydrogen bonds
EQIV $1 x, -y+1, z+1/2
HTAB N4 O6_$1
EQIV $2 -x+1/2, -y+3/2, -z+1
HTAB N5 O5_$2
EQIV $3 -x+1/2, -y+3/2, -z
HTAB C29 N1_$3
HTAB C18A O6_$1
EQIV $4 -x+1, -y+1, -z+2
HTAB C17A F2_$4
EQIV $5 -x+1/2, y+1/2, -z+3/2
HTAB C23A F1_$5
EQIV $6 x-1/2, y+1/2, z
HTAB C23A F3_$6
HTAB C21A O5_$2
HTAB C16A F1
EQIV $7 x-1/2, -y+3/2, z-1/2
HTAB C23B F1_$7
HTAB C23B F2_$7
EQIV $8 -x+1, y, -z+3/2
HTAB C15B F2_$8
HTAB C22B F1_$5
HTAB C22B F4_$5
HTAB C17B F4_$4
HTAB C16B F3_$8

REM Highest difference peak  0.789,  deepest hole -0.430,  1-sigma level  0.089
Q1    1   0.5198  0.4546  0.9465  11.00000  0.05    0.79
Q2    1   0.2020  0.5361  0.4504  11.00000  0.05    0.57
Q3    1   0.2640  0.6599  0.5437  11.00000  0.05    0.48
Q4    1   0.2052  0.5475  0.5473  11.00000  0.05    0.42
Q5    1   0.0924  0.5805  0.6041  11.00000  0.05    0.36
Q6    1   0.2794  0.5603  0.5169  11.00000  0.05    0.36
Q7    1   0.5596  0.3172  0.9375  11.00000  0.05    0.35
Q8    1   0.5312  0.3624  0.8266  11.00000  0.05    0.35
Q9    1   0.5704  0.3178  0.8293  11.00000  0.05    0.33
Q10   1   0.2450  0.6383  0.6139  11.00000  0.05    0.32
Q11   1   0.1609  0.6034  0.5550  11.00000  0.05    0.31
Q12   1   0.2727  0.5404  0.4981  11.00000  0.05    0.31
Q13   1   0.1609  0.4812  0.3834  11.00000  0.05    0.31
Q14   1   0.1825  0.6249  0.2299  11.00000  0.05    0.30
Q15   1   0.1474  0.4992  0.5167  11.00000  0.05    0.30
Q16   1   0.0909  0.6543  0.5816  11.00000  0.05    0.30
Q17   1   0.1173  0.6249  0.6548  11.00000  0.05    0.30
Q18   1   0.1093  0.5817  0.7042  11.00000  0.05    0.30
Q19   1   0.2782  0.7204  0.6536  11.00000  0.05    0.29
Q20   1   0.1466  0.6509  0.5499  11.00000  0.05    0.29
;
_shelx_res_checksum              6548
_shelx_fab_checksum              39958
_shelx_fab_file
;
    2    0    0    301.80      0.00
    4    0    0    -12.66      0.00
    6    0    0    110.32      0.00
    8    0    0    -11.88      0.00
   10    0    0     -5.69      0.00
   12    0    0     38.43      0.00
   14    0    0     -8.55      0.00
   16    0    0     22.12      0.00
   18    0    0    -10.07      0.00
   20    0    0    -13.24      0.00
   22    0    0     17.01      0.00
   24    0    0     -3.35      0.00
   26    0    0      0.90      0.00
   28    0    0      3.05      0.00
   30    0    0     -5.18      0.00
   32    0    0      3.40      0.00
   34    0    0      5.53      0.00
    1    1    0   -435.85      0.00
    3    1    0   -100.34      0.00
    5    1    0    -36.77      0.00
    7    1    0    -17.19      0.00
    9    1    0     18.96      0.00
   11    1    0    -26.08      0.00
   13    1    0      2.03      0.00
   15    1    0     -1.95      0.00
   17    1    0    -11.89      0.00
   19    1    0     13.88      0.00
   21    1    0     -5.82      0.00
   23    1    0     -2.76      0.00
   25    1    0      4.93      0.00
   27    1    0     -7.76      0.00
   29    1    0      0.48      0.00
   31    1    0      1.92      0.00
   33    1    0     -4.89      0.00
   35    1    0     -3.27      0.00
    0    2    0     87.38      0.00
    2    2    0    146.02      0.00
    4    2    0     90.73      0.00
    6    2    0    -43.27      0.00
    8    2    0    -16.25      0.00
   10    2    0     12.10      0.00
   12    2    0     -8.42      0.00
   14    2    0     -9.59      0.00
   16    2    0     -0.39      0.00
   18    2    0      8.14      0.00
   20    2    0      2.59      0.00
   22    2    0     -3.94      0.00
   24    2    0     -6.26      0.00
   26    2    0      1.68      0.00
   28    2    0      8.31      0.00
   30    2    0      1.61      0.00
   32    2    0     -1.85      0.00
   34    2    0      0.54      0.00
    1    3    0     61.53      0.00
    3    3    0    -95.53      0.00
    5    3    0    -11.08      0.00
    7    3    0     28.20      0.00
    9    3    0     -4.94      0.00
   11    3    0     17.78      0.00
   13    3    0      0.43      0.00
   15    3    0     13.07      0.00
   17    3    0      1.97      0.00
   19    3    0    -22.27      0.00
   21    3    0      9.14      0.00
   23    3    0      8.77      0.00
   25    3    0     -1.15      0.00
   27    3    0     -0.09      0.00
   29    3    0     -8.95      0.00
   31    3    0     -1.13      0.00
   33    3    0      7.33      0.00
    0    4    0    -87.55      0.00
    2    4    0      1.44      0.00
    4    4    0     34.20      0.00
    6    4    0     -2.16      0.00
    8    4    0     16.86      0.00
   10    4    0    -20.09      0.00
   12    4    0     -7.84      0.00
   14    4    0     10.50      0.00
   16    4    0    -18.98      0.00
   18    4    0     14.12      0.00
   20    4    0     10.29      0.00
   22    4    0    -15.52      0.00
   24    4    0      5.38      0.00
   26    4    0      2.09      0.00
   28    4    0     -0.58      0.00
   30    4    0      7.06      0.00
   32    4    0     -3.06      0.00
    1    5    0     14.42      0.00
    3    5    0    -32.35      0.00
    5    5    0     11.71      0.00
    7    5    0     -6.47      0.00
    9    5    0    -19.36      0.00
   11    5    0     21.63      0.00
   13    5    0     -6.46      0.00
   15    5    0    -10.70      0.00
   17    5    0      7.14      0.00
   19    5    0     -5.78      0.00
   21    5    0      1.50      0.00
   23    5    0     -0.69      0.00
   25    5    0     -7.99      0.00
   27    5    0      1.27      0.00
   29    5    0     -0.51      0.00
   31    5    0     -2.93      0.00
   33    5    0      1.34      0.00
    0    6    0      2.91      0.00
    2    6    0     16.23      0.00
    4    6    0      1.58      0.00
    6    6    0    -21.82      0.00
    8    6    0     11.13      0.00
   10    6    0     13.48      0.00
   12    6    0    -11.45      0.00
   14    6    0     10.69      0.00
   16    6    0     12.17      0.00
   18    6    0    -10.56      0.00
   20    6    0     -4.76      0.00
   22    6    0      5.36      0.00
   24    6    0      5.12      0.00
   26    6    0      0.64      0.00
   28    6    0     -0.74      0.00
   30    6    0      0.77      0.00
   32    6    0      2.97      0.00
    1    7    0    -12.10      0.00
    3    7    0     20.64      0.00
    5    7    0     -2.97      0.00
    7    7    0      8.00      0.00
    9    7    0      1.48      0.00
   11    7    0    -17.84      0.00
   13    7    0      3.47      0.00
   15    7    0     -3.86      0.00
   17    7    0     -1.46      0.00
   19    7    0     11.17      0.00
   21    7    0     -2.20      0.00
   23    7    0     -4.23      0.00
   25    7    0      1.34      0.00
   27    7    0     -1.10      0.00
   29    7    0     -1.41      0.00
    0    8    0     27.56      0.00
    2    8    0    -20.78      0.00
    4    8    0    -10.39      0.00
    6    8    0     23.15      0.00
    8    8    0    -20.18      0.00
   10    8    0      3.50      0.00
   12    8    0     18.19      0.00
   14    8    0     -9.26      0.00
   16    8    0     -3.26      0.00
   18    8    0     -4.32      0.00
   20    8    0      1.99      0.00
   22    8    0      5.70      0.00
   24    8    0     -5.65      0.00
   26    8    0      0.70      0.00
   28    8    0      3.27      0.00
    1    9    0     -7.60      0.00
    3    9    0     12.36      0.00
    5    9    0    -12.69      0.00
    7    9    0     -5.72      0.00
    9    9    0     12.49      0.00
   11    9    0     -5.57      0.00
   13    9    0     -2.30      0.00
   15    9    0      5.61      0.00
   17    9    0      3.73      0.00
   19    9    0     -1.42      0.00
   21    9    0     -9.08      0.00
   23    9    0      4.00      0.00
   25    9    0      4.95      0.00
   27    9    0     -3.38      0.00
    0   10    0      1.75      0.00
    2   10    0      3.96      0.00
    4   10    0     -0.28      0.00
    6   10    0      2.20      0.00
    8   10    0      4.80      0.00
   10   10    0     -7.10      0.00
   12   10    0     -4.84      0.00
   14   10    0      0.79      0.00
   16   10    0     -0.36      0.00
   18   10    0      1.87      0.00
   20   10    0      3.75      0.00
   22   10    0      0.37      0.00
   24   10    0     -5.09      0.00
    1   11    0      3.40      0.00
    3   11    0     -4.83      0.00
    5   11    0      5.20      0.00
    7   11    0     -2.74      0.00
    9   11    0     -3.97      0.00
   11   11    0      6.84      0.00
   13   11    0      3.09      0.00
   15   11    0      0.88      0.00
   17   11    0     -3.99      0.00
   19   11    0     -3.04      0.00
   21   11    0      3.21      0.00
    0   12    0    -11.00      0.00
    2   12    0      1.57      0.00
    4   12    0      3.78      0.00
    6   12    0     -5.24      0.00
    8   12    0      3.34      0.00
   10   12    0      4.31      0.00
   12   12    0     -2.46      0.00
   14   12    0     -4.62      0.00
   16   12    0     -2.93      0.00
   18   12    0      3.68      0.00
    1   13    0      3.65      0.00
    3   13    0     -4.34      0.00
    5   13    0      1.72      0.00
    7   13    0      1.21      0.00
    9   13    0     -4.77      0.00
   11   13    0     -1.17      0.00
   13   13    0      1.32      0.00
   15   13    0      5.72      0.00
    0   14    0     -0.58      0.00
    2   14    0     -0.50      0.00
    4   14    0     -1.50      0.00
    6   14    0      0.30      0.00
    8   14    0      2.08      0.00
  -35    1    1     -0.33      0.00
  -33    1    1      2.90      0.00
  -31    1    1      0.27      0.00
  -29    1    1      0.35      0.00
  -27    1    1      1.49      0.00
  -25    1    1    -11.64      0.00
  -23    1    1      3.09      0.00
  -21    1    1     14.87      0.00
  -19    1    1    -14.15      0.00
  -17    1    1      0.49      0.00
  -15    1    1    -10.82      0.00
  -13    1    1     -8.18      0.00
  -11    1    1     30.98      0.00
   -9    1    1    -50.62      0.00
   -7    1    1     41.33      0.00
   -5    1    1     80.09      0.00
   -3    1    1   -189.51      0.00
   -1    1    1    -29.37      0.00
    1    1    1    193.41      0.00
    3    1    1    -18.65      0.00
    5    1    1    -28.88      0.00
    7    1    1     34.44      0.00
    9    1    1    -20.94      0.00
   11    1    1      3.54      0.00
   13    1    1     -4.95      0.00
   15    1    1      6.67      0.00
   17    1    1     16.35      0.00
   19    1    1    -14.63      0.00
   21    1    1     -1.58      0.00
   23    1    1     -0.09      0.00
   25    1    1     -0.61      0.00
   27    1    1      8.19      0.00
   29    1    1     -2.84      0.00
   31    1    1     -4.05      0.00
   33    1    1      5.31      0.00
  -34    2    1     -0.59      0.00
  -32    2    1     -3.72      0.00
  -30    2    1      2.49      0.00
  -28    2    1     -2.43      0.00
  -26    2    1      3.67      0.00
  -24    2    1     11.99      0.00
  -22    2    1    -17.88      0.00
  -20    2    1      2.70      0.00
  -18    2    1     16.71      0.00
  -16    2    1     -7.25      0.00
  -14    2    1     22.17      0.00
  -12    2    1    -12.56      0.00
  -10    2    1      1.87      0.00
   -8    2    1      8.00      0.00
   -6    2    1    -87.71      0.00
   -4    2    1    103.18      0.00
   -2    2    1    141.18      0.00
    0    2    1   -151.03      0.00
    2    2    1    -73.81      0.00
    4    2    1     39.15      0.00
    6    2    1    -27.21      0.00
    8    2    1     24.61      0.00
   10    2    1      0.80      0.00
   12    2    1    -11.53      0.00
   14    2    1     16.33      0.00
   16    2    1    -24.53      0.00
   18    2    1      4.43      0.00
   20    2    1     15.33      0.00
   22    2    1     -8.04      0.00
   24    2    1      8.97      0.00
   26    2    1     -2.70      0.00
   28    2    1     -7.92      0.00
   30    2    1      8.92      0.00
   32    2    1      3.28      0.00
   34    2    1     -6.37      0.00
  -35    3    1     -0.40      0.00
  -33    3    1      2.50      0.00
  -31    3    1     -0.87      0.00
  -29    3    1     -0.43      0.00
  -27    3    1      7.33      0.00
  -25    3    1     -6.71      0.00
  -23    3    1      0.64      0.00
  -21    3    1      7.44      0.00
  -19    3    1    -14.26      0.00
  -17    3    1      2.00      0.00
  -15    3    1     -1.52      0.00
  -13    3    1    -13.07      0.00
  -11    3    1      5.10      0.00
   -9    3    1      8.90      0.00
   -7    3    1     22.19      0.00
   -5    3    1    -45.15      0.00
   -3    3    1    -73.51      0.00
   -1    3    1     51.08      0.00
    1    3    1     35.54      0.00
    3    3    1    -25.18      0.00
    5    3    1     20.36      0.00
    7    3    1    -19.91      0.00
    9    3    1    -23.09      0.00
   11    3    1     27.22      0.00
   13    3    1    -10.71      0.00
   15    3    1     -8.07      0.00
   17    3    1     10.73      0.00
   19    3    1    -10.58      0.00
   21    3    1      2.73      0.00
   23    3    1      1.96      0.00
   25    3    1     -8.64      0.00
   27    3    1      5.34      0.00
   29    3    1      1.82      0.00
   31    3    1     -6.29      0.00
   33    3    1     -1.84      0.00
  -34    4    1     -1.19      0.00
  -32    4    1      0.57      0.00
  -30    4    1     -0.01      0.00
  -28    4    1     -5.80      0.00
  -26    4    1     -3.85      0.00
  -24    4    1     -1.39      0.00
  -22    4    1      2.88      0.00
  -20    4    1      6.91      0.00
  -18    4    1     -5.69      0.00
  -16    4    1     -1.15      0.00
  -14    4    1      8.96      0.00
  -12    4    1     -0.30      0.00
  -10    4    1     -7.72      0.00
   -8    4    1      2.13      0.00
   -6    4    1     30.87      0.00
   -4    4    1     12.90      0.00
   -2    4    1    -29.93      0.00
    0    4    1     -2.67      0.00
    2    4    1     33.66      0.00
    4    4    1     17.23      0.00
    6    4    1     -0.57      0.00
    8    4    1      8.52      0.00
   10    4    1      4.00      0.00
   12    4    1     -9.48      0.00
   14    4    1      9.26      0.00
   16    4    1     15.26      0.00
   18    4    1     -4.92      0.00
   20    4    1     -7.07      0.00
   22    4    1     -0.78      0.00
   24    4    1      2.02      0.00
   26    4    1      2.32      0.00
   28    4    1     -2.27      0.00
   30    4    1     -3.23      0.00
   32    4    1      1.17      0.00
  -33    5    1     -1.41      0.00
  -31    5    1      1.75      0.00
  -29    5    1      2.13      0.00
  -27    5    1     -2.61      0.00
  -25    5    1      7.57      0.00
  -23    5    1     -1.45      0.00
  -21    5    1    -17.05      0.00
  -19    5    1      9.07      0.00
  -17    5    1      5.61      0.00
  -15    5    1     -8.67      0.00
  -13    5    1      5.37      0.00
  -11    5    1     -1.84      0.00
   -9    5    1     -2.25      0.00
   -7    5    1    -19.27      0.00
   -5    5    1     -1.51      0.00
   -3    5    1     45.68      0.00
   -1    5    1     -7.93      0.00
    1    5    1    -24.43      0.00
    3    5    1     -5.59      0.00
    5    5    1    -25.47      0.00
    7    5    1     16.57      0.00
    9    5    1      9.69      0.00
   11    5    1    -19.71      0.00
   13    5    1      8.80      0.00
   15    5    1    -12.73      0.00
   17    5    1    -13.96      0.00
   19    5    1     16.31      0.00
   21    5    1      1.71      0.00
   23    5    1     -5.51      0.00
   25    5    1     -2.12      0.00
   27    5    1     -3.87      0.00
   29    5    1      3.02      0.00
   31    5    1      4.68      0.00
  -32    6    1     -1.82      0.00
  -30    6    1     -4.80      0.00
  -28    6    1      6.53      0.00
  -26    6    1      2.54      0.00
  -24    6    1     -6.17      0.00
  -22    6    1     14.03      0.00
  -20    6    1      3.28      0.00
  -18    6    1     -5.07      0.00
  -16    6    1      9.33      0.00
  -14    6    1    -14.61      0.00
  -12    6    1      7.61      0.00
  -10    6    1     15.26      0.00
   -8    6    1    -16.35      0.00
   -6    6    1     18.64      0.00
   -4    6    1    -20.48      0.00
   -2    6    1    -30.22      0.00
    0    6    1     41.85      0.00
    2    6    1    -11.25      0.00
    4    6    1    -10.22      0.00
    6    6    1     24.97      0.00
    8    6    1    -27.59      0.00
   10    6    1      0.59      0.00
   12    6    1     20.02      0.00
   14    6    1     -2.64      0.00
   16    6    1      8.81      0.00
   18    6    1     -4.48      0.00
   20    6    1     -3.90      0.00
   22    6    1      8.32      0.00
   24    6    1      2.53      0.00
   26    6    1      6.16      0.00
   28    6    1      4.30      0.00
   30    6    1     -3.29      0.00
  -31    7    1      5.13      0.00
  -29    7    1      1.67      0.00
  -27    7    1     -7.04      0.00
  -25    7    1      0.50      0.00
  -23    7    1      1.29      0.00
  -21    7    1     -5.84      0.00
  -19    7    1     -3.51      0.00
  -17    7    1     -9.26      0.00
  -15    7    1     12.66      0.00
  -13    7    1      7.32      0.00
  -11    7    1    -26.55      0.00
   -9    7    1     14.87      0.00
   -7    7    1      8.55      0.00
   -5    7    1    -21.88      0.00
   -3    7    1     22.41      0.00
   -1    7    1     -7.61      0.00
    1    7    1    -18.46      0.00
    3    7    1     32.30      0.00
    5    7    1    -10.53      0.00
    7    7    1    -17.17      0.00
    9    7    1     20.88      0.00
   11    7    1     -8.23      0.00
   13    7    1    -15.30      0.00
   15    7    1      1.56      0.00
   17    7    1      5.26      0.00
   19    7    1      4.23      0.00
   21    7    1     -7.16      0.00
   23    7    1     -2.37      0.00
   25    7    1      0.37      0.00
   27    7    1     -7.46      0.00
   29    7    1     -2.47      0.00
  -30    8    1     -2.92      0.00
  -28    8    1     -1.82      0.00
  -26    8    1      3.27      0.00
  -24    8    1     -2.02      0.00
  -22    8    1     -5.03      0.00
  -20    8    1      4.90      0.00
  -18    8    1      8.41      0.00
  -16    8    1     -8.34      0.00
  -14    8    1     -6.97      0.00
  -12    8    1      8.53      0.00
  -10    8    1     -4.01      0.00
   -8    8    1     -8.50      0.00
   -6    8    1      0.84      0.00
   -4    8    1      2.02      0.00
   -2    8    1      2.94      0.00
    0    8    1     -0.92      0.00
    2    8    1     -5.95      0.00
    4    8    1     -2.88      0.00
    6    8    1      9.87      0.00
    8    8    1      5.69      0.00
   10    8    1     -3.82      0.00
   12    8    1      6.28      0.00
   14    8    1      4.39      0.00
   16    8    1     -3.25      0.00
   18    8    1     -4.56      0.00
   20    8    1     -2.17      0.00
   22    8    1      0.57      0.00
   24    8    1     -4.22      0.00
   26    8    1      1.92      0.00
   28    8    1      5.52      0.00
  -27    9    1      2.92      0.00
  -25    9    1     -1.50      0.00
  -23    9    1      1.58      0.00
  -21    9    1      5.54      0.00
  -19    9    1     -5.27      0.00
  -17    9    1      3.01      0.00
  -15    9    1      3.75      0.00
  -13    9    1     -7.20      0.00
  -11    9    1     10.70      0.00
   -9    9    1     -0.49      0.00
   -7    9    1      1.47      0.00
   -5    9    1     17.89      0.00
   -3    9    1    -13.66      0.00
   -1    9    1      1.85      0.00
    1    9    1     12.60      0.00
    3    9    1    -15.12      0.00
    5    9    1      4.78      0.00
    7    9    1      2.43      0.00
    9    9    1    -13.17      0.00
   11    9    1     -0.44      0.00
   13    9    1     -0.24      0.00
   15    9    1     -0.17      0.00
   17    9    1     -0.74      0.00
   19    9    1      1.44      0.00
   21    9    1      8.96      0.00
   23    9    1      3.83      0.00
   25    9    1     -1.95      0.00
  -26   10    1     -2.34      0.00
  -24   10    1      3.70      0.00
  -22   10    1     -1.65      0.00
  -20   10    1     -3.09      0.00
  -18   10    1      1.22      0.00
  -16   10    1     -0.26      0.00
  -14   10    1      5.39      0.00
  -12   10    1     -3.15      0.00
  -10   10    1      0.86      0.00
   -8   10    1      7.65      0.00
   -6   10    1    -17.58      0.00
   -4   10    1     -0.14      0.00
   -2   10    1     14.20      0.00
    0   10    1     -8.45      0.00
    2   10    1     10.53      0.00
    4   10    1      6.81      0.00
    6   10    1    -13.10      0.00
    8   10    1      7.95      0.00
   10   10    1      7.51      0.00
   12   10    1      0.20      0.00
   14   10    1      1.53      0.00
   16   10    1     -2.08      0.00
   18   10    1      4.10      0.00
   20   10    1     -6.52      0.00
   22   10    1    -10.24      0.00
   24   10    1      7.27      0.00
  -23   11    1     -3.52      0.00
  -21   11    1     -0.69      0.00
  -19   11    1     -2.57      0.00
  -17   11    1     -0.80      0.00
  -15   11    1     -1.96      0.00
  -13   11    1      1.31      0.00
  -11   11    1     -3.35      0.00
   -9   11    1    -12.53      0.00
   -7   11    1      4.60      0.00
   -5   11    1      6.95      0.00
   -3   11    1    -11.91      0.00
   -1   11    1     -7.10      0.00
    1   11    1     -3.13      0.00
    3   11    1     -7.43      0.00
    5   11    1      1.66      0.00
    7   11    1      2.00      0.00
    9   11    1     -3.51      0.00
   11   11    1     -2.20      0.00
   13   11    1     -3.12      0.00
   15   11    1      1.95      0.00
   17   11    1      1.55      0.00
   19   11    1     -0.79      0.00
   21   11    1      7.43      0.00
  -20   12    1      7.16      0.00
  -18   12    1      4.10      0.00
  -16   12    1     -3.47      0.00
  -14   12    1     -3.07      0.00
  -12   12    1      2.43      0.00
  -10   12    1      8.15      0.00
   -8   12    1      3.80      0.00
   -6   12    1     -1.92      0.00
   -4   12    1      1.24      0.00
   -2   12    1      4.38      0.00
    0   12    1      2.82      0.00
    2   12    1      1.08      0.00
    4   12    1      1.75      0.00
    6   12    1     -1.32      0.00
    8   12    1     -1.10      0.00
   10   12    1      2.10      0.00
   12   12    1     -0.06      0.00
   14   12    1     -0.40      0.00
   16   12    1     -1.25      0.00
   18   12    1     -1.12      0.00
  -15   13    1      6.67      0.00
  -13   13    1      0.45      0.00
  -11   13    1     -7.14      0.00
   -9   13    1     -0.55      0.00
   -7   13    1     -0.56      0.00
   -5   13    1     -2.42      0.00
   -3   13    1      5.42      0.00
   -1   13    1      4.62      0.00
    1   13    1      0.16      0.00
    3   13    1      1.76      0.00
    5   13    1      3.98      0.00
    7   13    1      1.96      0.00
    9   13    1     -3.05      0.00
   11   13    1     -0.21      0.00
   13   13    1      3.31      0.00
   -8   14    1     -1.27      0.00
   -6   14    1      0.64      0.00
   -4   14    1     -1.29      0.00
   -2   14    1     -5.98      0.00
    0   14    1     -1.91      0.00
    2   14    1     -3.41      0.00
    4   14    1     -4.48      0.00
    6   14    1     -1.57      0.00
    8   14    1     -0.51      0.00
  -36    0    2     -0.82      0.00
  -34    0    2     -2.57      0.00
  -32    0    2     -1.35      0.00
  -30    0    2      8.20      0.00
  -28    0    2     -4.41      0.00
  -26    0    2      0.16      0.00
  -24    0    2     16.80      0.00
  -22    0    2    -15.40      0.00
  -20    0    2     -4.53      0.00
  -18    0    2      5.72      0.00
  -16    0    2    -14.08      0.00
  -14    0    2     35.23      0.00
  -12    0    2    -25.29      0.00
  -10    0    2    -27.21      0.00
   -8    0    2     55.56      0.00
   -6    0    2   -153.51      0.00
   -4    0    2   -132.99      0.00
   -2    0    2     70.80      0.00
    0    0    2   -110.85      0.00
    2    0    2   -106.04      0.00
    4    0    2     61.36      0.00
    6    0    2     16.37      0.00
    8    0    2     21.56      0.00
   10    0    2     11.03      0.00
   12    0    2      5.53      0.00
   14    0    2     23.80      0.00
   16    0    2    -28.75      0.00
   18    0    2     -7.93      0.00
   20    0    2     13.86      0.00
   22    0    2     -0.27      0.00
   24    0    2     13.20      0.00
   26    0    2     -3.67      0.00
   28    0    2    -12.46      0.00
   30    0    2      5.05      0.00
   32    0    2      4.84      0.00
  -35    1    2      1.75      0.00
  -33    1    2      2.50      0.00
  -31    1    2     -2.48      0.00
  -29    1    2     -2.07      0.00
  -27    1    2      4.99      0.00
  -25    1    2     -8.96      0.00
  -23    1    2     -0.57      0.00
  -21    1    2     13.83      0.00
  -19    1    2     -6.45      0.00
  -17    1    2      5.36      0.00
  -15    1    2     -8.20      0.00
  -13    1    2    -12.56      0.00
  -11    1    2     18.08      0.00
   -9    1    2    -30.42      0.00
   -7    1    2     47.09      0.00
   -5    1    2    111.54      0.00
   -3    1    2    -24.37      0.00
   -1    1    2     39.11      0.00
    1    1    2     98.76      0.00
    3    1    2    -36.69      0.00
    5    1    2    -25.58      0.00
    7    1    2    -10.02      0.00
    9    1    2    -31.73      0.00
   11    1    2      3.81      0.00
   13    1    2    -16.42      0.00
   15    1    2     -0.12      0.00
   17    1    2     21.33      0.00
   19    1    2     -9.73      0.00
   21    1    2     -2.80      0.00
   23    1    2     -1.32      0.00
   25    1    2     -6.52      0.00
   27    1    2      8.81      0.00
   29    1    2      4.80      0.00
   31    1    2     -3.87      0.00
   33    1    2      0.27      0.00
  -36    2    2     -2.69      0.00
  -34    2    2     -1.30      0.00
  -32    2    2     -0.62      0.00
  -30    2    2      0.39      0.00
  -28    2    2      0.63      0.00
  -26    2    2     -0.69      0.00
  -24    2    2     -1.83      0.00
  -22    2    2     -1.35      0.00
  -20    2    2     -0.55      0.00
  -18    2    2     -1.44      0.00
  -16    2    2      6.03      0.00
  -14    2    2     -0.31      0.00
  -12    2    2     14.96      0.00
  -10    2    2     31.57      0.00
   -8    2    2    -35.83      0.00
   -6    2    2     -7.74      0.00
   -4    2    2     60.75      0.00
   -2    2    2    -46.27      0.00
    0    2    2    -49.77      0.00
    2    2    2     64.43      0.00
    4    2    2     31.71      0.00
    6    2    2     -4.39      0.00
    8    2    2     24.99      0.00
   10    2    2     13.51      0.00
   12    2    2     -4.74      0.00
   14    2    2      1.91      0.00
   16    2    2      3.07      0.00
   18    2    2     -1.25      0.00
   20    2    2      1.04      0.00
   22    2    2     -1.57      0.00
   24    2    2     -2.19      0.00
   26    2    2      0.06      0.00
   28    2    2     -2.61      0.00
   30    2    2     -2.86      0.00
   32    2    2     -1.60      0.00
  -35    3    2      1.47      0.00
  -33    3    2     -1.02      0.00
  -31    3    2      0.10      0.00
  -29    3    2     -1.36      0.00
  -27    3    2     -4.28      0.00
  -25    3    2      8.45      0.00
  -23    3    2      3.22      0.00
  -21    3    2    -12.73      0.00
  -19    3    2      6.30      0.00
  -17    3    2     -2.05      0.00
  -15    3    2     -2.53      0.00
  -13    3    2     -1.57      0.00
  -11    3    2    -28.27      0.00
   -9    3    2     30.18      0.00
   -7    3    2    -14.89      0.00
   -5    3    2    -85.63      0.00
   -3    3    2     45.50      0.00
   -1    3    2     27.20      0.00
    1    3    2    -64.54      0.00
    3    3    2    -15.86      0.00
    5    3    2    -20.40      0.00
    7    3    2     -4.65      0.00
    9    3    2      7.62      0.00
   11    3    2    -15.66      0.00
   13    3    2     17.36      0.00
   15    3    2     -1.67      0.00
   17    3    2    -18.86      0.00
   19    3    2     10.42      0.00
   21    3    2      2.35      0.00
   23    3    2      0.73      0.00
   25    3    2      6.32      0.00
   27    3    2     -3.45      0.00
   29    3    2     -1.11      0.00
   31    3    2      4.12      0.00
  -34    4    2      1.02      0.00
  -32    4    2      4.32      0.00
  -30    4    2     -2.43      0.00
  -28    4    2      5.05      0.00
  -26    4    2      2.91      0.00
  -24    4    2    -14.40      0.00
  -22    4    2      9.24      0.00
  -20    4    2      6.70      0.00
  -18    4    2     -6.24      0.00
  -16    4    2      7.95      0.00
  -14    4    2     -7.20      0.00
  -12    4    2     10.83      0.00
  -10    4    2    -14.19      0.00
   -8    4    2    -11.75      0.00
   -6    4    2     73.73      0.00
   -4    4    2    -32.74      0.00
   -2    4    2    -54.01      0.00
    0    4    2     73.39      0.00
    2    4    2    -10.33      0.00
    4    4    2    -11.95      0.00
    6    4    2     44.09      0.00
    8    4    2    -32.49      0.00
   10    4    2     -1.76      0.00
   12    4    2     13.00      0.00
   14    4    2    -21.65      0.00
   16    4    2     14.06      0.00
   18    4    2      3.24      0.00
   20    4    2    -10.24      0.00
   22    4    2      2.49      0.00
   24    4    2     -8.00      0.00
   26    4    2     -0.71      0.00
   28    4    2      5.97      0.00
   30    4    2     -2.76      0.00
   32    4    2     -3.21      0.00
  -33    5    2     -4.52      0.00
  -31    5    2     -1.86      0.00
  -29    5    2      1.33      0.00
  -27    5    2     -8.62      0.00
  -25    5    2      4.37      0.00
  -23    5    2      5.58      0.00
  -21    5    2     -5.02      0.00
  -19    5    2      4.44      0.00
  -17    5    2     -9.45      0.00
  -15    5    2      1.74      0.00
  -13    5    2     12.02      0.00
  -11    5    2    -11.78      0.00
   -9    5    2     10.24      0.00
   -7    5    2     -7.27      0.00
   -5    5    2     -9.46      0.00
   -3    5    2     46.83      0.00
   -1    5    2    -15.69      0.00
    1    5    2    -27.10      0.00
    3    5    2     43.09      0.00
    5    5    2    -11.71      0.00
    7    5    2    -19.43      0.00
    9    5    2     23.19      0.00
   11    5    2     -5.59      0.00
   13    5    2     -2.57      0.00
   15    5    2      4.89      0.00
   17    5    2     -0.99      0.00
   19    5    2      4.70      0.00
   21    5    2     -4.29      0.00
   23    5    2      3.93      0.00
   25    5    2      8.30      0.00
   27    5    2     -3.59      0.00
   29    5    2     -0.68      0.00
   31    5    2      3.84      0.00
  -32    6    2      2.66      0.00
  -30    6    2      2.47      0.00
  -28    6    2      1.95      0.00
  -26    6    2      3.69      0.00
  -24    6    2      1.64      0.00
  -22    6    2     -5.64      0.00
  -20    6    2     -7.36      0.00
  -18    6    2      7.45      0.00
  -16    6    2      4.63      0.00
  -14    6    2    -12.23      0.00
  -12    6    2      3.15      0.00
  -10    6    2     14.58      0.00
   -8    6    2     -7.71      0.00
   -6    6    2    -13.53      0.00
   -4    6    2      2.68      0.00
   -2    6    2      3.36      0.00
    0    6    2      4.50      0.00
    2    6    2     -3.55      0.00
    4    6    2    -20.56      0.00
    6    6    2      6.43      0.00
    8    6    2     17.19      0.00
   10    6    2     -9.62      0.00
   12    6    2     -0.87      0.00
   14    6    2      7.16      0.00
   16    6    2     -5.64      0.00
   18    6    2     -3.91      0.00
   20    6    2      4.53      0.00
   22    6    2      3.48      0.00
   24    6    2     -6.53      0.00
   26    6    2     -7.05      0.00
   28    6    2     -0.93      0.00
   30    6    2     -0.76      0.00
  -31    7    2     -3.15      0.00
  -29    7    2     -2.77      0.00
  -27    7    2      3.82      0.00
  -25    7    2     -6.70      0.00
  -23    7    2     -2.81      0.00
  -21    7    2     12.68      0.00
  -19    7    2     -4.72      0.00
  -17    7    2     -1.31      0.00
  -15    7    2      8.00      0.00
  -13    7    2     -8.25      0.00
  -11    7    2      0.91      0.00
   -9    7    2     -7.24      0.00
   -7    7    2      2.29      0.00
   -5    7    2     17.30      0.00
   -3    7    2    -28.11      0.00
   -1    7    2     -8.30      0.00
    1    7    2     15.81      0.00
    3    7    2     -9.19      0.00
    5    7    2     10.23      0.00
    7    7    2     -2.70      0.00
    9    7    2    -14.17      0.00
   11    7    2      6.24      0.00
   13    7    2     -2.27      0.00
   15    7    2      3.33      0.00
   17    7    2      2.95      0.00
   19    7    2     -5.40      0.00
   21    7    2      1.31      0.00
   23    7    2      1.17      0.00
   25    7    2      6.91      0.00
   27    7    2      9.10      0.00
   29    7    2      2.09      0.00
  -30    8    2      2.88      0.00
  -28    8    2     -3.80      0.00
  -26    8    2     -5.87      0.00
  -24    8    2      7.42      0.00
  -22    8    2     -0.99      0.00
  -20    8    2     -3.09      0.00
  -18    8    2     -0.07      0.00
  -16    8    2    -11.23      0.00
  -14    8    2     11.55      0.00
  -12    8    2      0.86      0.00
  -10    8    2    -11.29      0.00
   -8    8    2     19.20      0.00
   -6    8    2    -12.71      0.00
   -4    8    2     -2.34      0.00
   -2    8    2     27.83      0.00
    0    8    2    -17.43      0.00
    2    8    2      2.60      0.00
    4    8    2     16.39      0.00
    6    8    2    -16.37      0.00
    8    8    2      2.94      0.00
   10    8    2      8.56      0.00
   12    8    2     -1.50      0.00
   14    8    2     -5.08      0.00
   16    8    2     -7.57      0.00
   18    8    2      6.28      0.00
   20    8    2     -0.24      0.00
   22    8    2     -8.93      0.00
   24    8    2     -1.25      0.00
   26    8    2     -4.82      0.00
  -27    9    2      6.51      0.00
  -25    9    2      2.93      0.00
  -23    9    2     -4.42      0.00
  -21    9    2     -1.75      0.00
  -19    9    2      4.84      0.00
  -17    9    2      9.33      0.00
  -15    9    2     -7.15      0.00
  -13    9    2     -5.98      0.00
  -11    9    2     11.05      0.00
   -9    9    2     -7.77      0.00
   -7    9    2     -2.67      0.00
   -5    9    2     10.21      0.00
   -3    9    2     -8.98      0.00
   -1    9    2      5.11      0.00
    1    9    2      5.12      0.00
    3    9    2    -18.86      0.00
    5    9    2      3.99      0.00
    7    9    2     11.49      0.00
    9    9    2     -7.30      0.00
   11    9    2     -1.38      0.00
   13    9    2      3.50      0.00
   15    9    2      6.22      0.00
   17    9    2      2.75      0.00
   19    9    2     -5.09      0.00
   21    9    2      7.59      0.00
   23    9    2      6.13      0.00
   25    9    2     -6.24      0.00
  -26   10    2     -2.41      0.00
  -24   10    2     -0.71      0.00
  -22   10    2      1.43      0.00
  -20   10    2      0.61      0.00
  -18   10    2     -7.06      0.00
  -16   10    2      3.02      0.00
  -14   10    2      8.02      0.00
  -12   10    2     -2.43      0.00
  -10   10    2      2.14      0.00
   -8   10    2     -1.23      0.00
   -6   10    2     -1.18      0.00
   -4   10    2      2.86      0.00
   -2   10    2     -7.25      0.00
    0   10    2     -1.07      0.00
    2   10    2      8.84      0.00
    4   10    2      1.85      0.00
    6   10    2     -5.36      0.00
    8   10    2     -0.86      0.00
   10   10    2      1.50      0.00
   12   10    2     -3.02      0.00
   14   10    2     -1.96      0.00
   16   10    2     -2.98      0.00
   18   10    2     -0.63      0.00
   20   10    2      0.66      0.00
   22   10    2     -3.67      0.00
  -23   11    2     -0.44      0.00
  -21   11    2     -1.47      0.00
  -19   11    2      0.99      0.00
  -17   11    2     -1.68      0.00
  -15   11    2     -3.31      0.00
  -13   11    2     -2.67      0.00
  -11   11    2     -3.87      0.00
   -9   11    2      8.88      0.00
   -7   11    2      3.99      0.00
   -5   11    2     -8.46      0.00
   -3   11    2      5.90      0.00
   -1   11    2      2.83      0.00
    1   11    2     -2.93      0.00
    3   11    2      3.27      0.00
    5   11    2     -2.91      0.00
    7   11    2      1.72      0.00
    9   11    2      4.30      0.00
   11   11    2     -0.30      0.00
   13   11    2      2.96      0.00
   15   11    2      0.05      0.00
   17   11    2      0.91      0.00
   19   11    2      2.66      0.00
   21   11    2     -4.22      0.00
  -20   12    2      1.03      0.00
  -18   12    2      0.19      0.00
  -16   12    2      3.21      0.00
  -14   12    2     -2.92      0.00
  -12   12    2      1.52      0.00
  -10   12    2     -5.33      0.00
   -8   12    2    -14.13      0.00
   -6   12    2      2.17      0.00
   -4   12    2      1.47      0.00
   -2   12    2     -6.70      0.00
    0   12    2     -3.66      0.00
    2   12    2     -6.09      0.00
    4   12    2      1.85      0.00
    6   12    2      3.33      0.00
    8   12    2     -5.64      0.00
   10   12    2      0.14      0.00
   12   12    2      0.54      0.00
   14   12    2     -0.89      0.00
   16   12    2      3.03      0.00
  -15   13    2     -0.09      0.00
  -13   13    2      5.62      0.00
  -11   13    2      5.84      0.00
   -9   13    2      7.86      0.00
   -7   13    2      6.20      0.00
   -5   13    2      1.45      0.00
   -3   13    2      6.06      0.00
   -1   13    2      6.39      0.00
    1   13    2      4.00      0.00
    3   13    2      3.41      0.00
    5   13    2     -3.54      0.00
    7   13    2     -3.18      0.00
    9   13    2      0.39      0.00
   11   13    2     -2.49      0.00
   13   13    2     -2.53      0.00
   -8   14    2     -0.41      0.00
   -6   14    2     -1.89      0.00
   -4   14    2     -7.37      0.00
   -2   14    2     -6.45      0.00
    0   14    2      0.34      0.00
    2   14    2     -1.69      0.00
    4   14    2     -2.53      0.00
    6   14    2      6.54      0.00
  -35    1    3      1.82      0.00
  -33    1    3     -4.47      0.00
  -31    1    3     -1.98      0.00
  -29    1    3      0.98      0.00
  -27    1    3     -7.24      0.00
  -25    1    3      8.13      0.00
  -23    1    3      6.54      0.00
  -21    1    3    -12.20      0.00
  -19    1    3      5.47      0.00
  -17    1    3     -9.22      0.00
  -15    1    3     -1.09      0.00
  -13    1    3     29.34      0.00
  -11    1    3    -26.32      0.00
   -9    1    3      1.00      0.00
   -7    1    3     21.85      0.00
   -5    1    3    -71.51      0.00
   -3    1    3     -6.38      0.00
   -1    1    3     64.09      0.00
    1    1    3      5.10      0.00
    3    1    3     -7.08      0.00
    5    1    3    -11.88      0.00
    7    1    3      3.39      0.00
    9    1    3      5.54      0.00
   11    1    3    -15.86      0.00
   13    1    3     21.70      0.00
   15    1    3      9.03      0.00
   17    1    3    -18.61      0.00
   19    1    3      0.65      0.00
   21    1    3     -3.12      0.00
   23    1    3      3.78      0.00
   25    1    3      9.31      0.00
   27    1    3     -6.53      0.00
   29    1    3     -6.34      0.00
   31    1    3      1.81      0.00
  -36    2    3     -2.97      0.00
  -34    2    3      1.95      0.00
  -32    2    3      4.64      0.00
  -30    2    3     -2.99      0.00
  -28    2    3      8.09      0.00
  -26    2    3      3.51      0.00
  -24    2    3    -18.11      0.00
  -22    2    3      7.75      0.00
  -20    2    3      7.25      0.00
  -18    2    3      0.28      0.00
  -16    2    3     13.72      0.00
  -14    2    3    -26.37      0.00
  -12    2    3     13.47      0.00
  -10    2    3      6.41      0.00
   -8    2    3    -51.06      0.00
   -6    2    3     86.27      0.00
   -4    2    3     37.98      0.00
   -2    2    3    -97.44      0.00
    0    2    3     15.24      0.00
    2    2    3      1.53      0.00
    4    2    3    -21.93      0.00
    6    2    3     37.79      0.00
    8    2    3    -15.44      0.00
   10    2    3      3.88      0.00
   12    2    3      5.83      0.00
   14    2    3    -34.41      0.00
   16    2    3     13.33      0.00
   18    2    3     11.72      0.00
   20    2    3     -6.05      0.00
   22    2    3      2.87      0.00
   24    2    3    -11.30      0.00
   26    2    3     -3.02      0.00
   28    2    3      9.16      0.00
   30    2    3      0.41      0.00
   32    2    3     -3.28      0.00
  -35    3    3      2.20      0.00
  -33    3    3     -1.98      0.00
  -31    3    3     -1.72      0.00
  -29    3    3     -0.02      0.00
  -27    3    3     -8.22      0.00
  -25    3    3      3.38      0.00
  -23    3    3      5.01      0.00
  -21    3    3     -6.05      0.00
  -19    3    3      0.22      0.00
  -17    3    3    -11.52      0.00
  -15    3    3      7.38      0.00
  -13    3    3      2.79      0.00
  -11    3    3    -11.65      0.00
   -9    3    3     49.90      0.00
   -7    3    3    -31.79      0.00
   -5    3    3    -59.06      0.00
   -3    3    3     92.65      0.00
   -1    3    3      2.22      0.00
    1    3    3    -57.59      0.00
    3    3    3     58.45      0.00
    5    3    3     -7.45      0.00
    7    3    3    -33.19      0.00
    9    3    3     23.35      0.00
   11    3    3     -5.92      0.00
   13    3    3      4.71      0.00
   15    3    3      8.20      0.00
   17    3    3     -8.79      0.00
   19    3    3      5.46      0.00
   21    3    3     -2.76      0.00
   23    3    3     -0.57      0.00
   25    3    3      8.35      0.00
   27    3    3     -4.98      0.00
   29    3    3     -3.90      0.00
   31    3    3      3.27      0.00
  -34    4    3     -3.75      0.00
  -32    4    3      1.94      0.00
  -30    4    3      2.01      0.00
  -28    4    3     -1.97      0.00
  -26    4    3      3.82      0.00
  -24    4    3      5.86      0.00
  -22    4    3     -1.25      0.00
  -20    4    3     -6.28      0.00
  -18    4    3      3.81      0.00
  -16    4    3      5.22      0.00
  -14    4    3     -3.16      0.00
  -12    4    3     -8.09      0.00
  -10    4    3     -8.49      0.00
   -8    4    3     13.82      0.00
   -6    4    3      0.95      0.00
   -4    4    3    -37.59      0.00
   -2    4    3     -5.07      0.00
    0    4    3     34.32      0.00
    2    4    3     -0.95      0.00
    4    4    3    -28.43      0.00
    6    4    3      6.38      0.00
    8    4    3     13.66      0.00
   10    4    3    -12.99      0.00
   12    4    3      0.05      0.00
   14    4    3     13.05      0.00
   16    4    3     -1.15      0.00
   18    4    3     -9.63      0.00
   20    4    3     -0.16      0.00
   22    4    3      9.22      0.00
   24    4    3      0.98      0.00
   26    4    3     -1.42      0.00
   28    4    3      3.58      0.00
   30    4    3      0.88      0.00
  -33    5    3      2.99      0.00
  -31    5    3     -1.14      0.00
  -29    5    3     -0.73      0.00
  -27    5    3      6.28      0.00
  -25    5    3     -7.18      0.00
  -23    5    3     -8.99      0.00
  -21    5    3     11.07      0.00
  -19    5    3      1.53      0.00
  -17    5    3     -0.80      0.00
  -15    5    3     -1.65      0.00
  -13    5    3      4.39      0.00
  -11    5    3     16.23      0.00
   -9    5    3    -38.15      0.00
   -7    5    3     -1.72      0.00
   -5    5    3     53.33      0.00
   -3    5    3    -34.81      0.00
   -1    5    3    -20.00      0.00
    1    5    3     15.66      0.00
    3    5    3    -21.77      0.00
    5    5    3     22.41      0.00
    7    5    3      9.26      0.00
    9    5    3    -19.67      0.00
   11    5    3     10.68      0.00
   13    5    3    -11.97      0.00
   15    5    3    -11.51      0.00
   17    5    3     12.10      0.00
   19    5    3      4.31      0.00
   21    5    3      0.02      0.00
   23    5    3     -7.70      0.00
   25    5    3     -5.28      0.00
   27    5    3      6.00      0.00
   29    5    3      2.37      0.00
  -32    6    3     -2.87      0.00
  -30    6    3      3.23      0.00
  -28    6    3     -1.30      0.00
  -26    6    3     -6.18      0.00
  -24    6    3      9.82      0.00
  -22    6    3     -2.68      0.00
  -20    6    3     -4.22      0.00
  -18    6    3      5.36      0.00
  -16    6    3    -10.31      0.00
  -14    6    3      6.22      0.00
  -12    6    3     -6.08      0.00
  -10    6    3     -2.18      0.00
   -8    6    3     31.64      0.00
   -6    6    3    -25.74      0.00
   -4    6    3     -1.04      0.00
   -2    6    3     43.92      0.00
    0    6    3    -25.52      0.00
    2    6    3      4.25      0.00
    4    6    3     20.90      0.00
    6    6    3    -30.01      0.00
    8    6    3      2.81      0.00
   10    6    3     10.12      0.00
   12    6    3      4.03      0.00
   14    6    3     11.53      0.00
   16    6    3     -9.80      0.00
   18    6    3     -1.96      0.00
   20    6    3     -1.34      0.00
   22    6    3     -5.07      0.00
   24    6    3     10.96      0.00
   26    6    3     -0.22      0.00
   28    6    3    -11.57      0.00
  -31    7    3      0.59      0.00
  -29    7    3     -4.61      0.00
  -27    7    3      1.54      0.00
  -25    7    3      3.89      0.00
  -23    7    3     -0.01      0.00
  -21    7    3     -1.38      0.00
  -19    7    3     -7.97      0.00
  -17    7    3      5.20      0.00
  -15    7    3      1.61      0.00
  -13    7    3    -11.50      0.00
  -11    7    3     13.33      0.00
   -9    7    3      2.36      0.00
   -7    7    3     -8.86      0.00
   -5    7    3      5.45      0.00
   -3    7    3    -15.57      0.00
   -1    7    3      3.50      0.00
    1    7    3     17.53      0.00
    3    7    3    -18.23      0.00
    5    7    3     -1.39      0.00
    7    7    3     16.19      0.00
    9    7    3     -1.32      0.00
   11    7    3     -9.16      0.00
   13    7    3     -9.51      0.00
   15    7    3      6.09      0.00
   17    7    3      5.24      0.00
   19    7    3     -7.09      0.00
   21    7    3      1.53      0.00
   23    7    3     -2.33      0.00
   25    7    3     -8.35      0.00
   27    7    3      3.18      0.00
  -30    8    3     -0.27      0.00
  -28    8    3      3.60      0.00
  -26    8    3     -1.19      0.00
  -24    8    3     -8.28      0.00
  -22    8    3      1.09      0.00
  -20    8    3      9.66      0.00
  -18    8    3     -3.10      0.00
  -16    8    3      1.08      0.00
  -14    8    3     11.55      0.00
  -12    8    3     -2.03      0.00
  -10    8    3     -7.73      0.00
   -8    8    3     -5.10      0.00
   -6    8    3      4.88      0.00
   -4    8    3     11.26      0.00
   -2    8    3     -6.30      0.00
    0    8    3    -11.36      0.00
    2    8    3      4.03      0.00
    4    8    3      9.85      0.00
    6    8    3     -3.97      0.00
    8    8    3     -9.44      0.00
   10    8    3      4.08      0.00
   12    8    3      4.44      0.00
   14    8    3     -1.67      0.00
   16    8    3     -2.40      0.00
   18    8    3      1.76      0.00
   20    8    3      9.40      0.00
   22    8    3      5.70      0.00
   24    8    3      4.08      0.00
   26    8    3      7.10      0.00
  -29    9    3      0.93      0.00
  -27    9    3     -2.18      0.00
  -25    9    3      1.67      0.00
  -23    9    3      5.42      0.00
  -21    9    3     -2.35      0.00
  -19    9    3      2.34      0.00
  -17    9    3      1.59      0.00
  -15    9    3     -7.82      0.00
  -13    9    3      1.35      0.00
  -11    9    3     -3.41      0.00
   -9    9    3      4.36      0.00
   -7    9    3      6.26      0.00
   -5    9    3    -17.49      0.00
   -3    9    3      1.67      0.00
   -1    9    3      8.52      0.00
    1    9    3     -4.61      0.00
    3    9    3      1.16      0.00
    5    9    3     -3.44      0.00
    7    9    3      2.80      0.00
    9    9    3      2.89      0.00
   11    9    3     -0.81      0.00
   13    9    3      5.85      0.00
   15    9    3     -1.59      0.00
   17    9    3     -0.17      0.00
   19    9    3     -1.23      0.00
   21    9    3    -10.64      0.00
   23    9    3     -5.15      0.00
  -26   10    3      3.09      0.00
  -24   10    3     -1.93      0.00
  -22   10    3     -1.93      0.00
  -20   10    3     -5.39      0.00
  -18   10    3     -2.95      0.00
  -16   10    3      3.10      0.00
  -14   10    3     -7.99      0.00
  -12   10    3      1.45      0.00
  -10   10    3      2.43      0.00
   -8   10    3    -11.81      0.00
   -6   10    3     10.83      0.00
   -4   10    3      4.38      0.00
   -2   10    3     -9.34      0.00
    0   10    3      9.81      0.00
    2   10    3     -5.25      0.00
    4   10    3     -8.94      0.00
    6   10    3      7.78      0.00
    8   10    3     -1.01      0.00
   10   10    3     -2.78      0.00
   12   10    3     -2.85      0.00
   14   10    3     -2.36      0.00
   16   10    3      3.98      0.00
   18   10    3     -3.40      0.00
   20   10    3     -2.04      0.00
   22   10    3      7.68      0.00
  -23   11    3      2.03      0.00
  -21   11    3     -0.21      0.00
  -19   11    3      3.81      0.00
  -17   11    3     -2.79      0.00
  -15   11    3      2.75      0.00
  -13   11    3      8.19      0.00
  -11   11    3      2.52      0.00
   -9   11    3      7.69      0.00
   -7   11    3     -1.94      0.00
   -5   11    3     -4.72      0.00
   -3   11    3      7.64      0.00
   -1   11    3     -5.23      0.00
    1   11    3     -3.68      0.00
    3   11    3     13.49      0.00
    5   11    3      1.07      0.00
    7   11    3     -4.57      0.00
    9   11    3      3.72      0.00
   11   11    3     -0.16      0.00
   13   11    3     -0.07      0.00
   15   11    3     -1.86      0.00
   17   11    3     -1.62      0.00
   19   11    3      6.57      0.00
  -20   12    3      2.71      0.00
  -18   12    3      3.28      0.00
  -16   12    3      3.54      0.00
  -14   12    3     -0.48      0.00
  -12   12    3    -10.28      0.00
  -10   12    3     -9.42      0.00
   -8   12    3      3.11      0.00
   -6   12    3      3.73      0.00
   -4   12    3     -2.07      0.00
   -2   12    3     -0.59      0.00
    0   12    3      4.05      0.00
    2   12    3      0.61      0.00
    4   12    3     -7.51      0.00
    6   12    3     -5.08      0.00
    8   12    3     -3.01      0.00
   10   12    3     -2.32      0.00
   12   12    3      1.85      0.00
   14   12    3      1.84      0.00
   16   12    3      1.83      0.00
  -15   13    3     -2.43      0.00
  -13   13    3      2.45      0.00
  -11   13    3      9.99      0.00
   -9   13    3      1.25      0.00
   -7   13    3     -6.93      0.00
   -5   13    3     -3.69      0.00
   -3   13    3     -0.44      0.00
   -1   13    3      1.48      0.00
    1   13    3     -5.69      0.00
    3   13    3     -1.20      0.00
    5   13    3     11.72      0.00
    7   13    3      7.93      0.00
    9   13    3      5.82      0.00
   11   13    3      3.25      0.00
   -8   14    3      2.61      0.00
   -6   14    3      4.25      0.00
   -4   14    3      2.13      0.00
   -2   14    3      1.14      0.00
    0   14    3      0.24      0.00
    2   14    3      1.09      0.00
    4   14    3     -3.66      0.00
  -36    0    4     -3.34      0.00
  -34    0    4     -5.18      0.00
  -32    0    4     -1.01      0.00
  -30    0    4     -7.89      0.00
  -28    0    4      4.80      0.00
  -26    0    4     10.29      0.00
  -24    0    4    -16.09      0.00
  -22    0    4     -0.19      0.00
  -20    0    4      1.76      0.00
  -18    0    4     -5.44      0.00
  -16    0    4     17.88      0.00
  -14    0    4    -12.01      0.00
  -12    0    4     10.42      0.00
  -10    0    4     19.37      0.00
   -8    0    4    -40.96      0.00
   -6    0    4     33.38      0.00
   -4    0    4     52.30      0.00
   -2    0    4      3.88      0.00
    0    0    4     29.60      0.00
    2    0    4    -38.66      0.00
    4    0    4    -33.82      0.00
    6    0    4     26.26      0.00
    8    0    4    -17.70      0.00
   10    0    4     20.35      0.00
   12    0    4     25.46      0.00
   14    0    4    -29.47      0.00
   16    0    4      0.45      0.00
   18    0    4      3.40      0.00
   20    0    4      1.42      0.00
   22    0    4     15.14      0.00
   24    0    4     -7.24      0.00
   26    0    4     -6.05      0.00
   28    0    4      6.94      0.00
   30    0    4      4.36      0.00
  -35    1    4      3.45      0.00
  -33    1    4     -0.53      0.00
  -31    1    4      3.23      0.00
  -29    1    4      4.30      0.00
  -27    1    4    -10.50      0.00
  -25    1    4      2.28      0.00
  -23    1    4      8.87      0.00
  -21    1    4     -3.58      0.00
  -19    1    4      5.10      0.00
  -17    1    4     -8.87      0.00
  -15    1    4      5.63      0.00
  -13    1    4     12.73      0.00
  -11    1    4    -30.44      0.00
   -9    1    4     27.77      0.00
   -7    1    4     16.52      0.00
   -5    1    4    -65.15      0.00
   -3    1    4     10.66      0.00
   -1    1    4      5.38      0.00
    1    1    4    -25.61      0.00
    3    1    4     45.99      0.00
    5    1    4      4.96      0.00
    7    1    4    -14.97      0.00
    9    1    4      7.43      0.00
   11    1    4    -23.35      0.00
   13    1    4      4.79      0.00
   15    1    4     13.59      0.00
   17    1    4     -7.05      0.00
   19    1    4      2.56      0.00
   21    1    4     -7.45      0.00
   23    1    4     -4.43      0.00
   25    1    4      6.86      0.00
   27    1    4     -2.96      0.00
   29    1    4     -4.16      0.00
   31    1    4      0.27      0.00
  -36    2    4      1.81      0.00
  -34    2    4      1.08      0.00
  -32    2    4     -0.13      0.00
  -30    2    4     -0.12      0.00
  -28    2    4      0.37      0.00
  -26    2    4     -0.39      0.00
  -24    2    4      1.21      0.00
  -22    2    4     -0.36      0.00
  -20    2    4     -3.48      0.00
  -18    2    4      3.73      0.00
  -16    2    4     -6.49      0.00
  -14    2    4    -18.36      0.00
  -12    2    4      5.02      0.00
  -10    2    4     -5.91      0.00
   -8    2    4    -16.62      0.00
   -6    2    4     28.39      0.00
   -4    2    4     -6.78      0.00
   -2    2    4    -52.44      0.00
    0    2    4     16.36      0.00
    2    2    4     22.06      0.00
    4    2    4    -30.70      0.00
    6    2    4      1.13      0.00
    8    2    4     19.99      0.00
   10    2    4     -7.43      0.00
   12    2    4     -4.97      0.00
   14    2    4      5.54      0.00
   16    2    4      3.16      0.00
   18    2    4     -2.28      0.00
   20    2    4     -4.22      0.00
   22    2    4      2.57      0.00
   24    2    4      2.91      0.00
   26    2    4     -0.64      0.00
   28    2    4      0.56      0.00
   30    2    4     -2.89      0.00
  -35    3    4     -3.62      0.00
  -33    3    4      4.70      0.00
  -31    3    4     -1.84      0.00
  -29    3    4     -5.19      0.00
  -27    3    4     11.00      0.00
  -25    3    4      0.15      0.00
  -23    3    4     -7.74      0.00
  -21    3    4      5.95      0.00
  -19    3    4     -2.72      0.00
  -17    3    4      9.05      0.00
  -15    3    4      6.58      0.00
  -13    3    4      0.09      0.00
  -11    3    4     36.15      0.00
   -9    3    4    -24.64      0.00
   -7    3    4    -38.38      0.00
   -5    3    4     54.27      0.00
   -3    3    4     18.92      0.00
   -1    3    4     -2.66      0.00
    1    3    4      4.14      0.00
    3    3    4    -27.98      0.00
    5    3    4     16.52      0.00
    7    3    4      1.46      0.00
    9    3    4    -19.97      0.00
   11    3    4     24.16      0.00
   13    3    4     -4.95      0.00
   15    3    4    -19.36      0.00
   17    3    4      3.91      0.00
   19    3    4      4.72      0.00
   21    3    4      6.96      0.00
   23    3    4     -3.59      0.00
   25    3    4     -5.87      0.00
   27    3    4      6.48      0.00
   29    3    4      6.69      0.00
  -34    4    4     -1.86      0.00
  -32    4    4     -4.69      0.00
  -30    4    4      5.07      0.00
  -28    4    4     -2.79      0.00
  -26    4    4    -10.36      0.00
  -24    4    4      7.06      0.00
  -22    4    4     -2.70      0.00
  -20    4    4     -1.29      0.00
  -18    4    4     -0.36      0.00
  -16    4    4    -13.45      0.00
  -14    4    4     15.55      0.00
  -12    4    4    -29.36      0.00
  -10    4    4    -13.38      0.00
   -8    4    4     74.22      0.00
   -6    4    4    -43.44      0.00
   -4    4    4    -44.89      0.00
   -2    4    4     60.54      0.00
    0    4    4    -29.91      0.00
    2    4    4     -5.57      0.00
    4    4    4     39.74      0.00
    6    4    4    -29.37      0.00
    8    4    4      2.92      0.00
   10    4    4      7.36      0.00
   12    4    4     -7.89      0.00
   14    4    4     19.01      0.00
   16    4    4      0.69      0.00
   18    4    4      0.39      0.00
   20    4    4      0.79      0.00
   22    4    4    -10.22      0.00
   24    4    4      7.73      0.00
   26    4    4      3.36      0.00
   28    4    4    -13.17      0.00
  -33    5    4      1.16      0.00
  -31    5    4      3.76      0.00
  -29    5    4     -0.69      0.00
  -27    5    4      2.68      0.00
  -25    5    4      1.20      0.00
  -23    5    4      0.08      0.00
  -21    5    4      5.01      0.00
  -19    5    4     -5.54      0.00
  -17    5    4      4.42      0.00
  -15    5    4      1.00      0.00
  -13    5    4     -4.98      0.00
  -11    5    4     14.30      0.00
   -9    5    4    -18.43      0.00
   -7    5    4      0.94      0.00
   -5    5    4     34.22      0.00
   -3    5    4    -37.60      0.00
   -1    5    4    -14.02      0.00
    1    5    4     36.36      0.00
    3    5    4    -19.05      0.00
    5    5    4     -9.52      0.00
    7    5    4     16.44      0.00
    9    5    4     -4.41      0.00
   11    5    4     -5.64      0.00
   13    5    4    -10.54      0.00
   15    5    4      1.18      0.00
   17    5    4      5.21      0.00
   19    5    4    -12.62      0.00
   21    5    4      4.17      0.00
   23    5    4      7.82      0.00
   25    5    4     -8.51      0.00
   27    5    4      1.19      0.00
  -32    6    4     -1.40      0.00
  -30    6    4     -5.85      0.00
  -28    6    4      1.29      0.00
  -26    6    4      3.67      0.00
  -24    6    4     -5.61      0.00
  -22    6    4     -4.56      0.00
  -20    6    4      4.94      0.00
  -18    6    4      3.27      0.00
  -16    6    4     -0.24      0.00
  -14    6    4      0.77      0.00
  -12    6    4     10.19      0.00
  -10    6    4      3.74      0.00
   -8    6    4    -25.42      0.00
   -6    6    4     -6.92      0.00
   -4    6    4     24.08      0.00
   -2    6    4      4.15      0.00
    0    6    4    -10.72      0.00
    2    6    4     -5.49      0.00
    4    6    4      3.74      0.00
    6    6    4      9.10      0.00
    8    6    4     -0.36      0.00
   10    6    4      0.90      0.00
   12    6    4      7.00      0.00
   14    6    4     -4.05      0.00
   16    6    4     -9.16      0.00
   18    6    4      2.99      0.00
   20    6    4      5.59      0.00
   22    6    4     -4.11      0.00
   24    6    4     -3.29      0.00
   26    6    4      3.61      0.00
  -31    7    4      2.37      0.00
  -29    7    4      3.03      0.00
  -27    7    4     -7.04      0.00
  -25    7    4      0.96      0.00
  -23    7    4     10.73      0.00
  -21    7    4     -5.84      0.00
  -19    7    4     -4.37      0.00
  -17    7    4     -1.01      0.00
  -15    7    4     -3.91      0.00
  -13    7    4     -0.75      0.00
  -11    7    4    -14.52      0.00
   -9    7    4     15.85      0.00
   -7    7    4     24.53      0.00
   -5    7    4    -21.40      0.00
   -3    7    4      1.69      0.00
   -1    7    4     11.46      0.00
    1    7    4     -5.15      0.00
    3    7    4     10.92      0.00
    5    7    4     -8.18      0.00
    7    7    4    -12.07      0.00
    9    7    4      0.27      0.00
   11    7    4     -4.19      0.00
   13    7    4     10.79      0.00
   15    7    4      7.40      0.00
   17    7    4     -0.59      0.00
   19    7    4      3.83      0.00
   21    7    4     -4.23      0.00
   23    7    4      0.42      0.00
   25    7    4      5.35      0.00
  -30    8    4      1.61      0.00
  -28    8    4      3.46      0.00
  -26    8    4      2.77      0.00
  -24    8    4     -4.70      0.00
  -22    8    4      0.77      0.00
  -20    8    4      3.97      0.00
  -18    8    4      0.22      0.00
  -16    8    4      7.00      0.00
  -14    8    4     -3.09      0.00
  -12    8    4      2.90      0.00
  -10    8    4      6.01      0.00
   -8    8    4    -18.68      0.00
   -6    8    4      4.01      0.00
   -4    8    4      2.18      0.00
   -2    8    4    -16.09      0.00
    0    8    4     12.55      0.00
    2    8    4     -4.79      0.00
    4    8    4    -10.69      0.00
    6    8    4     12.45      0.00
    8    8    4      3.45      0.00
   10    8    4      6.06      0.00
   12    8    4     -6.35      0.00
   14    8    4    -12.11      0.00
   16    8    4      5.42      0.00
   18    8    4     -4.75      0.00
   20    8    4     -4.10      0.00
   22    8    4      4.96      0.00
   24    8    4     -4.41      0.00
  -29    9    4     -4.13      0.00
  -27    9    4     -1.67      0.00
  -25    9    4      0.35      0.00
  -23    9    4     -1.92      0.00
  -21    9    4     -0.67      0.00
  -19    9    4      3.19      0.00
  -17    9    4     -6.89      0.00
  -15    9    4      0.13      0.00
  -13    9    4      6.51      0.00
  -11    9    4     -6.51      0.00
   -9    9    4      5.25      0.00
   -7    9    4      0.83      0.00
   -5    9    4     -6.81      0.00
   -3    9    4     14.63      0.00
   -1    9    4     -4.13      0.00
    1    9    4    -13.57      0.00
    3    9    4     14.22      0.00
    5    9    4      5.72      0.00
    7    9    4     -8.39      0.00
    9    9    4     -4.29      0.00
   11    9    4      0.20      0.00
   13    9    4      6.43      0.00
   15    9    4      0.95      0.00
   17    9    4     -1.76      0.00
   19    9    4      5.89      0.00
   21    9    4      4.57      0.00
   23    9    4      1.35      0.00
  -26   10    4      1.53      0.00
  -24   10    4     -1.15      0.00
  -22   10    4     -1.41      0.00
  -20   10    4     -2.51      0.00
  -18   10    4      0.52      0.00
  -16   10    4      0.67      0.00
  -14   10    4     -3.59      0.00
  -12   10    4     -1.10      0.00
  -10   10    4     -4.05      0.00
   -8   10    4      0.24      0.00
   -6   10    4      5.76      0.00
   -4   10    4     -4.35      0.00
   -2   10    4     -4.29      0.00
    0   10    4      7.57      0.00
    2   10    4      3.21      0.00
    4   10    4    -10.10      0.00
    6   10    4      0.07      0.00
    8   10    4      7.69      0.00
   10   10    4     -2.01      0.00
   12   10    4     -0.14      0.00
   14   10    4     -0.47      0.00
   16   10    4     -2.26      0.00
   18   10    4     -0.36      0.00
   20   10    4     -5.34      0.00
  -23   11    4      3.29      0.00
  -21   11    4      2.97      0.00
  -19   11    4     -2.40      0.00
  -17   11    4      0.85      0.00
  -15   11    4      0.75      0.00
  -13   11    4     -2.25      0.00
  -11   11    4      8.13      0.00
   -9   11    4     -0.76      0.00
   -7   11    4     -5.33      0.00
   -5   11    4      5.11      0.00
   -3   11    4     -1.96      0.00
   -1   11    4      1.46      0.00
    1   11    4      1.31      0.00
    3   11    4     -4.51      0.00
    5   11    4      1.24      0.00
    7   11    4     -3.93      0.00
    9   11    4     -1.65      0.00
   11   11    4      2.11      0.00
   13   11    4     -2.82      0.00
   15   11    4      1.24      0.00
   17   11    4      2.15      0.00
  -20   12    4      1.23      0.00
  -18   12    4      6.30      0.00
  -16   12    4      2.73      0.00
  -14   12    4      2.14      0.00
  -12   12    4     -2.14      0.00
  -10   12    4      1.26      0.00
   -8   12    4      7.30      0.00
   -6   12    4     -5.62      0.00
   -4   12    4     -0.90      0.00
   -2   12    4      4.47      0.00
    0   12    4     -7.36      0.00
    2   12    4      1.21      0.00
    4   12    4      5.18      0.00
    6   12    4     -0.24      0.00
    8   12    4      3.78      0.00
   10   12    4     -0.45      0.00
   12   12    4     -0.88      0.00
   14   12    4      2.13      0.00
  -15   13    4     -2.38      0.00
  -13   13    4      1.93      0.00
  -11   13    4     -4.22      0.00
   -9   13    4     -8.01      0.00
   -7   13    4      0.59      0.00
   -5   13    4      5.80      0.00
   -3   13    4     -0.11      0.00
   -1   13    4     -0.75      0.00
    1   13    4      3.87      0.00
    3   13    4      1.41      0.00
    5   13    4      0.97      0.00
    7   13    4     -1.17      0.00
    9   13    4     -3.43      0.00
   -6   14    4     -2.91      0.00
   -4   14    4     -6.46      0.00
   -2   14    4     -0.87      0.00
    0   14    4      1.06      0.00
  -37    1    5      0.26      0.00
  -35    1    5     -0.35      0.00
  -33    1    5      3.20      0.00
  -31    1    5     -0.07      0.00
  -29    1    5     -6.82      0.00
  -27    1    5      4.99      0.00
  -25    1    5     -0.66      0.00
  -23    1    5     -9.67      0.00
  -21    1    5      2.94      0.00
  -19    1    5     -3.24      0.00
  -17    1    5      1.47      0.00
  -15    1    5     -4.14      0.00
  -13    1    5     -4.97      0.00
  -11    1    5     25.01      0.00
   -9    1    5    -11.87      0.00
   -7    1    5     -8.56      0.00
   -5    1    5     17.35      0.00
   -3    1    5    -28.93      0.00
   -1    1    5     16.30      0.00
    1    1    5     18.00      0.00
    3    1    5    -41.53      0.00
    5    1    5     16.47      0.00
    7    1    5      5.47      0.00
    9    1    5    -26.86      0.00
   11    1    5     21.89      0.00
   13    1    5      6.83      0.00
   15    1    5     -9.10      0.00
   17    1    5      0.48      0.00
   19    1    5     -5.21      0.00
   21    1    5      9.45      0.00
   23    1    5      6.54      0.00
   25    1    5     -4.64      0.00
   27    1    5      2.09      0.00
   29    1    5      0.44      0.00
  -36    2    5      1.24      0.00
  -34    2    5     -0.64      0.00
  -32    2    5     -9.83      0.00
  -30    2    5      4.73      0.00
  -28    2    5      1.91      0.00
  -26    2    5    -10.32      0.00
  -24    2    5      7.87      0.00
  -22    2    5      0.21      0.00
  -20    2    5      1.89      0.00
  -18    2    5      1.13      0.00
  -16    2    5    -14.88      0.00
  -14    2    5     27.97      0.00
  -12    2    5    -12.31      0.00
  -10    2    5    -34.89      0.00
   -8    2    5     53.81      0.00
   -6    2    5     -9.57      0.00
   -4    2    5    -23.36      0.00
   -2    2    5     41.64      0.00
    0    2    5    -33.42      0.00
    2    2    5      1.91      0.00
    4    2    5     34.21      0.00
    6    2    5    -26.94      0.00
    8    2    5     17.39      0.00
   10    2    5      4.72      0.00
   12    2    5    -25.33      0.00
   14    2    5     11.74      0.00
   16    2    5      4.36      0.00
   18    2    5      5.66      0.00
   20    2    5     -0.18      0.00
   22    2    5    -15.95      0.00
   24    2    5      5.12      0.00
   26    2    5      6.63      0.00
   28    2    5     -5.33      0.00
  -35    3    5     -0.49      0.00
  -33    3    5      6.42      0.00
  -31    3    5      5.65      0.00
  -29    3    5     -1.45      0.00
  -27    3    5      7.37      0.00
  -25    3    5      3.48      0.00
  -23    3    5     -0.41      0.00
  -21    3    5      1.88      0.00
  -19    3    5     -6.49      0.00
  -17    3    5     15.87      0.00
  -15    3    5     -3.81      0.00
  -13    3    5    -25.81      0.00
  -11    3    5     30.19      0.00
   -9    3    5    -18.83      0.00
   -7    3    5    -41.93      0.00
   -5    3    5     45.51      0.00
   -3    3    5    -14.80      0.00
   -1    3    5    -33.99      0.00
    1    3    5     39.06      0.00
    3    3    5     -9.08      0.00
    5    3    5    -18.57      0.00
    7    3    5     10.73      0.00
    9    3    5     -1.21      0.00
   11    3    5      8.37      0.00
   13    3    5     -4.00      0.00
   15    3    5     -6.58      0.00
   17    3    5      3.72      0.00
   19    3    5     -7.86      0.00
   21    3    5      4.25      0.00
   23    3    5      7.75      0.00
   25    3    5     -8.87      0.00
   27    3    5     -3.13      0.00
   29    3    5      5.17      0.00
  -34    4    5     -1.81      0.00
  -32    4    5      0.81      0.00
  -30    4    5     -4.02      0.00
  -28    4    5     -4.13      0.00
  -26    4    5     -0.92      0.00
  -24    4    5     -4.26      0.00
  -22    4    5     -1.41      0.00
  -20    4    5      2.78      0.00
  -18    4    5     -2.80      0.00
  -16    4    5     -2.60      0.00
  -14    4    5      0.38      0.00
  -12    4    5      5.58      0.00
  -10    4    5     19.23      0.00
   -8    4    5      3.58      0.00
   -6    4    5    -17.44      0.00
   -4    4    5      5.38      0.00
   -2    4    5     21.98      0.00
    0    4    5     -1.22      0.00
    2    4    5    -17.93      0.00
    4    4    5      3.33      0.00
    6    4    5     12.24      0.00
    8    4    5    -11.47      0.00
   10    4    5    -10.27      0.00
   12    4    5      8.06      0.00
   14    4    5      3.88      0.00
   16    4    5     -8.65      0.00
   18    4    5     -2.69      0.00
   20    4    5      8.07      0.00
   22    4    5     -0.73      0.00
   24    4    5     -4.99      0.00
   26    4    5      2.47      0.00
   28    4    5      2.00      0.00
  -33    5    5     -5.97      0.00
  -31    5    5     -2.66      0.00
  -29    5    5      5.51      0.00
  -27    5    5     -4.17      0.00
  -25    5    5     -0.92      0.00
  -23    5    5      5.81      0.00
  -21    5    5     -4.62      0.00
  -19    5    5      1.99      0.00
  -17    5    5     -5.43      0.00
  -15    5    5      4.16      0.00
  -13    5    5     16.67      0.00
  -11    5    5    -36.86      0.00
   -9    5    5      1.46      0.00
   -7    5    5     49.99      0.00
   -5    5    5    -23.16      0.00
   -3    5    5    -11.95      0.00
   -1    5    5     13.63      0.00
    1    5    5    -12.77      0.00
    3    5    5     14.06      0.00
    5    5    5      4.14      0.00
    7    5    5     -6.25      0.00
    9    5    5     11.82      0.00
   11    5    5     -3.47      0.00
   13    5    5     -0.08      0.00
   15    5    5      6.89      0.00
   17    5    5      1.47      0.00
   19    5    5      1.16      0.00
   21    5    5     -7.45      0.00
   23    5    5     -3.00      0.00
   25    5    5      7.92      0.00
   27    5    5      0.90      0.00
  -32    6    5      5.40      0.00
  -30    6    5     -1.98      0.00
  -28    6    5     -0.67      0.00
  -26    6    5      6.45      0.00
  -24    6    5     -4.05      0.00
  -22    6    5     -1.44      0.00
  -20    6    5      1.73      0.00
  -18    6    5      0.14      0.00
  -16    6    5      7.44      0.00
  -14    6    5    -14.39      0.00
  -12    6    5      8.55      0.00
  -10    6    5     18.25      0.00
   -8    6    5    -40.63      0.00
   -6    6    5     -0.10      0.00
   -4    6    5     19.16      0.00
   -2    6    5    -24.46      0.00
    0    6    5     14.77      0.00
    2    6    5      6.03      0.00
    4    6    5    -19.98      0.00
    6    6    5      4.18      0.00
    8    6    5     -4.67      0.00
   10    6    5      2.18      0.00
   12    6    5      0.81      0.00
   14    6    5    -12.08      0.00
   16    6    5      8.02      0.00
   18    6    5      1.02      0.00
   20    6    5     -5.08      0.00
   22    6    5     10.58      0.00
   24    6    5      0.44      0.00
   26    6    5     -7.74      0.00
  -31    7    5      0.25      0.00
  -29    7    5      0.54      0.00
  -27    7    5     -0.35      0.00
  -25    7    5      2.58      0.00
  -23    7    5      2.07      0.00
  -21    7    5      1.18      0.00
  -19    7    5      5.15      0.00
  -17    7    5     -2.40      0.00
  -15    7    5      0.56      0.00
  -13    7    5      0.58      0.00
  -11    7    5     -9.30      0.00
   -9    7    5     12.02      0.00
   -7    7    5      0.66      0.00
   -5    7    5    -13.82      0.00
   -3    7    5     22.17      0.00
   -1    7    5     -1.18      0.00
    1    7    5    -21.16      0.00
    3    7    5     13.34      0.00
    5    7    5      5.27      0.00
    7    7    5      0.19      0.00
    9    7    5      2.52      0.00
   11    7    5     -5.52      0.00
   13    7    5      8.20      0.00
   15    7    5     -3.00      0.00
   17    7    5    -10.23      0.00
   19    7    5      7.99      0.00
   21    7    5      1.06      0.00
   23    7    5     -6.23      0.00
   25    7    5      1.38      0.00
  -30    8    5      3.87      0.00
  -28    8    5      1.33      0.00
  -26    8    5     -5.67      0.00
  -24    8    5     -0.81      0.00
  -22    8    5      1.99      0.00
  -20    8    5     -6.98      0.00
  -18    8    5     -6.30      0.00
  -16    8    5     -3.03      0.00
  -14    8    5      0.28      0.00
  -12    8    5      3.81      0.00
  -10    8    5     -5.06      0.00
   -8    8    5      2.92      0.00
   -6    8    5      9.75      0.00
   -4    8    5    -10.77      0.00
   -2    8    5     -9.42      0.00
    0    8    5      9.89      0.00
    2    8    5      5.94      0.00
    4    8    5     -7.40      0.00
    6    8    5     -4.61      0.00
    8    8    5      3.81      0.00
   10    8    5      1.02      0.00
   12    8    5     -0.30      0.00
   14    8    5      4.66      0.00
   16    8    5      3.68      0.00
   18    8    5     -0.69      0.00
   20    8    5     -2.99      0.00
   22    8    5     -2.14      0.00
  -29    9    5     -4.93      0.00
  -27    9    5      1.88      0.00
  -25    9    5     -1.70      0.00
  -23    9    5     -4.00      0.00
  -21    9    5      1.75      0.00
  -19    9    5      2.53      0.00
  -17    9    5      7.04      0.00
  -15    9    5      4.31      0.00
  -13    9    5     -5.01      0.00
  -11    9    5      4.95      0.00
   -9    9    5     -1.91      0.00
   -7    9    5     -3.75      0.00
   -5    9    5     12.38      0.00
   -3    9    5     -1.54      0.00
   -1    9    5      0.67      0.00
    1    9    5      2.56      0.00
    3    9    5     -8.31      0.00
    5    9    5      6.52      0.00
    7    9    5     -3.38      0.00
    9    9    5     -8.21      0.00
   11    9    5      3.37      0.00
   13    9    5     -8.70      0.00
   15    9    5     -2.85      0.00
   17    9    5      4.16      0.00
   19    9    5     -3.68      0.00
   21    9    5      0.02      0.00
  -26   10    5      2.52      0.00
  -24   10    5      4.40      0.00
  -22   10    5      0.44      0.00
  -20   10    5      1.91      0.00
  -18   10    5      0.86      0.00
  -16   10    5     -6.53      0.00
  -14   10    5      4.11      0.00
  -12   10    5      0.29      0.00
  -10   10    5     -3.31      0.00
   -8   10    5      7.27      0.00
   -6   10    5    -14.84      0.00
   -4   10    5     -7.92      0.00
   -2   10    5     10.75      0.00
    0   10    5     -9.39      0.00
    2   10    5     -0.64      0.00
    4   10    5      6.87      0.00
    6   10    5      0.43      0.00
    8   10    5      8.01      0.00
   10   10    5      1.48      0.00
   12   10    5      1.37      0.00
   14   10    5      3.73      0.00
   16   10    5     -2.22      0.00
   18   10    5      1.96      0.00
  -23   11    5     -0.45      0.00
  -21   11    5     -1.88      0.00
  -19   11    5     -1.56      0.00
  -17   11    5      0.91      0.00
  -15   11    5     -1.76      0.00
  -13   11    5     -0.97      0.00
  -11   11    5      3.14      0.00
   -9   11    5     -5.47      0.00
   -7   11    5      2.86      0.00
   -5   11    5     16.40      0.00
   -3   11    5      1.05      0.00
   -1   11    5     -1.23      0.00
    1   11    5      9.00      0.00
    3   11    5     -1.57      0.00
    5   11    5     -6.52      0.00
    7   11    5     -1.22      0.00
    9   11    5     -2.14      0.00
   11   11    5     -0.33      0.00
   13   11    5      2.06      0.00
   15   11    5      0.93      0.00
  -20   12    5      1.11      0.00
  -18   12    5      0.00      0.00
  -16   12    5      0.89      0.00
  -14   12    5     -2.99      0.00
  -12   12    5     -4.28      0.00
  -10   12    5      3.65      0.00
   -8   12    5      0.66      0.00
   -6   12    5     -7.06      0.00
   -4   12    5    -10.20      0.00
   -2   12    5     -5.73      0.00
    0   12    5     -2.86      0.00
    2   12    5     -5.64      0.00
    4   12    5      1.68      0.00
    6   12    5      0.86      0.00
    8   12    5     -2.92      0.00
   10   12    5      0.86      0.00
   12   12    5     -2.50      0.00
  -15   13    5      6.98      0.00
  -13   13    5      6.45      0.00
  -11   13    5     -1.69      0.00
   -9   13    5      0.69      0.00
   -7   13    5      3.30      0.00
   -5   13    5      2.99      0.00
   -3   13    5      8.49      0.00
   -1   13    5      4.09      0.00
    1   13    5      2.34      0.00
    3   13    5      5.83      0.00
    5   13    5      1.69      0.00
    7   13    5      2.97      0.00
  -36    0    6      1.76      0.00
  -34    0    6      1.64      0.00
  -32    0    6     -6.90      0.00
  -30    0    6      3.55      0.00
  -28    0    6      2.97      0.00
  -26    0    6    -11.16      0.00
  -24    0    6      3.21      0.00
  -22    0    6      3.09      0.00
  -20    0    6      2.61      0.00
  -18    0    6     -4.16      0.00
  -16    0    6    -13.33      0.00
  -14    0    6     27.43      0.00
  -12    0    6    -20.87      0.00
  -10    0    6    -38.27      0.00
   -8    0    6     42.11      0.00
   -6    0    6    -28.11      0.00
   -4    0    6    -19.89      0.00
   -2    0    6     41.00      0.00
    0    0    6    -52.07      0.00
    2    0    6      0.79      0.00
    4    0    6     42.04      0.00
    6    0    6    -35.34      0.00
    8    0    6     10.00      0.00
   10    0    6     13.65      0.00
   12    0    6    -21.71      0.00
   14    0    6      0.76      0.00
   16    0    6     -3.27      0.00
   18    0    6      8.88      0.00
   20    0    6      7.32      0.00
   22    0    6    -16.13      0.00
   24    0    6      1.08      0.00
   26    0    6      7.13      0.00
   28    0    6     -4.25      0.00
  -37    1    6      2.72      0.00
  -35    1    6     -2.76      0.00
  -33    1    6      1.16      0.00
  -31    1    6      3.99      0.00
  -29    1    6     -3.89      0.00
  -27    1    6      4.62      0.00
  -25    1    6      3.09      0.00
  -23    1    6     -2.00      0.00
  -21    1    6      3.20      0.00
  -19    1    6     -5.83      0.00
  -17    1    6     10.60      0.00
  -15    1    6     -1.14      0.00
  -13    1    6    -19.84      0.00
  -11    1    6     30.74      0.00
   -9    1    6      2.46      0.00
   -7    1    6    -19.49      0.00
   -5    1    6     32.94      0.00
   -3    1    6    -10.93      0.00
   -1    1    6     -6.80      0.00
    1    1    6     30.58      0.00
    3    1    6    -20.31      0.00
    5    1    6     -0.28      0.00
    7    1    6     14.54      0.00
    9    1    6    -14.36      0.00
   11    1    6      8.42      0.00
   13    1    6      6.48      0.00
   15    1    6     -0.46      0.00
   17    1    6      1.30      0.00
   19    1    6    -10.75      0.00
   21    1    6      5.97      0.00
   23    1    6     10.34      0.00
   25    1    6     -5.57      0.00
   27    1    6     -2.22      0.00
  -36    2    6     -1.26      0.00
  -34    2    6      1.12      0.00
  -32    2    6      0.51      0.00
  -30    2    6     -1.81      0.00
  -28    2    6     -2.11      0.00
  -26    2    6      1.51      0.00
  -24    2    6     -1.29      0.00
  -22    2    6     -7.43      0.00
  -20    2    6     -0.75      0.00
  -18    2    6      2.62      0.00
  -16    2    6     -5.04      0.00
  -14    2    6      2.40      0.00
  -12    2    6     12.56      0.00
  -10    2    6     -4.62      0.00
   -8    2    6     -8.11      0.00
   -6    2    6      3.30      0.00
   -4    2    6    -12.70      0.00
   -2    2    6      0.41      0.00
    0    2    6     19.56      0.00
    2    2    6    -14.24      0.00
    4    2    6    -15.24      0.00
    6    2    6      9.03      0.00
    8    2    6     -3.75      0.00
   10    2    6     -9.01      0.00
   12    2    6      1.96      0.00
   14    2    6      3.15      0.00
   16    2    6     -1.47      0.00
   18    2    6     -2.29      0.00
   20    2    6      0.63      0.00
   22    2    6     -1.79      0.00
   24    2    6     -4.69      0.00
   26    2    6      0.70      0.00
  -35    3    6      3.23      0.00
  -33    3    6     -1.37      0.00
  -31    3    6     -4.78      0.00
  -29    3    6      5.47      0.00
  -27    3    6     -3.53      0.00
  -25    3    6     -3.31      0.00
  -23    3    6      6.05      0.00
  -21    3    6     -0.08      0.00
  -19    3    6      7.86      0.00
  -17    3    6     -6.59      0.00
  -15    3    6     -2.56      0.00
  -13    3    6     17.43      0.00
  -11    3    6    -27.82      0.00
   -9    3    6     -4.52      0.00
   -7    3    6     33.69      0.00
   -5    3    6    -11.94      0.00
   -3    3    6      3.44      0.00
   -1    3    6     -3.85      0.00
    1    3    6    -22.34      0.00
    3    3    6     30.96      0.00
    5    3    6      6.75      0.00
    7    3    6    -12.06      0.00
    9    3    6     19.48      0.00
   11    3    6     -0.83      0.00
   13    3    6     -8.10      0.00
   15    3    6     -1.66      0.00
   17    3    6      3.00      0.00
   19    3    6     11.29      0.00
   21    3    6     -5.93      0.00
   23    3    6     -6.17      0.00
   25    3    6      7.68      0.00
   27    3    6      0.94      0.00
  -34    4    6     -2.89      0.00
  -32    4    6      6.15      0.00
  -30    4    6     -0.87      0.00
  -28    4    6     -2.18      0.00
  -26    4    6      6.01      0.00
  -24    4    6     -2.57      0.00
  -22    4    6      4.33      0.00
  -20    4    6     -4.05      0.00
  -18    4    6     -6.76      0.00
  -16    4    6     19.59      0.00
  -14    4    6    -21.00      0.00
  -12    4    6     -6.99      0.00
  -10    4    6     40.84      0.00
   -8    4    6    -30.72      0.00
   -6    4    6    -14.79      0.00
   -4    4    6     31.02      0.00
   -2    4    6    -16.74      0.00
    0    4    6      7.58      0.00
    2    4    6      8.50      0.00
    4    4    6    -19.89      0.00
    6    4    6      2.36      0.00
    8    4    6     -9.97      0.00
   10    4    6     -2.94      0.00
   12    4    6      8.92      0.00
   14    4    6     -5.32      0.00
   16    4    6      3.33      0.00
   18    4    6     -5.36      0.00
   20    4    6     -6.80      0.00
   22    4    6     11.84      0.00
   24    4    6      3.25      0.00
   26    4    6     -7.11      0.00
  -33    5    6     -1.81      0.00
  -31    5    6     -2.09      0.00
  -29    5    6      1.29      0.00
  -27    5    6      0.33      0.00
  -25    5    6      1.03      0.00
  -23    5    6     -2.23      0.00
  -21    5    6     -2.37      0.00
  -19    5    6      6.38      0.00
  -17    5    6     -6.57      0.00
  -15    5    6      1.18      0.00
  -13    5    6     13.54      0.00
  -11    5    6    -15.90      0.00
   -9    5    6      7.54      0.00
   -7    5    6     12.90      0.00
   -5    5    6    -29.78      0.00
   -3    5    6      8.93      0.00
   -1    5    6     16.33      0.00
    1    5    6    -16.97      0.00
    3    5    6      4.00      0.00
    5    5    6      5.80      0.00
    7    5    6      6.31      0.00
    9    5    6      3.89      0.00
   11    5    6    -12.66      0.00
   13    5    6      7.18      0.00
   15    5    6      6.33      0.00
   17    5    6     -9.53      0.00
   19    5    6      3.03      0.00
   21    5    6      0.65      0.00
   23    5    6     -7.53      0.00
   25    5    6      0.27      0.00
  -32    6    6     -0.08      0.00
  -30    6    6      2.88      0.00
  -28    6    6      1.82      0.00
  -26    6    6     -4.38      0.00
  -24    6    6     -1.00      0.00
  -22    6    6      1.70      0.00
  -20    6    6     -0.92      0.00
  -18    6    6      2.04      0.00
  -16    6    6     -4.62      0.00
  -14    6    6      0.32      0.00
  -12    6    6      9.44      0.00
  -10    6    6    -16.52      0.00
   -8    6    6     -4.65      0.00
   -6    6    6     30.07      0.00
   -4    6    6     -2.67      0.00
   -2    6    6    -21.31      0.00
    0    6    6      6.96      0.00
    2    6    6      6.79      0.00
    4    6    6     -4.25      0.00
    6    6    6     -2.71      0.00
    8    6    6     -0.31      0.00
   10    6    6      6.73      0.00
   12    6    6      0.98      0.00
   14    6    6     -8.35      0.00
   16    6    6      2.43      0.00
   18    6    6      6.69      0.00
   20    6    6     -0.13      0.00
   22    6    6     -0.95      0.00
   24    6    6     -0.12      0.00
  -31    7    6     -0.16      0.00
  -29    7    6     -6.69      0.00
  -27    7    6      0.01      0.00
  -25    7    6      3.78      0.00
  -23    7    6     -0.28      0.00
  -21    7    6      0.78      0.00
  -19    7    6     -4.96      0.00
  -17    7    6      3.84      0.00
  -15    7    6      2.59      0.00
  -13    7    6    -15.74      0.00
  -11    7    6     11.47      0.00
   -9    7    6      6.51      0.00
   -7    7    6    -22.84      0.00
   -5    7    6      3.91      0.00
   -3    7    6      5.52      0.00
   -1    7    6     -1.51      0.00
    1    7    6      2.22      0.00
    3    7    6    -10.50      0.00
    5    7    6      2.63      0.00
    7    7    6      0.42      0.00
    9    7    6     -8.80      0.00
   11    7    6      5.47      0.00
   13    7    6      0.14      0.00
   15    7    6     -0.09      0.00
   17    7    6      5.99      0.00
   19    7    6     -3.70      0.00
   21    7    6     -0.67      0.00
   23    7    6      6.52      0.00
  -30    8    6      4.15      0.00
  -28    8    6      1.29      0.00
  -26    8    6     -2.89      0.00
  -24    8    6      1.39      0.00
  -22    8    6     -3.21      0.00
  -20    8    6      0.24      0.00
  -18    8    6      1.98      0.00
  -16    8    6     -5.49      0.00
  -14    8    6     10.71      0.00
  -12    8    6     -2.47      0.00
  -10    8    6     -8.13      0.00
   -8    8    6     22.64      0.00
   -6    8    6    -10.71      0.00
   -4    8    6    -13.18      0.00
   -2    8    6     19.63      0.00
    0    8    6    -10.85      0.00
    2    8    6     -0.05      0.00
    4    8    6     13.93      0.00
    6    8    6     -6.37      0.00
    8    8    6      6.44      0.00
   10    8    6     -2.69      0.00
   12    8    6     -6.31      0.00
   14    8    6      7.16      0.00
   16    8    6     -8.69      0.00
   18    8    6     -6.59      0.00
   20    8    6      3.47      0.00
  -27    9    6      3.12      0.00
  -25    9    6     -1.10      0.00
  -23    9    6      1.91      0.00
  -21    9    6      5.00      0.00
  -19    9    6      1.17      0.00
  -17    9    6      1.94      0.00
  -15    9    6     -3.57      0.00
  -13    9    6     -1.10      0.00
  -11    9    6      8.42      0.00
   -9    9    6    -12.47      0.00
   -7    9    6     -4.07      0.00
   -5    9    6     21.86      0.00
   -3    9    6     -4.87      0.00
   -1    9    6     -5.62      0.00
    1    9    6     12.95      0.00
    3    9    6     -4.39      0.00
    5    9    6     -6.37      0.00
    7    9    6      1.09      0.00
    9    9    6      2.60      0.00
   11    9    6      2.80      0.00
   13    9    6     -2.90      0.00
   15    9    6      1.56      0.00
   17    9    6      2.68      0.00
   19    9    6     -0.06      0.00
  -26   10    6      2.45      0.00
  -24   10    6     -3.33      0.00
  -22   10    6     -3.91      0.00
  -20   10    6     -1.90      0.00
  -18   10    6     -3.30      0.00
  -16   10    6      2.85      0.00
  -14   10    6      1.33      0.00
  -12   10    6     -3.90      0.00
  -10   10    6      3.52      0.00
   -8   10    6      4.00      0.00
   -6   10    6     -1.71      0.00
   -4   10    6     -5.72      0.00
   -2   10    6     -3.94      0.00
    0   10    6     -1.00      0.00
    2   10    6     -7.00      0.00
    4   10    6      1.86      0.00
    6   10    6      6.41      0.00
    8   10    6     -7.65      0.00
   10   10    6     -3.25      0.00
   12   10    6      2.87      0.00
   14   10    6     -1.19      0.00
   16   10    6      3.20      0.00
  -23   11    6      2.82      0.00
  -21   11    6      1.75      0.00
  -19   11    6      2.48      0.00
  -17   11    6     -0.33      0.00
  -15   11    6     -1.38      0.00
  -13   11    6      3.78      0.00
  -11   11    6     -1.96      0.00
   -9   11    6     -0.22      0.00
   -7   11    6     -1.47      0.00
   -5   11    6     -7.75      0.00
   -3   11    6      7.84      0.00
   -1   11    6      4.33      0.00
    1   11    6     -2.31      0.00
    3   11    6      3.48      0.00
    5   11    6     -4.49      0.00
    7   11    6      3.03      0.00
    9   11    6      8.42      0.00
   11   11    6      2.39      0.00
   13   11    6      1.78      0.00
  -18   12    6     -0.69      0.00
  -16   12    6     -0.26      0.00
  -14   12    6     -7.06      0.00
  -12   12    6     -2.85      0.00
  -10   12    6      0.15      0.00
   -8   12    6     -2.83      0.00
   -6   12    6      5.79      0.00
   -4   12    6      2.95      0.00
   -2   12    6     -6.23      0.00
    0   12    6      1.86      0.00
    2   12    6      5.13      0.00
    4   12    6      1.85      0.00
    6   12    6     -1.44      0.00
    8   12    6     -6.55      0.00
   10   12    6     -6.40      0.00
  -13   13    6      6.43      0.00
  -11   13    6      2.21      0.00
   -9   13    6      3.16      0.00
   -7   13    6      0.37      0.00
   -5   13    6     -2.72      0.00
   -3   13    6      0.60      0.00
   -1   13    6      2.30      0.00
    1   13    6     -4.59      0.00
    3   13    6     -6.78      0.00
  -35    1    7      2.81      0.00
  -33    1    7     -1.88      0.00
  -31    1    7     -4.20      0.00
  -29    1    7      8.06      0.00
  -27    1    7      3.10      0.00
  -25    1    7     -4.10      0.00
  -23    1    7     -0.62      0.00
  -21    1    7      2.95      0.00
  -19    1    7      8.59      0.00
  -17    1    7    -12.75      0.00
  -15    1    7      7.62      0.00
  -13    1    7     32.78      0.00
  -11    1    7    -27.60      0.00
   -9    1    7     -2.96      0.00
   -7    1    7     24.93      0.00
   -5    1    7    -26.08      0.00
   -3    1    7     27.52      0.00
   -1    1    7     17.84      0.00
    1    1    7    -43.08      0.00
    3    1    7     14.69      0.00
    5    1    7      8.51      0.00
    7    1    7    -17.16      0.00
    9    1    7     13.63      0.00
   11    1    7      3.14      0.00
   13    1    7     -3.35      0.00
   15    1    7     -5.70      0.00
   17    1    7     -6.61      0.00
   19    1    7     10.46      0.00
   21    1    7     -0.28      0.00
   23    1    7     -9.02      0.00
   25    1    7      4.57      0.00
  -36    2    7     -0.11      0.00
  -34    2    7     -3.21      0.00
  -32    2    7      3.94      0.00
  -30    2    7     -2.86      0.00
  -28    2    7     -7.40      0.00
  -26    2    7      4.99      0.00
  -24    2    7     -1.44      0.00
  -22    2    7      2.49      0.00
  -20    2    7     -3.66      0.00
  -18    2    7     -4.16      0.00
  -16    2    7     18.51      0.00
  -14    2    7    -26.91      0.00
  -12    2    7    -14.20      0.00
  -10    2    7     34.29      0.00
   -8    2    7    -22.07      0.00
   -6    2    7     -0.77      0.00
   -4    2    7     11.85      0.00
   -2    2    7    -38.13      0.00
    0    2    7     23.95      0.00
    2    2    7     20.68      0.00
    4    2    7    -23.37      0.00
    6    2    7     13.42      0.00
    8    2    7     -2.45      0.00
   10    2    7    -11.43      0.00
   12    2    7      3.58      0.00
   14    2    7     -1.50      0.00
   16    2    7     12.62      0.00
   18    2    7     -3.27      0.00
   20    2    7    -13.94      0.00
   22    2    7      9.05      0.00
   24    2    7      2.92      0.00
   26    2    7     -8.17      0.00
  -35    3    7      3.79      0.00
  -33    3    7      1.85      0.00
  -31    3    7      1.18      0.00
  -29    3    7      4.14      0.00
  -27    3    7     -3.25      0.00
  -25    3    7      0.83      0.00
  -23    3    7      1.50      0.00
  -21    3    7     -6.68      0.00
  -19    3    7      7.28      0.00
  -17    3    7     -5.93      0.00
  -15    3    7    -11.15      0.00
  -13    3    7     18.32      0.00
  -11    3    7     -3.16      0.00
   -9    3    7     -5.91      0.00
   -7    3    7     13.19      0.00
   -5    3    7    -11.00      0.00
   -3    3    7      0.40      0.00
   -1    3    7      4.98      0.00
    1    3    7    -11.89      0.00
    3    3    7      2.76      0.00
    5    3    7     -3.19      0.00
    7    3    7      1.29      0.00
    9    3    7      8.84      0.00
   11    3    7     -7.63      0.00
   13    3    7      4.06      0.00
   15    3    7      3.22      0.00
   17    3    7     -5.76      0.00
   19    3    7      7.21      0.00
   21    3    7      1.77      0.00
   23    3    7     -2.51      0.00
   25    3    7      4.28      0.00
  -34    4    7     -3.30      0.00
  -32    4    7     -4.35      0.00
  -30    4    7     -3.42      0.00
  -28    4    7      2.59      0.00
  -26    4    7     -0.89      0.00
  -24    4    7      0.02      0.00
  -22    4    7      2.60      0.00
  -20    4    7     -2.35      0.00
  -18    4    7      1.49      0.00
  -16    4    7      4.04      0.00
  -14    4    7      5.00      0.00
  -12    4    7      5.58      0.00
  -10    4    7     -9.73      0.00
   -8    4    7     -8.64      0.00
   -6    4    7     13.59      0.00
   -4    4    7     12.27      0.00
   -2    4    7     -0.85      0.00
    0    4    7     -4.06      0.00
    2    4    7     -0.93      0.00
    4    4    7      5.87      0.00
    6    4    7     -2.21      0.00
    8    4    7     -8.28      0.00
   10    4    7      6.64      0.00
   12    4    7      5.26      0.00
   14    4    7    -10.87      0.00
   16    4    7     -8.34      0.00
   18    4    7      3.01      0.00
   20    4    7      4.41      0.00
   22    4    7     -1.95      0.00
   24    4    7     -4.26      0.00
  -33    5    7      3.99      0.00
  -31    5    7      5.56      0.00
  -29    5    7     -1.58      0.00
  -27    5    7      1.64      0.00
  -25    5    7     -1.47      0.00
  -23    5    7     -3.95      0.00
  -21    5    7      6.88      0.00
  -19    5    7     -4.91      0.00
  -17    5    7      0.33      0.00
  -15    5    7      7.42      0.00
  -13    5    7    -21.60      0.00
  -11    5    7      2.85      0.00
   -9    5    7     20.31      0.00
   -7    5    7    -18.17      0.00
   -5    5    7    -13.48      0.00
   -3    5    7     -0.45      0.00
   -1    5    7      3.27      0.00
    1    5    7      6.39      0.00
    3    5    7     -7.09      0.00
    5    5    7      4.64      0.00
    7    5    7      6.43      0.00
    9    5    7     -5.82      0.00
   11    5    7      0.48      0.00
   13    5    7      2.39      0.00
   15    5    7     10.94      0.00
   17    5    7      8.05      0.00
   19    5    7     -9.36      0.00
   21    5    7     -4.40      0.00
   23    5    7      3.43      0.00
  -32    6    7     -2.53      0.00
  -30    6    7      0.13      0.00
  -28    6    7     -0.87      0.00
  -26    6    7     -0.82      0.00
  -24    6    7      5.97      0.00
  -22    6    7     -4.57      0.00
  -20    6    7     -0.94      0.00
  -18    6    7      3.80      0.00
  -16    6    7    -14.93      0.00
  -14    6    7      9.10      0.00
  -12    6    7      4.76      0.00
  -10    6    7    -21.71      0.00
   -8    6    7     20.36      0.00
   -6    6    7      6.48      0.00
   -4    6    7    -15.13      0.00
   -2    6    7     14.93      0.00
    0    6    7     -7.57      0.00
    2    6    7     -4.14      0.00
    4    6    7      6.34      0.00
    6    6    7    -13.04      0.00
    8    6    7      6.40      0.00
   10    6    7      0.36      0.00
   12    6    7    -10.58      0.00
   14    6    7      3.47      0.00
   16    6    7     -6.39      0.00
   18    6    7     -2.99      0.00
   20    6    7      8.35      0.00
   22    6    7      1.23      0.00
  -31    7    7     -3.13      0.00
  -29    7    7     -1.42      0.00
  -27    7    7      2.43      0.00
  -25    7    7     -0.83      0.00
  -23    7    7     -1.29      0.00
  -21    7    7      1.64      0.00
  -19    7    7     -0.41      0.00
  -17    7    7      9.63      0.00
  -15    7    7      0.44      0.00
  -13    7    7     -2.89      0.00
  -11    7    7     23.17      0.00
   -9    7    7    -11.07      0.00
   -7    7    7    -18.03      0.00
   -5    7    7     30.24      0.00
   -3    7    7     -5.13      0.00
   -1    7    7    -19.43      0.00
    1    7    7     14.14      0.00
    3    7    7     -1.66      0.00
    5    7    7      0.17      0.00
    7    7    7      4.37      0.00
    9    7    7     -5.57      0.00
   11    7    7      7.21      0.00
   13    7    7      0.12      0.00
   15    7    7     -6.58      0.00
   17    7    7      1.79      0.00
   19    7    7     -2.78      0.00
   21    7    7     -2.03      0.00
  -30    8    7      4.19      0.00
  -28    8    7     -2.08      0.00
  -26    8    7     -2.79      0.00
  -24    8    7     -2.71      0.00
  -22    8    7      1.01      0.00
  -20    8    7      0.07      0.00
  -18    8    7     -8.61      0.00
  -16    8    7      0.77      0.00
  -14    8    7      1.84      0.00
  -12    8    7    -14.52      0.00
  -10    8    7     -0.35      0.00
   -8    8    7     10.40      0.00
   -6    8    7     -9.44      0.00
   -4    8    7     -7.24      0.00
   -2    8    7     11.79      0.00
    0    8    7      7.61      0.00
    2    8    7     -5.60      0.00
    4    8    7     -2.55      0.00
    6    8    7      3.83      0.00
    8    8    7     -1.14      0.00
   10    8    7     -1.11      0.00
   12    8    7      5.38      0.00
   14    8    7      2.42      0.00
   16    8    7      2.82      0.00
   18    8    7      8.35      0.00
   20    8    7      1.23      0.00
  -27    9    7      1.63      0.00
  -25    9    7      2.60      0.00
  -23    9    7      5.44      0.00
  -21    9    7     -1.02      0.00
  -19    9    7      4.15      0.00
  -17    9    7      0.25      0.00
  -15    9    7     -2.90      0.00
  -13    9    7     10.16      0.00
  -11    9    7     -5.52      0.00
   -9    9    7     -1.73      0.00
   -7    9    7     11.15      0.00
   -5    9    7     -9.84      0.00
   -3    9    7      0.82      0.00
   -1    9    7      2.04      0.00
    1    9    7    -10.47      0.00
    3    9    7      6.92      0.00
    5    9    7     -0.96      0.00
    7    9    7     -4.78      0.00
    9    9    7      3.89      0.00
   11    9    7     -8.53      0.00
   13    9    7     -3.95      0.00
   15    9    7      1.50      0.00
   17    9    7     -8.61      0.00
  -24   10    7     -3.48      0.00
  -22   10    7     -1.06      0.00
  -20   10    7      0.82      0.00
  -18   10    7      4.07      0.00
  -16   10    7      3.91      0.00
  -14   10    7     -7.04      0.00
  -12   10    7      4.36      0.00
  -10   10    7      9.62      0.00
   -8   10    7    -12.21      0.00
   -6   10    7      4.41      0.00
   -4   10    7      9.55      0.00
   -2   10    7    -13.41      0.00
    0   10    7      1.85      0.00
    2   10    7      6.03      0.00
    4   10    7     -2.01      0.00
    6   10    7      1.41      0.00
    8   10    7      0.27      0.00
   10   10    7      7.51      0.00
   12   10    7      2.25      0.00
   14   10    7     -2.12      0.00
  -21   11    7     -4.52      0.00
  -19   11    7     -5.85      0.00
  -17   11    7     -8.54      0.00
  -15   11    7     -0.20      0.00
  -13   11    7     -1.76      0.00
  -11   11    7     -9.24      0.00
   -9   11    7     -0.78      0.00
   -7   11    7     -0.22      0.00
   -5   11    7     -5.84      0.00
   -3   11    7      2.73      0.00
   -1   11    7      6.87      0.00
    1   11    7     -2.15      0.00
    3   11    7     -6.37      0.00
    5   11    7      1.19      0.00
    7   11    7      2.93      0.00
    9   11    7     -6.00      0.00
   11   11    7     -3.87      0.00
  -18   12    7      6.11      0.00
  -16   12    7      4.98      0.00
  -14   12    7      3.84      0.00
  -12   12    7      5.08      0.00
  -10   12    7      5.78      0.00
   -8   12    7      5.66      0.00
   -6   12    7      1.70      0.00
   -4   12    7      2.33      0.00
   -2   12    7      2.44      0.00
    0   12    7     -2.97      0.00
    2   12    7      3.70      0.00
    4   12    7      3.41      0.00
    6   12    7     -3.40      0.00
   -9   13    7     -6.58      0.00
   -7   13    7     -3.09      0.00
   -5   13    7     -1.71      0.00
   -3   13    7     -7.79      0.00
   -1   13    7     -3.93      0.00
  -36    0    8     -2.09      0.00
  -34    0    8     -2.35      0.00
  -32    0    8     13.34      0.00
  -30    0    8     11.00      0.00
  -28    0    8     -2.93      0.00
  -26    0    8      0.40      0.00
  -24    0    8      1.25      0.00
  -22    0    8      7.45      0.00
  -20    0    8    -10.61      0.00
  -18    0    8     -7.53      0.00
  -16    0    8     33.55      0.00
  -14    0    8    -17.74      0.00
  -12    0    8    -20.86      0.00
  -10    0    8     33.85      0.00
   -8    0    8    -21.46      0.00
   -6    0    8      6.42      0.00
   -4    0    8     31.91      0.00
   -2    0    8    -45.40      0.00
    0    0    8      3.61      0.00
    2    0    8     26.98      0.00
    4    0    8    -19.24      0.00
    6    0    8      8.16      0.00
    8    0    8      5.92      0.00
   10    0    8     -5.11      0.00
   12    0    8     -3.03      0.00
   14    0    8     -9.83      0.00
   16    0    8     11.54      0.00
   18    0    8      4.98      0.00
   20    0    8    -13.50      0.00
   22    0    8     -0.42      0.00
   24    0    8      1.62      0.00
  -35    1    8      1.66      0.00
  -33    1    8     -5.58      0.00
  -31    1    8    -11.00      0.00
  -29    1    8     -1.41      0.00
  -27    1    8     -1.13      0.00
  -25    1    8     -2.06      0.00
  -23    1    8     -0.84      0.00
  -21    1    8     -1.55      0.00
  -19    1    8     10.97      0.00
  -17    1    8     -7.37      0.00
  -15    1    8     -9.62      0.00
  -13    1    8     20.01      0.00
  -11    1    8     -8.60      0.00
   -9    1    8     -5.68      0.00
   -7    1    8     10.54      0.00
   -5    1    8    -23.38      0.00
   -3    1    8      9.55      0.00
   -1    1    8     19.32      0.00
    1    1    8    -19.50      0.00
    3    1    8      2.54      0.00
    5    1    8      2.95      0.00
    7    1    8     -6.85      0.00
    9    1    8      4.94      0.00
   11    1    8     -2.24      0.00
   13    1    8      5.73      0.00
   15    1    8      2.12      0.00
   17    1    8     -9.79      0.00
   19    1    8      5.29      0.00
   21    1    8      5.57      0.00
   23    1    8     -1.79      0.00
  -36    2    8     -0.85      0.00
  -34    2    8      3.11      0.00
  -32    2    8      3.22      0.00
  -30    2    8     -0.02      0.00
  -28    2    8      3.78      0.00
  -26    2    8      4.03      0.00
  -24    2    8     -1.54      0.00
  -22    2    8     -1.34      0.00
  -20    2    8      2.85      0.00
  -18    2    8     -3.15      0.00
  -16    2    8    -10.58      0.00
  -14    2    8      5.15      0.00
  -12    2    8      7.48      0.00
  -10    2    8     -9.59      0.00
   -8    2    8      4.63      0.00
   -6    2    8      8.04      0.00
   -4    2    8     -7.93      0.00
   -2    2    8      4.36      0.00
    0    2    8      3.17      0.00
    2    2    8     -7.78      0.00
    4    2    8      5.51      0.00
    6    2    8      2.64      0.00
    8    2    8     -9.07      0.00
   10    2    8      1.79      0.00
   12    2    8      6.41      0.00
   14    2    8     -2.02      0.00
   16    2    8     -2.93      0.00
   18    2    8     -1.25      0.00
   20    2    8      1.55      0.00
   22    2    8      1.50      0.00
   24    2    8     -3.10      0.00
  -35    3    8     -0.21      0.00
  -33    3    8      0.70      0.00
  -31    3    8      4.60      0.00
  -29    3    8     -3.39      0.00
  -27    3    8     -2.05      0.00
  -25    3    8      2.95      0.00
  -23    3    8     -0.66      0.00
  -21    3    8      0.26      0.00
  -19    3    8     -7.30      0.00
  -17    3    8      9.75      0.00
  -15    3    8     12.18      0.00
  -13    3    8    -21.67      0.00
  -11    3    8      3.90      0.00
   -9    3    8     11.13      0.00
   -7    3    8    -11.52      0.00
   -5    3    8     12.09      0.00
   -3    3    8     -5.80      0.00
   -1    3    8    -12.46      0.00
    1    3    8     17.16      0.00
    3    3    8     -4.20      0.00
    5    3    8     -6.77      0.00
    7    3    8      8.93      0.00
    9    3    8      0.31      0.00
   11    3    8     -3.49      0.00
   13    3    8     -8.73      0.00
   15    3    8      2.22      0.00
   17    3    8     12.65      0.00
   19    3    8     -5.07      0.00
   21    3    8     -7.51      0.00
   23    3    8      3.06      0.00
  -34    4    8     -0.45      0.00
  -32    4    8     -5.47      0.00
  -30    4    8      2.34      0.00
  -28    4    8      2.21      0.00
  -26    4    8     -7.24      0.00
  -24    4    8      2.77      0.00
  -22    4    8     -1.78      0.00
  -20    4    8      0.43      0.00
  -18    4    8      9.05      0.00
  -16    4    8    -12.55      0.00
  -14    4    8      3.93      0.00
  -12    4    8     10.58      0.00
  -10    4    8    -14.86      0.00
   -8    4    8      4.13      0.00
   -6    4    8     -5.50      0.00
   -4    4    8     -7.11      0.00
   -2    4    8     17.34      0.00
    0    4    8    -12.84      0.00
    2    4    8     -3.38      0.00
    4    4    8     12.37      0.00
    6    4    8    -10.43      0.00
    8    4    8      5.25      0.00
   10    4    8      2.59      0.00
   12    4    8     -2.18      0.00
   14    4    8      8.60      0.00
   16    4    8    -10.73      0.00
   18    4    8     -3.34      0.00
   20    4    8      9.17      0.00
   22    4    8     -4.21      0.00
  -33    5    8      1.72      0.00
  -31    5    8     -2.37      0.00
  -29    5    8     -4.40      0.00
  -27    5    8      4.49      0.00
  -25    5    8      0.01      0.00
  -23    5    8     -0.63      0.00
  -21    5    8      5.08      0.00
  -19    5    8     -7.47      0.00
  -17    5    8     -0.19      0.00
  -15    5    8      1.58      0.00
  -13    5    8    -10.52      0.00
  -11    5    8     13.67      0.00
   -9    5    8      0.79      0.00
   -7    5    8    -14.77      0.00
   -5    5    8     18.69      0.00
   -3    5    8     -0.71      0.00
   -1    5    8     -9.71      0.00
    1    5    8     11.33      0.00
    3    5    8     -6.42      0.00
    5    5    8      1.25      0.00
    7    5    8      2.48      0.00
    9    5    8    -10.31      0.00
   11    5    8      7.68      0.00
   13    5    8      4.03      0.00
   15    5    8     -2.12      0.00
   17    5    8      2.63      0.00
   19    5    8     -1.89      0.00
   21    5    8      5.24      0.00
  -32    6    8      3.42      0.00
  -30    6    8      3.22      0.00
  -28    6    8      0.32      0.00
  -26    6    8      1.41      0.00
  -24    6    8     -2.95      0.00
  -22    6    8     -2.19      0.00
  -20    6    8      3.14      0.00
  -18    6    8     -2.58      0.00
  -16    6    8      0.65      0.00
  -14    6    8      9.70      0.00
  -12    6    8     -7.64      0.00
  -10    6    8     -7.16      0.00
   -8    6    8     18.61      0.00
   -6    6    8      0.11      0.00
   -4    6    8    -17.89      0.00
   -2    6    8      5.77      0.00
    0    6    8      6.54      0.00
    2    6    8     -8.21      0.00
    4    6    8     -2.26      0.00
    6    6    8      2.54      0.00
    8    6    8      0.73      0.00
   10    6    8     -1.95      0.00
   12    6    8     -6.75      0.00
   14    6    8     -3.02      0.00
   16    6    8      4.84      0.00
   18    6    8      1.61      0.00
   20    6    8     -6.27      0.00
  -31    7    8     -2.24      0.00
  -29    7    8      1.09      0.00
  -27    7    8     -3.65      0.00
  -25    7    8      1.38      0.00
  -23    7    8      5.83      0.00
  -21    7    8     -6.33      0.00
  -19    7    8      3.36      0.00
  -17    7    8      3.06      0.00
  -15    7    8     -8.65      0.00
  -13    7    8      9.53      0.00
  -11    7    8     -0.61      0.00
   -9    7    8    -11.01      0.00
   -7    7    8      6.06      0.00
   -5    7    8     -1.45      0.00
   -3    7    8      2.26      0.00
   -1    7    8      2.69      0.00
    1    7    8     -5.28      0.00
    3    7    8     10.09      0.00
    5    7    8      0.26      0.00
    7    7    8     -6.45      0.00
    9    7    8      7.91      0.00
   11    7    8      1.01      0.00
   13    7    8     -2.40      0.00
   15    7    8     -0.34      0.00
   17    7    8     -3.80      0.00
   19    7    8      1.45      0.00
  -28    8    8     -0.23      0.00
  -26    8    8      2.55      0.00
  -24    8    8     -1.57      0.00
  -22    8    8      2.13      0.00
  -20    8    8      3.16      0.00
  -18    8    8      0.79      0.00
  -16    8    8     10.86      0.00
  -14    8    8     -8.84      0.00
  -12    8    8     -4.83      0.00
  -10    8    8     20.36      0.00
   -8    8    8    -15.26      0.00
   -6    8    8     -5.73      0.00
   -4    8    8     21.41      0.00
   -2    8    8    -10.80      0.00
    0    8    8     -2.61      0.00
    2    8    8      6.01      0.00
    4    8    8     -5.93      0.00
    6    8    8      5.90      0.00
    8    8    8     -0.83      0.00
   10    8    8     -3.16      0.00
   12    8    8      5.60      0.00
   14    8    8      1.18      0.00
   16    8    8      1.79      0.00
   18    8    8     -0.17      0.00
  -27    9    8     -1.49      0.00
  -25    9    8     -1.02      0.00
  -23    9    8     -3.07      0.00
  -21    9    8     -1.03      0.00
  -19    9    8     -4.92      0.00
  -17    9    8    -16.10      0.00
  -15    9    8     -0.42      0.00
  -13    9    8      7.75      0.00
  -11    9    8    -13.68      0.00
   -9    9    8      2.42      0.00
   -7    9    8     14.60      0.00
   -5    9    8    -14.99      0.00
   -3    9    8     -7.21      0.00
   -1    9    8      9.60      0.00
    1    9    8     -2.01      0.00
    3    9    8     -5.01      0.00
    5    9    8     -3.45      0.00
    7    9    8      2.23      0.00
    9    9    8      0.08      0.00
   11    9    8     -4.53      0.00
   13    9    8      4.37      0.00
   15    9    8     -0.78      0.00
  -24   10    8     -1.96      0.00
  -22   10    8     -0.11      0.00
  -20   10    8      1.25      0.00
  -18   10    8     10.45      0.00
  -16   10    8      4.89      0.00
  -14   10    8     -2.05      0.00
  -12   10    8      5.32      0.00
  -10   10    8     -2.59      0.00
   -8   10    8     -6.08      0.00
   -6   10    8      0.51      0.00
   -4   10    8      0.66      0.00
   -2   10    8      0.73      0.00
    0   10    8     -4.82      0.00
    2   10    8     -0.36      0.00
    4   10    8      6.73      0.00
    6   10    8     -2.57      0.00
    8   10    8     -2.70      0.00
   10   10    8      1.70      0.00
   12   10    8     -3.96      0.00
  -21   11    8      1.75      0.00
  -19   11    8     -2.83      0.00
  -17   11    8      1.82      0.00
  -15   11    8      0.48      0.00
  -13   11    8     -3.94      0.00
  -11   11    8      5.85      0.00
   -9   11    8      3.25      0.00
   -7   11    8      0.15      0.00
   -5   11    8     12.54      0.00
   -3   11    8      3.79      0.00
   -1   11    8     -1.01      0.00
    1   11    8      6.42      0.00
    3   11    8      2.34      0.00
    5   11    8      3.25      0.00
    7   11    8     -0.38      0.00
    9   11    8      1.28      0.00
  -16   12    8     -3.98      0.00
  -14   12    8      2.06      0.00
  -12   12    8     -3.25      0.00
  -10   12    8     -3.56      0.00
   -8   12    8      1.33      0.00
   -6   12    8    -10.14      0.00
   -4   12    8    -10.34      0.00
   -2   12    8     -0.02      0.00
    0   12    8     -1.60      0.00
    2   12    8     -7.06      0.00
    4   12    8     -9.82      0.00
  -35    1    9     -2.84      0.00
  -33    1    9     -6.57      0.00
  -31    1    9      1.76      0.00
  -29    1    9      1.47      0.00
  -27    1    9     -0.62      0.00
  -25    1    9     -1.34      0.00
  -23    1    9      4.05      0.00
  -21    1    9      9.13      0.00
  -19    1    9    -15.01      0.00
  -17    1    9      0.58      0.00
  -15    1    9     19.09      0.00
  -13    1    9    -20.67      0.00
  -11    1    9     -1.21      0.00
   -9    1    9      9.17      0.00
   -7    1    9    -21.42      0.00
   -5    1    9     13.04      0.00
   -3    1    9      3.30      0.00
   -1    1    9    -23.11      0.00
    1    1    9     10.52      0.00
    3    1    9      4.67      0.00
    5    1    9     -8.30      0.00
    7    1    9      0.26      0.00
    9    1    9      2.25      0.00
   11    1    9      5.42      0.00
   13    1    9     -6.62      0.00
   15    1    9     -6.08      0.00
   17    1    9      6.41      0.00
   19    1    9     -0.60      0.00
   21    1    9     -4.62      0.00
  -34    2    9      7.01      0.00
  -32    2    9     -0.22      0.00
  -30    2    9     -1.54      0.00
  -28    2    9      2.79      0.00
  -26    2    9     -2.29      0.00
  -24    2    9     -2.57      0.00
  -22    2    9    -10.28      0.00
  -20    2    9      2.84      0.00
  -18    2    9     13.07      0.00
  -16    2    9    -19.48      0.00
  -14    2    9      1.96      0.00
  -12    2    9     13.90      0.00
  -10    2    9    -15.14      0.00
   -8    2    9     16.51      0.00
   -6    2    9     -0.37      0.00
   -4    2    9    -19.36      0.00
   -2    2    9     26.32      0.00
    0    2    9     -0.20      0.00
    2    2    9    -14.66      0.00
    4    2    9     11.14      0.00
    6    2    9      0.58      0.00
    8    2    9      2.70      0.00
   10    2    9     -4.12      0.00
   12    2    9     -4.13      0.00
   14    2    9     14.16      0.00
   16    2    9     -2.45      0.00
   18    2    9     -7.08      0.00
   20    2    9      6.62      0.00
   22    2    9      1.14      0.00
  -35    3    9     -3.19      0.00
  -33    3    9      1.27      0.00
  -31    3    9      1.34      0.00
  -29    3    9     -6.39      0.00
  -27    3    9      2.39      0.00
  -25    3    9      5.44      0.00
  -23    3    9      1.88      0.00
  -21    3    9      3.07      0.00
  -19    3    9     -4.66      0.00
  -17    3    9      2.88      0.00
  -15    3    9      2.95      0.00
  -13    3    9     -3.70      0.00
  -11    3    9     12.32      0.00
   -9    3    9     -6.35      0.00
   -7    3    9     -9.08      0.00
   -5    3    9     18.81      0.00
   -3    3    9    -10.98      0.00
   -1    3    9     -9.55      0.00
    1    3    9     17.00      0.00
    3    3    9     -7.65      0.00
    5    3    9     -3.50      0.00
    7    3    9      1.30      0.00
    9    3    9     -8.71      0.00
   11    3    9      7.33      0.00
   13    3    9     -2.86      0.00
   15    3    9     -6.42      0.00
   17    3    9      8.33      0.00
   19    3    9     -3.50      0.00
   21    3    9     -3.48      0.00
  -34    4    9     -4.41      0.00
  -32    4    9     -1.78      0.00
  -30    4    9      5.66      0.00
  -28    4    9      0.74      0.00
  -26    4    9     -4.85      0.00
  -24    4    9     -1.24      0.00
  -22    4    9      1.10      0.00
  -20    4    9     -0.08      0.00
  -18    4    9     -1.90      0.00
  -16    4    9      3.02      0.00
  -14    4    9      2.33      0.00
  -12    4    9     -9.53      0.00
  -10    4    9     -3.95      0.00
   -8    4    9      8.05      0.00
   -6    4    9      1.31      0.00
   -4    4    9     -1.48      0.00
   -2    4    9      1.89      0.00
    0    4    9     -2.99      0.00
    2    4    9     -0.45      0.00
    4    4    9      2.38      0.00
    6    4    9     -0.13      0.00
    8    4    9      5.84      0.00
   10    4    9      4.32      0.00
   12    4    9     -2.32      0.00
   14    4    9     -1.80      0.00
   16    4    9     -0.84      0.00
   18    4    9      3.28      0.00
   20    4    9      1.67      0.00
  -33    5    9      4.39      0.00
  -31    5    9     -4.26      0.00
  -29    5    9      1.59      0.00
  -27    5    9     -0.44      0.00
  -25    5    9      0.81      0.00
  -23    5    9      4.64      0.00
  -21    5    9     -4.35      0.00
  -19    5    9      2.62      0.00
  -17    5    9      0.52      0.00
  -15    5    9     -6.01      0.00
  -13    5    9      6.69      0.00
  -11    5    9      0.22      0.00
   -9    5    9     -0.86      0.00
   -7    5    9     -1.31      0.00
   -5    5    9    -13.48      0.00
   -3    5    9      7.39      0.00
   -1    5    9      5.77      0.00
    1    5    9    -11.88      0.00
    3    5    9      6.75      0.00
    5    5    9      0.96      0.00
    7    5    9     -8.60      0.00
    9    5    9      0.65      0.00
   11    5    9     -4.62      0.00
   13    5    9      4.36      0.00
   15    5    9      4.88      0.00
   17    5    9     -9.35      0.00
   19    5    9      1.34      0.00
  -32    6    9      1.08      0.00
  -30    6    9     -2.28      0.00
  -28    6    9     -2.08      0.00
  -26    6    9      4.48      0.00
  -24    6    9     -6.32      0.00
  -22    6    9     -2.08      0.00
  -20    6    9      2.24      0.00
  -18    6    9     -5.88      0.00
  -16    6    9      8.08      0.00
  -14    6    9     -3.21      0.00
  -12    6    9     -6.70      0.00
  -10    6    9     15.90      0.00
   -8    6    9     -6.98      0.00
   -6    6    9     -1.39      0.00
   -4    6    9     14.11      0.00
   -2    6    9    -11.88      0.00
    0    6    9      2.93      0.00
    2    6    9      6.13      0.00
    4    6    9     -8.86      0.00
    6    6    9      7.11      0.00
    8    6    9      1.56      0.00
   10    6    9     -2.54      0.00
   12    6    9      0.89      0.00
   14    6    9     -3.50      0.00
   16    6    9      6.30      0.00
   18    6    9      0.69      0.00
  -29    7    9      1.39      0.00
  -27    7    9     -0.57      0.00
  -25    7    9      1.28      0.00
  -23    7    9      2.06      0.00
  -21    7    9      3.11      0.00
  -19    7    9      6.46      0.00
  -17    7    9     -4.75      0.00
  -15    7    9     -3.84      0.00
  -13    7    9     13.12      0.00
  -11    7    9    -10.93      0.00
   -9    7    9     -9.92      0.00
   -7    7    9     19.90      0.00
   -5    7    9     -5.26      0.00
   -3    7    9     -8.60      0.00
   -1    7    9     11.19      0.00
    1    7    9     -0.77      0.00
    3    7    9     -2.18      0.00
    5    7    9     -0.16      0.00
    7    7    9     -0.15      0.00
    9    7    9      2.20      0.00
   11    7    9     -0.70      0.00
   13    7    9     -0.53      0.00
   15    7    9     -4.85      0.00
   17    7    9     -2.63      0.00
  -28    8    9      2.73      0.00
  -26    8    9     -1.95      0.00
  -24    8    9      1.19      0.00
  -22    8    9     -0.24      0.00
  -20    8    9     -9.68      0.00
  -18    8    9      1.58      0.00
  -16    8    9      4.23      0.00
  -14    8    9     -8.65      0.00
  -12    8    9      2.18      0.00
  -10    8    9      7.36      0.00
   -8    8    9     -7.52      0.00
   -6    8    9     -4.98      0.00
   -4    8    9      3.97      0.00
   -2    8    9     -1.75      0.00
    0    8    9     -7.23      0.00
    2    8    9     -1.70      0.00
    4    8    9      5.57      0.00
    6    8    9      0.40      0.00
    8    8    9     -4.95      0.00
   10    8    9      3.35      0.00
   12    8    9      5.87      0.00
   14    8    9      2.34      0.00
  -25    9    9     -1.61      0.00
  -23    9    9     -0.49      0.00
  -21    9    9      4.20      0.00
  -19    9    9     -1.21      0.00
  -17    9    9     -2.54      0.00
  -15    9    9      6.41      0.00
  -13    9    9     -4.61      0.00
  -11    9    9     -0.81      0.00
   -9    9    9      5.81      0.00
   -7    9    9     -8.99      0.00
   -5    9    9      1.44      0.00
   -3    9    9      5.92      0.00
   -1    9    9     -1.44      0.00
    1    9    9      5.68      0.00
    3    9    9     -0.34      0.00
    5    9    9     -4.05      0.00
    7    9    9      0.21      0.00
    9    9    9     -2.13      0.00
   11    9    9     -3.73      0.00
   13    9    9     -5.14      0.00
  -22   10    9     -4.95      0.00
  -20   10    9      2.97      0.00
  -18   10    9      3.86      0.00
  -16   10    9     -6.78      0.00
  -14   10    9      5.23      0.00
  -12   10    9      3.15      0.00
  -10   10    9    -10.32      0.00
   -8   10    9     10.33      0.00
   -6   10    9      9.10      0.00
   -4   10    9     -8.85      0.00
   -2   10    9      0.31      0.00
    0   10    9      0.84      0.00
    2   10    9     -0.98      0.00
    4   10    9     -0.10      0.00
    6   10    9      1.21      0.00
    8   10    9      9.94      0.00
   10   10    9      0.23      0.00
  -19   11    9     -1.08      0.00
  -17   11    9      3.58      0.00
  -15   11    9     -1.87      0.00
  -13   11    9     -4.59      0.00
  -11   11    9      6.93      0.00
   -9   11    9      0.02      0.00
   -7   11    9     -7.37      0.00
   -5   11    9      0.57      0.00
   -3   11    9      0.55      0.00
   -1   11    9     -2.08      0.00
    1   11    9     -2.74      0.00
    3   11    9     -0.15      0.00
    5   11    9     -0.43      0.00
  -10   12    9     -0.49      0.00
   -8   12    9     -5.23      0.00
   -6   12    9     -1.20      0.00
   -4   12    9      4.85      0.00
   -2   12    9      3.30      0.00
  -34    0   10      7.66      0.00
  -32    0   10      9.24      0.00
  -30    0   10      5.41      0.00
  -28    0   10      1.19      0.00
  -26    0   10     -2.41      0.00
  -24    0   10      6.29      0.00
  -22    0   10     -4.15      0.00
  -20    0   10     -4.96      0.00
  -18    0   10     11.01      0.00
  -16    0   10    -19.73      0.00
  -14    0   10     -8.95      0.00
  -12    0   10     18.29      0.00
  -10    0   10     -8.86      0.00
   -8    0   10     11.11      0.00
   -6    0   10      5.15      0.00
   -4    0   10    -26.28      0.00
   -2    0   10     10.44      0.00
    0    0   10      9.22      0.00
    2    0   10     -7.34      0.00
    4    0   10      5.05      0.00
    6    0   10      2.30      0.00
    8    0   10      5.66      0.00
   10    0   10     -6.22      0.00
   12    0   10     -8.22      0.00
   14    0   10     13.10      0.00
   16    0   10      2.81      0.00
   18    0   10     -7.36      0.00
   20    0   10     -0.18      0.00
  -35    1   10     -4.34      0.00
  -33    1   10     -6.29      0.00
  -31    1   10     -3.67      0.00
  -29    1   10     -3.64      0.00
  -27    1   10      1.27      0.00
  -25    1   10     -0.66      0.00
  -23    1   10     -1.24      0.00
  -21    1   10      5.42      0.00
  -19    1   10     -5.33      0.00
  -17    1   10      5.07      0.00
  -15    1   10     14.06      0.00
  -13    1   10     -9.50      0.00
  -11    1   10      1.78      0.00
   -9    1   10     -0.17      0.00
   -7    1   10    -13.14      0.00
   -5    1   10     17.64      0.00
   -3    1   10      3.52      0.00
   -1    1   10    -15.13      0.00
    1    1   10      6.56      0.00
    3    1   10     -0.50      0.00
    5    1   10     -3.64      0.00
    7    1   10     -1.56      0.00
    9    1   10     -3.13      0.00
   11    1   10      9.28      0.00
   13    1   10     -1.68      0.00
   15    1   10     -9.44      0.00
   17    1   10      3.04      0.00
   19    1   10      1.79      0.00
  -34    2   10      2.04      0.00
  -32    2   10     -2.01      0.00
  -30    2   10      1.84      0.00
  -28    2   10      1.91      0.00
  -26    2   10     -2.55      0.00
  -24    2   10     -3.16      0.00
  -22    2   10      0.33      0.00
  -20    2   10      3.26      0.00
  -18    2   10     -7.13      0.00
  -16    2   10     -3.80      0.00
  -14    2   10      6.95      0.00
  -12    2   10     -7.08      0.00
  -10    2   10     -3.35      0.00
   -8    2   10      7.53      0.00
   -6    2   10     -6.98      0.00
   -4    2   10     -1.55      0.00
   -2    2   10      9.93      0.00
    0    2   10     -2.57      0.00
    2    2   10     -3.38      0.00
    4    2   10      3.12      0.00
    6    2   10     -0.91      0.00
    8    2   10      1.57      0.00
   10    2   10      0.95      0.00
   12    2   10     -4.41      0.00
   14    2   10      0.95      0.00
   16    2   10      2.79      0.00
   18    2   10      0.67      0.00
   20    2   10      1.06      0.00
  -33    3   10      3.54      0.00
  -31    3   10     -0.89      0.00
  -29    3   10     -0.96      0.00
  -27    3   10      0.67      0.00
  -25    3   10      4.77      0.00
  -23    3   10      1.35      0.00
  -21    3   10     -8.22      0.00
  -19    3   10      7.31      0.00
  -17    3   10      3.65      0.00
  -15    3   10    -10.90      0.00
  -13    3   10      8.94      0.00
  -11    3   10      2.04      0.00
   -9    3   10     -1.90      0.00
   -7    3   10     10.89      0.00
   -5    3   10    -12.66      0.00
   -3    3   10     -7.04      0.00
   -1    3   10      9.66      0.00
    1    3   10     -3.86      0.00
    3    3   10      0.33      0.00
    5    3   10      1.59      0.00
    7    3   10     -1.50      0.00
    9    3   10      1.30      0.00
   11    3   10     -3.60      0.00
   13    3   10      3.54      0.00
   15    3   10      5.99      0.00
   17    3   10     -4.36      0.00
   19    3   10     -2.78      0.00
  -32    4   10      2.80      0.00
  -30    4   10      0.78      0.00
  -28    4   10     -3.79      0.00
  -26    4   10      1.83      0.00
  -24    4   10     -2.92      0.00
  -22    4   10      5.68      0.00
  -20    4   10      3.68      0.00
  -18    4   10     -4.36      0.00
  -16    4   10     11.42      0.00
  -14    4   10     -7.15      0.00
  -12    4   10     -5.40      0.00
  -10    4   10     14.36      0.00
   -8    4   10    -17.57      0.00
   -6    4   10      3.00      0.00
   -4    4   10     23.08      0.00
   -2    4   10    -18.27      0.00
    0    4   10     -2.12      0.00
    2    4   10     10.68      0.00
    4    4   10     -7.59      0.00
    6    4   10      4.75      0.00
    8    4   10     -0.74      0.00
   10    4   10      0.40      0.00
   12    4   10      7.87      0.00
   14    4   10    -10.53      0.00
   16    4   10     -1.53      0.00
   18    4   10      9.23      0.00
  -31    5   10     -1.56      0.00
  -29    5   10      5.13      0.00
  -27    5   10      1.44      0.00
  -25    5   10     -1.29      0.00
  -23    5   10     -0.52      0.00
  -21    5   10     -6.18      0.00
  -19    5   10     -3.21      0.00
  -17    5   10     -5.60      0.00
  -15    5   10     -1.08      0.00
  -13    5   10     10.55      0.00
  -11    5   10     -9.11      0.00
   -9    5   10     -3.37      0.00
   -7    5   10     12.91      0.00
   -5    5   10    -10.19      0.00
   -3    5   10      0.54      0.00
   -1    5   10     11.22      0.00
    1    5   10     -7.95      0.00
    3    5   10     -0.76      0.00
    5    5   10     -0.88      0.00
    7    5   10     -3.53      0.00
    9    5   10      0.05      0.00
   11    5   10     -8.70      0.00
   13    5   10      1.08      0.00
   15    5   10      2.25      0.00
   17    5   10     -9.64      0.00
  -30    6   10     -3.62      0.00
  -28    6   10     -1.17      0.00
  -26    6   10     -5.08      0.00
  -24    6   10      0.34      0.00
  -22    6   10      4.58      0.00
  -20    6   10      2.42      0.00
  -18    6   10      5.34      0.00
  -16    6   10      2.42      0.00
  -14    6   10     -3.22      0.00
  -12    6   10     -1.91      0.00
  -10    6   10      4.23      0.00
   -8    6   10      1.39      0.00
   -6    6   10     -7.15      0.00
   -4    6   10     -3.55      0.00
   -2    6   10      3.47      0.00
    0    6   10      0.73      0.00
    2    6   10     -1.23      0.00
    4    6   10      5.27      0.00
    6    6   10      2.21      0.00
    8    6   10     -0.88      0.00
   10    6   10      5.51      0.00
   12    6   10      1.25      0.00
   14    6   10      2.90      0.00
   16    6   10      8.27      0.00
  -29    7   10     -0.72      0.00
  -27    7   10      2.76      0.00
  -25    7   10      5.66      0.00
  -23    7   10     -3.27      0.00
  -21    7   10     -0.05      0.00
  -19    7   10     -1.80      0.00
  -17    7   10     -5.10      0.00
  -15    7   10      1.80      0.00
  -13    7   10     -2.78      0.00
  -11    7   10      0.52      0.00
   -9    7   10      1.70      0.00
   -7    7   10     -3.77      0.00
   -5    7   10      7.01      0.00
   -3    7   10     -0.63      0.00
   -1    7   10     -8.57      0.00
    1    7   10      4.03      0.00
    3    7   10      1.36      0.00
    5    7   10     -1.91      0.00
    7    7   10      0.95      0.00
    9    7   10      1.86      0.00
   11    7   10      3.59      0.00
   13    7   10     -3.74      0.00
  -26    8   10     -1.99      0.00
  -24    8   10     -0.48      0.00
  -22    8   10     -4.17      0.00
  -20    8   10     -1.52      0.00
  -18    8   10      5.32      0.00
  -16    8   10     -3.44      0.00
  -14    8   10      2.05      0.00
  -12    8   10      8.12      0.00
  -10    8   10    -10.25      0.00
   -8    8   10      0.39      0.00
   -6    8   10      8.59      0.00
   -4    8   10     -5.02      0.00
   -2    8   10      3.05      0.00
    0    8   10      2.50      0.00
    2    8   10     -5.36      0.00
    4    8   10     -6.52      0.00
    6    8   10     -4.22      0.00
    8    8   10      1.43      0.00
   10    8   10     -6.49      0.00
   12    8   10     -4.35      0.00
  -25    9   10     -2.20      0.00
  -23    9   10      3.07      0.00
  -21    9   10      5.92      0.00
  -19    9   10     -3.97      0.00
  -17    9   10      2.67      0.00
  -15    9   10      4.51      0.00
  -13    9   10     -9.74      0.00
  -11    9   10      3.42      0.00
   -9    9   10      8.28      0.00
   -7    9   10     -8.76      0.00
   -5    9   10     -1.86      0.00
   -3    9   10      2.71      0.00
   -1    9   10     -1.54      0.00
    1    9   10      3.71      0.00
    3    9   10      7.10      0.00
    5    9   10     10.58      0.00
    7    9   10      2.16      0.00
    9    9   10     -5.35      0.00
  -20   10   10      1.48      0.00
  -18   10   10     -2.19      0.00
  -16   10   10     -4.43      0.00
  -14   10   10      1.65      0.00
  -12   10   10     -0.03      0.00
  -10   10   10     -1.97      0.00
   -8   10   10      1.90      0.00
   -6   10   10      0.18      0.00
   -4   10   10      0.14      0.00
   -2   10   10      0.91      0.00
    0   10   10     -2.05      0.00
    2   10   10     -5.65      0.00
    4   10   10     -9.28      0.00
    6   10   10     -5.31      0.00
  -15   11   10      0.66      0.00
  -13   11   10      7.77      0.00
  -11   11   10     -0.54      0.00
   -9   11   10     -5.51      0.00
   -7   11   10      3.64      0.00
   -5   11   10      0.75      0.00
   -3   11   10     -1.82      0.00
   -1   11   10     -0.35      0.00
    1   11   10      1.44      0.00
  -33    1   11      4.22      0.00
  -31    1   11      4.65      0.00
  -29    1   11      2.10      0.00
  -27    1   11     -3.14      0.00
  -25    1   11     -2.40      0.00
  -23    1   11      0.07      0.00
  -21    1   11     -5.98      0.00
  -19    1   11      4.22      0.00
  -17    1   11      7.78      0.00
  -15    1   11     -8.82      0.00
  -13    1   11      0.39      0.00
  -11    1   11      3.31      0.00
   -9    1   11      0.31      0.00
   -7    1   11     11.22      0.00
   -5    1   11     -2.94      0.00
   -3    1   11     -5.06      0.00
   -1    1   11      3.77      0.00
    1    1   11     -4.71      0.00
    3    1   11     -0.65      0.00
    5    1   11      2.39      0.00
    7    1   11      6.06      0.00
    9    1   11      6.79      0.00
   11    1   11     -6.12      0.00
   13    1   11      0.63      0.00
   15    1   11      9.82      0.00
   17    1   11      3.13      0.00
  -32    2   11     -4.30      0.00
  -30    2   11     -3.24      0.00
  -28    2   11      0.88      0.00
  -26    2   11      6.64      0.00
  -24    2   11     -0.97      0.00
  -22    2   11      6.67      0.00
  -20    2   11      3.71      0.00
  -18    2   11    -11.51      0.00
  -16    2   11     10.13      0.00
  -14    2   11      4.40      0.00
  -12    2   11     -6.32      0.00
  -10    2   11     10.72      0.00
   -8    2   11    -14.94      0.00
   -6    2   11     -8.11      0.00
   -4    2   11     19.81      0.00
   -2    2   11     -5.71      0.00
    0    2   11     -2.02      0.00
    2    2   11      7.77      0.00
    4    2   11     -4.99      0.00
    6    2   11     -3.29      0.00
    8    2   11     -9.58      0.00
   10    2   11      0.10      0.00
   12    2   11      9.66      0.00
   14    2   11     -7.19      0.00
   16    2   11     -5.79      0.00
  -33    3   11      1.25      0.00
  -31    3   11     -1.46      0.00
  -29    3   11      3.40      0.00
  -27    3   11     -2.31      0.00
  -25    3   11     -3.58      0.00
  -23    3   11     -0.52      0.00
  -21    3   11     -3.92      0.00
  -19    3   11      6.28      0.00
  -17    3   11     -6.57      0.00
  -15    3   11    -10.23      0.00
  -13    3   11     12.13      0.00
  -11    3   11     -9.95      0.00
   -9    3   11     -5.36      0.00
   -7    3   11     17.72      0.00
   -5    3   11    -14.35      0.00
   -3    3   11     -9.25      0.00
   -1    3   11     11.53      0.00
    1    3   11     -4.66      0.00
    3    3   11      1.40      0.00
    5    3   11      5.09      0.00
    7    3   11      0.97      0.00
    9    3   11      5.63      0.00
   11    3   11     -6.46      0.00
   13    3   11     -6.08      0.00
   15    3   11      2.71      0.00
   17    3   11     -3.13      0.00
  -32    4   11      4.78      0.00
  -30    4   11     -2.33      0.00
  -28    4   11     -4.30      0.00
  -26    4   11     -0.72      0.00
  -24    4   11      2.51      0.00
  -22    4   11     -2.64      0.00
  -20    4   11     -5.88      0.00
  -18    4   11      5.24      0.00
  -16    4   11      5.76      0.00
  -14    4   11     -5.88      0.00
  -12    4   11     -0.27      0.00
  -10    4   11      6.07      0.00
   -8    4   11      0.57      0.00
   -6    4   11      4.18      0.00
   -4    4   11      4.15      0.00
   -2    4   11     -2.96      0.00
    0    4   11     -1.23      0.00
    2    4   11     -3.56      0.00
    4    4   11     -4.35      0.00
    6    4   11      0.27      0.00
    8    4   11     -2.65      0.00
   10    4   11      0.32      0.00
   12    4   11      4.77      0.00
   14    4   11      2.32      0.00
   16    4   11      4.50      0.00
  -31    5   11      3.30      0.00
  -29    5   11      4.42      0.00
  -27    5   11      5.24      0.00
  -25    5   11      4.02      0.00
  -23    5   11     -1.91      0.00
  -21    5   11      6.17      0.00
  -19    5   11     -2.17      0.00
  -17    5   11     -1.89      0.00
  -15    5   11      6.77      0.00
  -13    5   11     -8.00      0.00
  -11    5   11      2.37      0.00
   -9    5   11      2.16      0.00
   -7    5   11    -17.39      0.00
   -5    5   11      3.91      0.00
   -3    5   11      8.11      0.00
   -1    5   11     -8.18      0.00
    1    5   11      4.44      0.00
    3    5   11      6.35      0.00
    5    5   11     -0.99      0.00
    7    5   11      2.63      0.00
    9    5   11     -1.07      0.00
   11    5   11      0.69      0.00
   13    5   11      3.14      0.00
   15    5   11     -4.45      0.00
  -30    6   11     -5.34      0.00
  -28    6   11     -5.40      0.00
  -26    6   11     -7.48      0.00
  -24    6   11     -0.86      0.00
  -22    6   11      0.84      0.00
  -20    6   11      0.65      0.00
  -18    6   11      1.15      0.00
  -16    6   11     -7.51      0.00
  -14    6   11      7.48      0.00
  -12    6   11      9.39      0.00
  -10    6   11    -10.10      0.00
   -8    6   11      9.48      0.00
   -6    6   11      6.58      0.00
   -4    6   11    -12.33      0.00
   -2    6   11      6.85      0.00
    0    6   11      5.04      0.00
    2    6   11     -3.09      0.00
    4    6   11     -0.58      0.00
    6    6   11     -3.83      0.00
    8    6   11      5.62      0.00
   10    6   11     -1.21      0.00
   12    6   11     -9.51      0.00
  -27    7   11      7.81      0.00
  -25    7   11      0.24      0.00
  -23    7   11     -1.53      0.00
  -21    7   11     -0.08      0.00
  -19    7   11     -2.52      0.00
  -17    7   11      2.23      0.00
  -15    7   11     -0.14      0.00
  -13    7   11    -11.64      0.00
  -11    7   11     -2.89      0.00
   -9    7   11      4.08      0.00
   -7    7   11     -1.67      0.00
   -5    7   11      3.11      0.00
   -3    7   11     -1.56      0.00
   -1    7   11     -4.84      0.00
    1    7   11     -2.77      0.00
    3    7   11     -3.98      0.00
    5    7   11      6.47      0.00
    7    7   11     -1.52      0.00
    9    7   11     -5.82      0.00
   11    7   11      8.75      0.00
  -24    8   11      2.52      0.00
  -22    8   11     -1.02      0.00
  -20    8   11     -1.50      0.00
  -18    8   11      1.19      0.00
  -16    8   11      0.24      0.00
  -14    8   11      2.77      0.00
  -12    8   11      6.92      0.00
  -10    8   11      1.27      0.00
   -8    8   11     -5.83      0.00
   -6    8   11     -3.46      0.00
   -4    8   11      0.93      0.00
   -2    8   11      0.52      0.00
    0    8   11      0.67      0.00
    2    8   11      2.53      0.00
    4    8   11     -0.61      0.00
    6    8   11     -4.13      0.00
    8    8   11     -1.18      0.00
  -21    9   11      1.07      0.00
  -19    9   11      4.02      0.00
  -17    9   11      1.74      0.00
  -15    9   11     -3.50      0.00
  -13    9   11      0.03      0.00
  -11    9   11     -1.16      0.00
   -9    9   11     -2.30      0.00
   -7    9   11      3.74      0.00
   -5    9   11      1.72      0.00
   -3    9   11      0.26      0.00
   -1    9   11      1.47      0.00
    1    9   11      1.37      0.00
    3    9   11      2.45      0.00
    5    9   11      0.82      0.00
  -18   10   11     -7.18      0.00
  -16   10   11      2.59      0.00
  -14   10   11      4.00      0.00
  -12   10   11     -4.23      0.00
  -10   10   11      4.29      0.00
   -8   10   11      4.34      0.00
   -6   10   11      0.16      0.00
   -4   10   11      2.85      0.00
   -2   10   11     -0.54      0.00
    0   10   11     -1.47      0.00
    2   10   11     -2.29      0.00
  -32    0   12      2.38      0.00
  -30    0   12     -1.73      0.00
  -28    0   12      0.05      0.00
  -26    0   12      2.40      0.00
  -24    0   12     -6.28      0.00
  -22    0   12      1.43      0.00
  -20    0   12      8.35      0.00
  -18    0   12     -0.10      0.00
  -16    0   12      5.56      0.00
  -14    0   12      0.08      0.00
  -12    0   12     -2.06      0.00
  -10    0   12     12.85      0.00
   -8    0   12     -2.95      0.00
   -6    0   12     -2.44      0.00
   -4    0   12      9.73      0.00
   -2    0   12    -10.34      0.00
    0    0   12     -3.62      0.00
    2    0   12     11.78      0.00
    4    0   12     12.81      0.00
    6    0   12     14.06      0.00
    8    0   12     -5.78      0.00
   10    0   12     -8.51      0.00
   12    0   12      5.03      0.00
   14    0   12     -0.47      0.00
  -31    1   12     -2.01      0.00
  -29    1   12      1.42      0.00
  -27    1   12     -1.58      0.00
  -25    1   12      1.41      0.00
  -23    1   12      4.01      0.00
  -21    1   12     -6.29      0.00
  -19    1   12     -1.71      0.00
  -17    1   12     -3.81      0.00
  -15    1   12     -8.70      0.00
  -13    1   12      6.64      0.00
  -11    1   12     -4.32      0.00
   -9    1   12     -7.74      0.00
   -7    1   12      9.23      0.00
   -5    1   12     -4.77      0.00
   -3    1   12     -1.93      0.00
   -1    1   12      9.91      0.00
    1    1   12     -5.24      0.00
    3    1   12    -10.03      0.00
    5    1   12    -11.14      0.00
    7    1   12     -4.36      0.00
    9    1   12      7.90      0.00
   11    1   12     -0.44      0.00
   13    1   12     -1.08      0.00
   15    1   12      4.32      0.00
  -32    2   12      2.97      0.00
  -30    2   12      4.07      0.00
  -28    2   12     -0.88      0.00
  -26    2   12     -1.22      0.00
  -24    2   12      0.18      0.00
  -22    2   12      1.54      0.00
  -20    2   12      0.29      0.00
  -18    2   12      2.31      0.00
  -16    2   12     11.93      0.00
  -14    2   12      3.05      0.00
  -12    2   12     -6.12      0.00
  -10    2   12      1.97      0.00
   -8    2   12     -1.48      0.00
   -6    2   12     -3.85      0.00
   -4    2   12      1.57      0.00
   -2    2   12     -1.61      0.00
    0    2   12     -0.67      0.00
    2    2   12      4.02      0.00
    4    2   12      2.99      0.00
    6    2   12      2.23      0.00
    8    2   12      2.09      0.00
   10    2   12      1.16      0.00
   12    2   12     -1.55      0.00
   14    2   12     -4.75      0.00
  -31    3   12     -4.56      0.00
  -29    3   12     -3.54      0.00
  -27    3   12      3.39      0.00
  -25    3   12      1.40      0.00
  -23    3   12     -4.96      0.00
  -21    3   12      4.43      0.00
  -19    3   12     -1.25      0.00
  -17    3   12     -8.21      0.00
  -15    3   12     -1.52      0.00
  -13    3   12     -5.19      0.00
  -11    3   12      5.22      0.00
   -9    3   12      8.60      0.00
   -7    3   12     -6.79      0.00
   -5    3   12      2.17      0.00
   -3    3   12      4.30      0.00
   -1    3   12     -6.70      0.00
    1    3   12     -0.63      0.00
    3    3   12      3.45      0.00
    5    3   12      2.91      0.00
    7    3   12     -2.12      0.00
    9    3   12     -7.68      0.00
   11    3   12      0.59      0.00
   13    3   12      4.44      0.00
  -30    4   12      0.18      0.00
  -28    4   12      1.42      0.00
  -26    4   12     -4.08      0.00
  -24    4   12      0.46      0.00
  -22    4   12     -2.66      0.00
  -20    4   12     -2.89      0.00
  -18    4   12      8.93      0.00
  -16    4   12     -7.70      0.00
  -14    4   12      0.80      0.00
  -12    4   12     12.45      0.00
  -10    4   12    -14.09      0.00
   -8    4   12      1.77      0.00
   -6    4   12     11.68      0.00
   -4    4   12     -8.85      0.00
   -2    4   12      4.96      0.00
    0    4   12      7.78      0.00
    2    4   12     -4.63      0.00
    4    4   12     -2.70      0.00
    6    4   12     -0.96      0.00
    8    4   12      5.63      0.00
   10    4   12      3.59      0.00
   12    4   12     -4.19      0.00
  -29    5   12      0.63      0.00
  -27    5   12      0.83      0.00
  -25    5   12      0.38      0.00
  -23    5   12      3.29      0.00
  -21    5   12      2.54      0.00
  -19    5   12     -7.85      0.00
  -17    5   12      3.74      0.00
  -15    5   12      8.71      0.00
  -13    5   12    -12.73      0.00
  -11    5   12     -1.81      0.00
   -9    5   12      4.39      0.00
   -7    5   12    -11.22      0.00
   -5    5   12      1.65      0.00
   -3    5   12      0.02      0.00
   -1    5   12     -8.17      0.00
    1    5   12      0.88      0.00
    3    5   12     -3.91      0.00
    5    5   12     -0.02      0.00
    7    5   12      0.32      0.00
    9    5   12     -6.21      0.00
   11    5   12      5.19      0.00
  -28    6   12     -2.67      0.00
  -26    6   12      1.30      0.00
  -24    6   12      3.19      0.00
  -22    6   12     -0.14      0.00
  -20    6   12      3.72      0.00
  -18    6   12     -0.06      0.00
  -16    6   12     -1.72      0.00
  -14    6   12      3.07      0.00
  -12    6   12      0.96      0.00
  -10    6   12      3.62      0.00
   -8    6   12      4.46      0.00
   -6    6   12     -3.83      0.00
   -4    6   12      1.02      0.00
   -2    6   12      5.36      0.00
    0    6   12     -2.73      0.00
    2    6   12      6.09      0.00
    4    6   12      8.91      0.00
    6    6   12     -1.65      0.00
    8    6   12      3.59      0.00
   10    6   12     -0.88      0.00
  -25    7   12     -4.66      0.00
  -23    7   12     -5.66      0.00
  -21    7   12     -4.06      0.00
  -19    7   12      5.48      0.00
  -17    7   12     -0.27      0.00
  -15    7   12     -5.49      0.00
  -13    7   12      8.94      0.00
  -11    7   12      0.66      0.00
   -9    7   12     -6.04      0.00
   -7    7   12      8.68      0.00
   -5    7   12      0.98      0.00
   -3    7   12     -4.44      0.00
   -1    7   12      3.41      0.00
    1    7   12     -2.19      0.00
    3    7   12     -6.48      0.00
    5    7   12     -7.10      0.00
    7    7   12     -3.26      0.00
  -22    8   12      4.52      0.00
  -20    8   12     -1.41      0.00
  -18    8   12     -8.67      0.00
  -16    8   12     -0.03      0.00
  -14    8   12     -3.55      0.00
  -12    8   12     -7.99      0.00
  -10    8   12      1.09      0.00
   -8    8   12     -3.29      0.00
   -6    8   12     -1.79      0.00
   -4    8   12      3.29      0.00
   -2    8   12     -2.82      0.00
    0    8   12      1.73      0.00
    2    8   12      0.93      0.00
    4    8   12      2.36      0.00
  -19    9   12      3.97      0.00
  -17    9   12     10.53      0.00
  -15    9   12      4.20      0.00
  -13    9   12      0.36      0.00
  -11    9   12      2.08      0.00
   -9    9   12      0.27      0.00
   -7    9   12     -2.64      0.00
   -5    9   12     -3.77      0.00
   -3    9   12      0.15      0.00
   -1    9   12     -0.11      0.00
    1    9   12     -0.94      0.00
   -8   10   12      4.08      0.00
  -31    1   13      4.71      0.00
  -29    1   13     -2.29      0.00
  -27    1   13      1.22      0.00
  -25    1   13      0.92      0.00
  -23    1   13     -2.75      0.00
  -21    1   13      0.10      0.00
  -19    1   13     -3.86      0.00
  -17    1   13      0.19      0.00
  -15    1   13      0.49      0.00
  -13    1   13     -9.16      0.00
  -11    1   13      0.80      0.00
   -9    1   13      1.23      0.00
   -7    1   13     -6.54      0.00
   -5    1   13      7.04      0.00
   -3    1   13      5.12      0.00
   -1    1   13     -3.33      0.00
    1    1   13      3.25      0.00
    3    1   13      2.32      0.00
    5    1   13      4.94      0.00
    7    1   13      5.79      0.00
    9    1   13     -2.99      0.00
   11    1   13     -2.76      0.00
  -30    2   13     -2.82      0.00
  -28    2   13      0.70      0.00
  -26    2   13     -4.07      0.00
  -24    2   13      1.74      0.00
  -22    2   13     -0.44      0.00
  -20    2   13     -1.38      0.00
  -18    2   13      6.13      0.00
  -16    2   13     -7.47      0.00
  -14    2   13     -0.20      0.00
  -12    2   13     10.17      0.00
  -10    2   13     -8.24      0.00
   -8    2   13      1.97      0.00
   -6    2   13      5.02      0.00
   -4    2   13    -11.84      0.00
   -2    2   13     -0.89      0.00
    0    2   13      1.84      0.00
    2    2   13     -3.58      0.00
    4    2   13     -4.77      0.00
    6    2   13    -10.26      0.00
    8    2   13      1.54      0.00
   10    2   13      6.56      0.00
  -29    3   13      2.74      0.00
  -27    3   13      1.80      0.00
  -25    3   13     -0.05      0.00
  -23    3   13     -0.78      0.00
  -21    3   13      5.01      0.00
  -19    3   13     -3.28      0.00
  -17    3   13     -1.52      0.00
  -15    3   13     12.45      0.00
  -13    3   13     -2.45      0.00
  -11    3   13     -1.60      0.00
   -9    3   13      7.37      0.00
   -7    3   13     -6.27      0.00
   -5    3   13      0.91      0.00
   -3    3   13      5.50      0.00
   -1    3   13     -3.01      0.00
    1    3   13     -0.11      0.00
    3    3   13      2.46      0.00
    5    3   13      7.20      0.00
    7    3   13      0.85      0.00
    9    3   13     -8.16      0.00
  -28    4   13     -2.08      0.00
  -26    4   13      0.67      0.00
  -24    4   13      2.32      0.00
  -22    4   13     -2.03      0.00
  -20    4   13      0.89      0.00
  -18    4   13      3.88      0.00
  -16    4   13     -3.29      0.00
  -14    4   13     -4.28      0.00
  -12    4   13      0.43      0.00
  -10    4   13     -0.53      0.00
   -8    4   13      1.57      0.00
   -6    4   13      1.73      0.00
   -4    4   13      0.37      0.00
   -2    4   13      3.73      0.00
    0    4   13      0.08      0.00
    2    4   13     -0.91      0.00
    4    4   13      0.72      0.00
    6    4   13     -0.96      0.00
    8    4   13      4.56      0.00
  -27    5   13      0.07      0.00
  -25    5   13     -0.38      0.00
  -23    5   13     -0.46      0.00
  -21    5   13     -5.01      0.00
  -19    5   13     -0.94      0.00
  -17    5   13      1.95      0.00
  -15    5   13     -6.62      0.00
  -13    5   13      1.60      0.00
  -11    5   13      2.65      0.00
   -9    5   13     -6.60      0.00
   -7    5   13      1.95      0.00
   -5    5   13      1.85      0.00
   -3    5   13     -5.83      0.00
   -1    5   13      0.37      0.00
    1    5   13      4.64      0.00
    3    5   13     -1.77      0.00
    5    5   13     -3.57      0.00
    7    5   13      1.02      0.00
  -24    6   13     -3.56      0.00
  -22    6   13      5.40      0.00
  -20    6   13      4.94      0.00
  -18    6   13     -8.60      0.00
  -16    6   13      6.63      0.00
  -14    6   13      6.15      0.00
  -12    6   13     -9.75      0.00
  -10    6   13      4.43      0.00
   -8    6   13      1.24      0.00
   -6    6   13     -8.02      0.00
   -4    6   13      2.03      0.00
   -2    6   13     -3.11      0.00
    0    6   13     -5.61      0.00
    2    6   13     -2.57      0.00
    4    6   13     -1.96      0.00
    6    6   13      1.96      0.00
  -23    7   13      1.83      0.00
  -21    7   13     -3.24      0.00
  -19    7   13      2.26      0.00
  -17    7   13      1.78      0.00
  -15    7   13     -1.71      0.00
  -13    7   13      6.41      0.00
  -11    7   13      1.78      0.00
   -9    7   13     -0.36      0.00
   -7    7   13      4.85      0.00
   -5    7   13     -1.37      0.00
   -3    7   13      5.13      0.00
   -1    7   13      7.36      0.00
    1    7   13     -0.37      0.00
    3    7   13      6.77      0.00
  -18    8   13      4.26      0.00
  -16    8   13     -5.95      0.00
  -14    8   13     -8.15      0.00
  -12    8   13      1.58      0.00
  -10    8   13     -1.38      0.00
   -8    8   13     -1.97      0.00
   -6    8   13      6.59      0.00
   -4    8   13      0.85      0.00
   -2    8   13     -3.86      0.00
    0    8   13      2.12      0.00
  -28    0   14      2.84      0.00
  -26    0   14      0.44      0.00
  -24    0   14      3.97      0.00
  -22    0   14     -4.88      0.00
  -20    0   14     -6.54      0.00
  -18    0   14      5.08      0.00
  -16    0   14     -2.30      0.00
  -14    0   14      8.13      0.00
  -12    0   14     10.73      0.00
  -10    0   14    -11.30      0.00
   -8    0   14      2.42      0.00
   -6    0   14      7.34      0.00
   -4    0   14     -8.47      0.00
   -2    0   14     -0.08      0.00
    0    0   14     -0.28      0.00
    2    0   14     -4.52      0.00
    4    0   14     -1.22      0.00
    6    0   14     -3.55      0.00
    8    0   14      4.33      0.00
  -27    1   14     -2.79      0.00
  -25    1   14     -2.94      0.00
  -23    1   14     -1.69      0.00
  -21    1   14      7.07      0.00
  -19    1   14      0.02      0.00
  -17    1   14     -3.93      0.00
  -15    1   14      0.37      0.00
  -13    1   14     -9.54      0.00
  -11    1   14     -2.00      0.00
   -9    1   14      6.55      0.00
   -7    1   14     -4.52      0.00
   -5    1   14     -0.09      0.00
   -3    1   14      3.35      0.00
   -1    1   14      0.08      0.00
    1    1   14      3.31      0.00
    3    1   14      0.30      0.00
    5    1   14      2.42      0.00
    7    1   14      2.56      0.00
  -28    2   14      4.92      0.00
  -26    2   14      4.33      0.00
  -24    2   14      2.17      0.00
  -22    2   14     -0.88      0.00
  -20    2   14     -2.13      0.00
  -18    2   14      1.70      0.00
  -16    2   14      4.19      0.00
  -14    2   14      0.82      0.00
  -12    2   14      3.83      0.00
  -10    2   14      3.33      0.00
   -8    2   14     -3.08      0.00
   -6    2   14     -0.44      0.00
   -4    2   14      2.84      0.00
   -2    2   14     -0.99      0.00
    0    2   14     -3.03      0.00
    2    2   14      1.77      0.00
    4    2   14      1.57      0.00
    6    2   14     -4.14      0.00
  -27    3   14     -4.89      0.00
  -25    3   14     -1.99      0.00
  -23    3   14      1.18      0.00
  -21    3   14     -3.00      0.00
  -19    3   14      0.36      0.00
  -17    3   14     -1.39      0.00
  -15    3   14     -7.29      0.00
  -13    3   14      1.11      0.00
  -11    3   14     -2.35      0.00
   -9    3   14     -6.23      0.00
   -7    3   14      3.15      0.00
   -5    3   14     -0.34      0.00
   -3    3   14     -3.17      0.00
   -1    3   14      1.26      0.00
    1    3   14     -1.02      0.00
    3    3   14     -3.09      0.00
    5    3   14     -2.06      0.00
  -26    4   14      3.55      0.00
  -24    4   14     -2.44      0.00
  -22    4   14      2.10      0.00
  -20    4   14      5.10      0.00
  -18    4   14     -3.12      0.00
  -16    4   14      5.57      0.00
  -14    4   14      7.62      0.00
  -12    4   14     -3.72      0.00
  -10    4   14      4.63      0.00
   -8    4   14      4.71      0.00
   -6    4   14     -2.47      0.00
   -4    4   14      1.42      0.00
   -2    4   14      0.99      0.00
    0    4   14      1.51      0.00
    2    4   14      0.03      0.00
    4    4   14      2.90      0.00
  -23    5   14      1.86      0.00
  -21    5   14     -4.79      0.00
  -19    5   14      0.43      0.00
  -17    5   14      3.42      0.00
  -15    5   14     -9.00      0.00
  -13    5   14     -2.21      0.00
  -11    5   14      4.29      0.00
   -9    5   14     -3.12      0.00
   -7    5   14     -1.14      0.00
   -5    5   14     -0.97      0.00
   -3    5   14     -0.05      0.00
   -1    5   14      0.91      0.00
    1    5   14     -1.30      0.00
    3    5   14      2.18      0.00
  -22    6   14      0.75      0.00
  -20    6   14     -2.01      0.00
  -18    6   14     -2.51      0.00
  -16    6   14      2.36      0.00
  -14    6   14      1.74      0.00
  -12    6   14     -2.09      0.00
  -10    6   14     -2.10      0.00
   -8    6   14     -2.45      0.00
   -6    6   14      2.63      0.00
   -4    6   14      3.20      0.00
   -2    6   14     -4.17      0.00
    0    6   14     -0.59      0.00
  -17    7   14     -6.50      0.00
  -15    7   14      4.02      0.00
  -13    7   14      3.49      0.00
  -11    7   14     -2.63      0.00
   -9    7   14      4.79      0.00
   -7    7   14      1.63      0.00
   -5    7   14     -4.51      0.00
   -3    7   14      1.38      0.00
  -25    1   15     -1.65      0.00
  -23    1   15      3.02      0.00
  -21    1   15      0.69      0.00
  -19    1   15      4.82      0.00
  -17    1   15     -0.02      0.00
  -15    1   15     -7.34      0.00
  -13    1   15      8.09      0.00
  -11    1   15      3.26      0.00
   -9    1   15     -7.17      0.00
   -7    1   15      4.35      0.00
   -5    1   15      1.09      0.00
   -3    1   15     -4.07      0.00
   -1    1   15      0.58      0.00
    1    1   15     -0.55      0.00
    3    1   15     -1.51      0.00
  -24    2   15     -2.52      0.00
  -22    2   15     -2.69      0.00
  -20    2   15     -0.60      0.00
  -18    2   15     -6.39      0.00
  -16    2   15      4.63      0.00
  -14    2   15      3.11      0.00
  -12    2   15     -9.56      0.00
  -10    2   15      0.95      0.00
   -8    2   15      1.72      0.00
   -6    2   15     -2.36      0.00
   -4    2   15      3.27      0.00
   -2    2   15     -0.05      0.00
    0    2   15     -0.29      0.00
    2    2   15      0.20      0.00
  -23    3   15      4.80      0.00
  -21    3   15      0.04      0.00
  -19    3   15      3.63      0.00
  -17    3   15      5.06      0.00
  -15    3   15     -3.28      0.00
  -13    3   15      0.62      0.00
  -11    3   15      7.06      0.00
   -9    3   15      3.61      0.00
   -7    3   15     -0.27      0.00
   -5    3   15     -3.07      0.00
   -3    3   15      0.59      0.00
   -1    3   15      1.23      0.00
    1    3   15     -1.10      0.00
  -22    4   15     -3.72      0.00
  -20    4   15     -2.59      0.00
  -18    4   15     -3.73      0.00
  -16    4   15     -4.27      0.00
  -14    4   15     -0.19      0.00
  -12    4   15     -2.50      0.00
  -10    4   15     -9.82      0.00
   -8    4   15     -6.77      0.00
   -6    4   15      1.98      0.00
   -4    4   15      1.88      0.00
   -2    4   15     -1.43      0.00
    0    4   15      1.72      0.00
  -19    5   15      2.05      0.00
  -17    5   15     -0.26      0.00
  -15    5   15      2.98      0.00
  -13    5   15      2.76      0.00
  -11    5   15      5.81      0.00
   -9    5   15     10.49      0.00
   -7    5   15      5.42      0.00
   -5    5   15     -1.68      0.00
   -3    5   15     -2.56      0.00
  -14    6   15     -3.96      0.00
  -12    6   15     -5.29      0.00
  -10    6   15     -4.05      0.00
   -8    6   15     -5.56      0.00
  -20    0   16      3.47      0.00
  -18    0   16     -9.67      0.00
  -16    0   16      0.95      0.00
  -14    0   16      7.55      0.00
  -12    0   16     -5.52      0.00
  -10    0   16      3.13      0.00
   -8    0   16      8.85      0.00
   -6    0   16      6.48      0.00
   -4    0   16     11.29      0.00
  -19    1   16      1.68      0.00
  -17    1   16      4.51      0.00
  -15    1   16     -3.60      0.00
  -13    1   16     -0.68      0.00
  -11    1   16      1.59      0.00
   -9    1   16     -2.81      0.00
   -7    1   16     -4.06      0.00
   -5    1   16     -9.25      0.00
  -18    2   16      1.25      0.00
  -16    2   16     -1.46      0.00
  -14    2   16     -1.02      0.00
  -12    2   16      2.43      0.00
  -10    2   16     -3.43      0.00
   -8    2   16     -5.10      0.00
   -6    2   16      3.91      0.00
  -17    3   16     -2.66      0.00
  -15    3   16      2.37      0.00
  -13    3   16     -1.75      0.00
  -11    3   16     -0.56      0.00
   -9    3   16      7.98      0.00
   -7    3   16      4.48      0.00
   36    0    0      1.16      0.00
   37    1    0     -0.71      0.00
   36    2    0      2.40      0.00
   35    3    0      1.68      0.00
   37    3    0     -2.18      0.00
   34    4    0     -6.44      0.00
   36    4    0     -0.98      0.00
   35    5    0      2.66      0.00
   37    5    0      1.77      0.00
   34    6    0      2.41      0.00
   36    6    0     -2.24      0.00
   31    7    0     -0.24      0.00
   33    7    0     -4.63      0.00
   35    7    0     -3.18      0.00
   37    7    0      0.90      0.00
   30    8    0     -2.10      0.00
   32    8    0     -0.02      0.00
   34    8    0      3.51      0.00
   36    8    0      2.38      0.00
   29    9    0      4.21      0.00
   31    9    0      3.31      0.00
   33    9    0     -0.02      0.00
   35    9    0     -0.10      0.00
   37    9    0     -1.07      0.00
   26   10    0     -2.31      0.00
   28   10    0     -1.56      0.00
   30   10    0     -3.66      0.00
   32   10    0     -1.34      0.00
   34   10    0     -0.86      0.00
   36   10    0      0.16      0.00
   23   11    0      0.71      0.00
   25   11    0      3.29      0.00
   27   11    0      3.69      0.00
   29   11    0     -1.99      0.00
   31   11    0     -0.53      0.00
   33   11    0      1.06      0.00
   35   11    0     -1.34      0.00
   20   12    0     -0.28      0.00
   22   12    0     -3.96      0.00
   24   12    0      1.38      0.00
   26   12    0     -1.50      0.00
   28   12    0     -1.48      0.00
   30   12    0      3.55      0.00
   32   12    0      1.31      0.00
   17   13    0      4.05      0.00
   19   13    0     -3.15      0.00
   21   13    0      1.13      0.00
   23   13    0      0.46      0.00
   25   13    0     -3.60      0.00
   27   13    0      1.29      0.00
   29   13    0      1.44      0.00
   10   14    0      0.09      0.00
   12   14    0      1.23      0.00
   14   14    0     -0.68      0.00
   16   14    0     -4.02      0.00
   18   14    0     -0.28      0.00
   20   14    0      1.59      0.00
   22   14    0      1.39      0.00
   24   14    0      2.41      0.00
   26   14    0      0.70      0.00
   28   14    0     -1.48      0.00
  -37    1    1      0.25      0.00
   35    1    1      5.75      0.00
   37    1    1      2.04      0.00
  -36    2    1      1.49      0.00
   36    2    1     -5.55      0.00
  -37    3    1      0.67      0.00
   35    3    1      3.17      0.00
   37    3    1      2.97      0.00
  -36    4    1     -2.50      0.00
   34    4    1      2.10      0.00
   36    4    1     -0.92      0.00
  -37    5    1      1.83      0.00
  -35    5    1      2.33      0.00
   33    5    1     -1.35      0.00
   35    5    1     -1.76      0.00
   37    5    1      0.68      0.00
  -36    6    1     -1.96      0.00
  -34    6    1     -0.33      0.00
   32    6    1     -2.49      0.00
   34    6    1      1.31      0.00
   36    6    1      0.77      0.00
  -37    7    1      0.45      0.00
  -35    7    1      1.38      0.00
  -33    7    1      3.35      0.00
   31    7    1      2.39      0.00
   33    7    1      2.48      0.00
   35    7    1     -0.25      0.00
   37    7    1     -1.32      0.00
  -36    8    1      1.11      0.00
  -34    8    1     -4.77      0.00
  -32    8    1     -3.52      0.00
   30    8    1     -0.69      0.00
   32    8    1     -2.10      0.00
   34    8    1     -2.12      0.00
   36    8    1      0.70      0.00
  -37    9    1     -2.69      0.00
  -35    9    1      1.34      0.00
  -33    9    1      3.38      0.00
  -31    9    1      0.57      0.00
  -29    9    1      1.73      0.00
   27    9    1     -2.17      0.00
   29    9    1     -1.38      0.00
   31    9    1      0.17      0.00
   33    9    1      1.17      0.00
   35    9    1      0.53      0.00
   37    9    1     -0.01      0.00
  -36   10    1      1.02      0.00
  -34   10    1      0.23      0.00
  -32   10    1     -1.71      0.00
  -30   10    1      0.74      0.00
  -28   10    1     -0.57      0.00
   26   10    1      3.52      0.00
   28   10    1     -2.05      0.00
   30   10    1      3.17      0.00
   32   10    1      0.78      0.00
   34   10    1     -0.76      0.00
   36   10    1      0.33      0.00
  -35   11    1     -1.37      0.00
  -33   11    1      0.93      0.00
  -31   11    1     -1.05      0.00
  -29   11    1     -1.92      0.00
  -27   11    1      2.56      0.00
  -25   11    1     -2.48      0.00
   23   11    1     -0.39      0.00
   25   11    1     -8.64      0.00
   27   11    1     -0.20      0.00
   29   11    1      1.00      0.00
   31   11    1     -1.59      0.00
   33   11    1     -0.28      0.00
  -32   12    1      1.03      0.00
  -30   12    1      2.48      0.00
  -28   12    1     -2.36      0.00
  -26   12    1     -0.47      0.00
  -24   12    1      4.48      0.00
  -22   12    1      3.94      0.00
   20   12    1      0.06      0.00
   22   12    1     -1.92      0.00
   24   12    1      1.36      0.00
   26   12    1      4.40      0.00
   28   12    1      0.00      0.00
   30   12    1     -3.08      0.00
   32   12    1     -0.83      0.00
  -31   13    1     -0.62      0.00
  -29   13    1      1.10      0.00
  -27   13    1      0.94      0.00
  -25   13    1      0.29      0.00
  -23   13    1     -4.02      0.00
  -21   13    1     -7.66      0.00
  -19   13    1     -5.22      0.00
  -17   13    1      0.66      0.00
   15   13    1     -0.45      0.00
   17   13    1     -1.46      0.00
   19   13    1     -0.49      0.00
   21   13    1     -0.25      0.00
   23   13    1      1.25      0.00
   25   13    1      0.04      0.00
   27   13    1     -1.40      0.00
   29   13    1      1.57      0.00
  -28   14    1     -0.13      0.00
  -26   14    1     -0.83      0.00
  -24   14    1     -0.76      0.00
  -22   14    1      5.06      0.00
  -20   14    1      3.38      0.00
  -18   14    1     -1.01      0.00
  -16   14    1     -1.22      0.00
  -14   14    1     -3.65      0.00
  -12   14    1      2.50      0.00
  -10   14    1      5.62      0.00
   10   14    1      2.30      0.00
   12   14    1     -0.38      0.00
   14   14    1     -2.29      0.00
   16   14    1      2.42      0.00
   18   14    1      1.79      0.00
   20   14    1     -0.07      0.00
   22   14    1      0.04      0.00
   24   14    1     -1.36      0.00
   26   14    1     -0.33      0.00
   34    0    2     -5.02      0.00
   36    0    2     -4.86      0.00
  -37    1    2      2.22      0.00
   35    1    2      3.81      0.00
   37    1    2      1.98      0.00
   34    2    2     -0.04      0.00
   36    2    2     -0.19      0.00
  -37    3    2      1.43      0.00
   33    3    2      1.80      0.00
   35    3    2     -0.56      0.00
   37    3    2     -1.50      0.00
  -36    4    2     -1.64      0.00
   34    4    2     -0.58      0.00
   36    4    2      0.38      0.00
  -37    5    2      0.24      0.00
  -35    5    2      0.45      0.00
   33    5    2      1.66      0.00
   35    5    2     -1.18      0.00
   37    5    2      0.00      0.00
  -36    6    2      0.76      0.00
  -34    6    2      0.28      0.00
   32    6    2     -1.95      0.00
   34    6    2     -0.59      0.00
   36    6    2      2.03      0.00
  -37    7    2     -0.69      0.00
  -35    7    2      0.42      0.00
  -33    7    2      2.77      0.00
   31    7    2      0.10      0.00
   33    7    2      1.08      0.00
   35    7    2     -0.23      0.00
   37    7    2     -2.19      0.00
  -36    8    2      0.17      0.00
  -34    8    2     -2.76      0.00
  -32    8    2     -1.71      0.00
   28    8    2     -6.26      0.00
   30    8    2     -0.69      0.00
   32    8    2      0.02      0.00
   34    8    2      0.44      0.00
   36    8    2      1.52      0.00
  -37    9    2      0.24      0.00
  -35    9    2      0.49      0.00
  -33    9    2      0.30      0.00
  -31    9    2      1.16      0.00
  -29    9    2      1.21      0.00
   27    9    2      0.56      0.00
   29    9    2      3.04      0.00
   31    9    2     -1.22      0.00
   33    9    2     -1.65      0.00
   35    9    2     -1.41      0.00
  -36   10    2     -0.16      0.00
  -34   10    2      1.21      0.00
  -32   10    2     -2.01      0.00
  -30   10    2     -1.67      0.00
  -28   10    2     -1.86      0.00
   24   10    2      2.98      0.00
   26   10    2      6.57      0.00
   28   10    2      1.10      0.00
   30   10    2     -0.56      0.00
   32   10    2      1.52      0.00
   34   10    2      1.46      0.00
  -35   11    2     -0.63      0.00
  -33   11    2      2.01      0.00
  -31   11    2      1.86      0.00
  -29   11    2     -0.58      0.00
  -27   11    2     -0.28      0.00
  -25   11    2      0.45      0.00
   23   11    2     -2.69      0.00
   25   11    2      0.90      0.00
   27   11    2     -3.14      0.00
   29   11    2     -2.02      0.00
   31   11    2      1.12      0.00
   33   11    2     -0.47      0.00
  -34   12    2     -1.06      0.00
  -32   12    2      0.30      0.00
  -30   12    2     -0.42      0.00
  -28   12    2      1.19      0.00
  -26   12    2      0.60      0.00
  -24   12    2     -0.05      0.00
  -22   12    2      5.55      0.00
   18   12    2     -2.19      0.00
   20   12    2      1.07      0.00
   22   12    2      5.89      0.00
   24   12    2     -2.16      0.00
   26   12    2     -2.94      0.00
   28   12    2      1.44      0.00
   30   12    2      0.31      0.00
  -31   13    2     -0.85      0.00
  -29   13    2      1.21      0.00
  -27   13    2     -0.76      0.00
  -25   13    2      0.36      0.00
  -23   13    2     -3.30      0.00
  -21   13    2     -6.65      0.00
  -19   13    2      0.68      0.00
  -17   13    2      0.63      0.00
   15   13    2     -4.26      0.00
   17   13    2     -2.94      0.00
   19   13    2      0.94      0.00
   21   13    2     -2.36      0.00
   23   13    2     -1.13      0.00
   25   13    2      2.94      0.00
   27   13    2      1.41      0.00
   29   13    2     -0.47      0.00
  -28   14    2     -0.85      0.00
  -26   14    2     -0.76      0.00
  -24   14    2      1.02      0.00
  -22   14    2      3.31      0.00
  -20   14    2      2.64      0.00
  -18   14    2     -1.12      0.00
  -16   14    2     -1.66      0.00
  -14   14    2     -1.35      0.00
  -12   14    2     -6.39      0.00
  -10   14    2     -6.07      0.00
    8   14    2      4.40      0.00
   10   14    2      0.92      0.00
   12   14    2      4.38      0.00
   14   14    2      4.31      0.00
   16   14    2      4.55      0.00
   18   14    2      1.24      0.00
   20   14    2     -1.20      0.00
   22   14    2      0.93      0.00
   24   14    2     -0.37      0.00
   26   14    2     -1.37      0.00
  -37    1    3      0.82      0.00
   33    1    3      2.95      0.00
   35    1    3     -1.30      0.00
   37    1    3     -1.32      0.00
   34    2    3     -1.10      0.00
   36    2    3     -0.36      0.00
  -37    3    3      0.79      0.00
   33    3    3      0.60      0.00
   35    3    3      0.32      0.00
   37    3    3      1.39      0.00
  -36    4    3     -0.57      0.00
   32    4    3     -1.94      0.00
   34    4    3     -0.04      0.00
   36    4    3      1.54      0.00
  -37    5    3      0.39      0.00
  -35    5    3      1.13      0.00
   31    5    3     -1.02      0.00
   33    5    3      1.59      0.00
   35    5    3      0.30      0.00
   37    5    3     -1.09      0.00
  -36    6    3      0.93      0.00
  -34    6    3      0.79      0.00
   30    6    3     -3.43      0.00
   32    6    3      0.78      0.00
   34    6    3     -1.78      0.00
   36    6    3     -2.37      0.00
  -37    7    3     -0.57      0.00
  -35    7    3     -3.02      0.00
  -33    7    3     -0.72      0.00
   29    7    3      6.89      0.00
   31    7    3      0.96      0.00
   33    7    3     -0.12      0.00
   35    7    3      2.64      0.00
   37    7    3      1.36      0.00
  -36    8    3      0.44      0.00
  -34    8    3      2.35      0.00
  -32    8    3     -0.40      0.00
   28    8    3      1.91      0.00
   30    8    3     -1.19      0.00
   32    8    3      0.71      0.00
   34    8    3      0.31      0.00
   36    8    3     -0.97      0.00
  -37    9    3      1.26      0.00
  -35    9    3     -0.52      0.00
  -33    9    3     -0.83      0.00
  -31    9    3      2.27      0.00
   25    9    3     -2.51      0.00
   27    9    3     -6.43      0.00
   29    9    3     -3.60      0.00
   31    9    3     -0.24      0.00
   33    9    3     -2.07      0.00
   35    9    3     -0.70      0.00
  -36   10    3     -0.21      0.00
  -34   10    3      0.76      0.00
  -32   10    3     -1.29      0.00
  -30   10    3     -2.01      0.00
  -28   10    3      1.84      0.00
   24   10    3      1.94      0.00
   26   10    3     -2.15      0.00
   28   10    3      2.37      0.00
   30   10    3      1.60      0.00
   32   10    3      0.26      0.00
   34   10    3      0.87      0.00
  -35   11    3      0.80      0.00
  -33   11    3      1.16      0.00
  -31   11    3      0.09      0.00
  -29   11    3     -1.36      0.00
  -27   11    3     -4.78      0.00
  -25   11    3      1.38      0.00
   21   11    3      0.40      0.00
   23   11    3     -3.77      0.00
   25   11    3      2.67      0.00
   27   11    3      3.08      0.00
   29   11    3      0.81      0.00
   31   11    3      0.62      0.00
  -34   12    3     -2.53      0.00
  -32   12    3      0.99      0.00
  -30   12    3      1.73      0.00
  -28   12    3      1.49      0.00
  -26   12    3      0.00      0.00
  -24   12    3     -3.21      0.00
  -22   12    3     -0.53      0.00
   18   12    3     -0.41      0.00
   20   12    3     -1.32      0.00
   22   12    3      1.05      0.00
   24   12    3      0.23      0.00
   26   12    3     -0.82      0.00
   28   12    3     -1.82      0.00
   30   12    3     -1.55      0.00
  -31   13    3     -1.48      0.00
  -29   13    3     -0.49      0.00
  -27   13    3      1.74      0.00
  -25   13    3      1.13      0.00
  -23   13    3      1.35      0.00
  -21   13    3      0.77      0.00
  -19   13    3     -6.02      0.00
  -17   13    3     -5.89      0.00
   13   13    3     -2.82      0.00
   15   13    3     -0.36      0.00
   17   13    3     -0.76      0.00
   19   13    3     -2.45      0.00
   21   13    3     -0.74      0.00
   23   13    3     -1.10      0.00
   25   13    3     -0.98      0.00
   27   13    3      0.58      0.00
  -28   14    3     -0.54      0.00
  -26   14    3     -0.71      0.00
  -24   14    3      0.24      0.00
  -22   14    3     -1.06      0.00
  -20   14    3      0.88      0.00
  -18   14    3      5.47      0.00
  -16   14    3      2.40      0.00
  -14   14    3     -1.91      0.00
  -12   14    3     -2.77      0.00
  -10   14    3     -2.29      0.00
    6   14    3     -8.35      0.00
    8   14    3     -6.98      0.00
   10   14    3     -6.51      0.00
   12   14    3     -0.53      0.00
   14   14    3      1.98      0.00
   16   14    3     -1.86      0.00
   18   14    3      0.99      0.00
   20   14    3      1.96      0.00
   22   14    3      0.14      0.00
   24   14    3      0.40      0.00
   32    0    4      1.65      0.00
   34    0    4     -0.12      0.00
   36    0    4      0.93      0.00
  -37    1    4      0.05      0.00
   33    1    4     -1.43      0.00
   35    1    4     -1.77      0.00
   37    1    4      0.43      0.00
   32    2    4     -2.67      0.00
   34    2    4      2.52      0.00
   36    2    4      0.77      0.00
  -37    3    4     -2.37      0.00
   31    3    4      2.87      0.00
   33    3    4      2.58      0.00
   35    3    4      0.58      0.00
   37    3    4     -1.23      0.00
  -36    4    4      1.36      0.00
   30    4    4     -6.07      0.00
   32    4    4     -0.17      0.00
   34    4    4     -2.62      0.00
   36    4    4     -0.47      0.00
  -37    5    4      1.62      0.00
  -35    5    4      1.42      0.00
   29    5    4      9.27      0.00
   31    5    4      2.93      0.00
   33    5    4     -1.72      0.00
   35    5    4      0.10      0.00
   37    5    4      0.90      0.00
  -36    6    4     -1.93      0.00
  -34    6    4      1.96      0.00
   28    6    4      1.86      0.00
   30    6    4     -3.03      0.00
   32    6    4     -0.05      0.00
   34    6    4      2.16      0.00
   36    6    4     -0.70      0.00
  -37    7    4      0.84      0.00
  -35    7    4     -2.52      0.00
  -33    7    4     -3.97      0.00
   27    7    4     -4.89      0.00
   29    7    4     -5.48      0.00
   31    7    4      0.03      0.00
   33    7    4      0.46      0.00
   35    7    4      0.19      0.00
  -36    8    4      1.36      0.00
  -34    8    4      3.85      0.00
  -32    8    4      3.21      0.00
   26    8    4     -3.30      0.00
   28    8    4      5.98      0.00
   30    8    4      3.94      0.00
   32    8    4     -2.54      0.00
   34    8    4     -1.50      0.00
  -37    9    4     -0.03      0.00
  -35    9    4     -0.75      0.00
  -33    9    4     -1.49      0.00
  -31    9    4     -4.78      0.00
   25    9    4      3.24      0.00
   27    9    4      1.38      0.00
   29    9    4     -2.55      0.00
   31    9    4      0.13      0.00
   33    9    4      2.68      0.00
  -36   10    4      0.19      0.00
  -34   10    4     -1.66      0.00
  -32   10    4      2.02      0.00
  -30   10    4      2.96      0.00
  -28   10    4      1.23      0.00
   22   10    4     -5.31      0.00
   24   10    4     -1.46      0.00
   26   10    4     -0.60      0.00
   28   10    4     -0.54      0.00
   30   10    4      0.71      0.00
   32   10    4     -0.33      0.00
  -37   11    4     -0.95      0.00
  -35   11    4      1.62      0.00
  -33   11    4      1.14      0.00
  -31   11    4     -2.02      0.00
  -29   11    4     -1.25      0.00
  -27   11    4      0.28      0.00
  -25   11    4      1.42      0.00
   19   11    4     -0.25      0.00
   21   11    4      0.83      0.00
   23   11    4      1.50      0.00
   25   11    4     -0.30      0.00
   27   11    4     -1.75      0.00
   29   11    4     -1.15      0.00
   31   11    4     -1.04      0.00
  -34   12    4     -1.64      0.00
  -32   12    4      0.97      0.00
  -30   12    4      3.23      0.00
  -28   12    4      0.21      0.00
  -26   12    4     -3.85      0.00
  -24   12    4     -0.75      0.00
  -22   12    4     -1.26      0.00
   16   12    4     -1.97      0.00
   18   12    4      0.79      0.00
   20   12    4      3.02      0.00
   22   12    4      0.62      0.00
   24   12    4      1.39      0.00
   26   12    4      1.76      0.00
   28   12    4      1.22      0.00
  -31   13    4     -2.47      0.00
  -29   13    4     -2.36      0.00
  -27   13    4      1.23      0.00
  -25   13    4      1.23      0.00
  -23   13    4     -0.29      0.00
  -21   13    4     -2.12      0.00
  -19   13    4     -6.94      0.00
  -17   13    4     -8.23      0.00
   11   13    4      2.11      0.00
   13   13    4      0.66      0.00
   15   13    4     -0.43      0.00
   17   13    4      0.50      0.00
   19   13    4     -2.39      0.00
   21   13    4     -0.19      0.00
   23   13    4     -0.38      0.00
   25   13    4     -1.52      0.00
  -28   14    4      1.01      0.00
  -26   14    4      0.59      0.00
  -24   14    4     -0.13      0.00
  -22   14    4      0.48      0.00
  -20   14    4      5.42      0.00
  -18   14    4      6.84      0.00
  -16   14    4      2.09      0.00
  -14   14    4     -1.60      0.00
  -12   14    4      1.41      0.00
  -10   14    4      5.12      0.00
   -8   14    4      2.54      0.00
    2   14    4     -5.79      0.00
    4   14    4     -3.60      0.00
    6   14    4     -0.13      0.00
    8   14    4      1.51      0.00
   10   14    4      2.45      0.00
   12   14    4     -1.79      0.00
   14   14    4     -1.17      0.00
   16   14    4      0.57      0.00
   18   14    4      0.12      0.00
   20   14    4     -0.08      0.00
   22   14    4     -1.33      0.00
   24   14    4     -0.51      0.00
   31    1    5     -0.42      0.00
   33    1    5      1.88      0.00
   35    1    5     -0.58      0.00
   37    1    5     -0.19      0.00
   30    2    5     -0.03      0.00
   32    2    5      2.99      0.00
   34    2    5     -0.99      0.00
   36    2    5     -1.04      0.00
  -37    3    5      0.48      0.00
   31    3    5     -1.66      0.00
   33    3    5     -3.27      0.00
   35    3    5      1.44      0.00
   37    3    5     -0.13      0.00
  -36    4    5     -1.10      0.00
   30    4    5     -1.57      0.00
   32    4    5     -0.65      0.00
   34    4    5      1.65      0.00
   36    4    5      0.82      0.00
  -37    5    5      0.10      0.00
  -35    5    5      0.80      0.00
   29    5    5     -4.44      0.00
   31    5    5      1.09      0.00
   33    5    5      0.88      0.00
   35    5    5     -1.38      0.00
   37    5    5      0.28      0.00
  -36    6    5     -1.48      0.00
  -34    6    5      3.27      0.00
   28    6    5      1.51      0.00
   30    6    5      3.70      0.00
   32    6    5      0.79      0.00
   34    6    5     -0.49      0.00
   36    6    5     -0.98      0.00
  -37    7    5      1.07      0.00
  -35    7    5     -0.54      0.00
  -33    7    5     -0.57      0.00
   27    7    5      3.31      0.00
   29    7    5     -1.28      0.00
   31    7    5     -3.50      0.00
   33    7    5      0.30      0.00
   35    7    5      0.93      0.00
  -36    8    5      3.05      0.00
  -34    8    5     -0.53      0.00
  -32    8    5     -1.84      0.00
   24    8    5      2.42      0.00
   26    8    5      1.29      0.00
   28    8    5     -2.83      0.00
   30    8    5      0.07      0.00
   32    8    5      0.55      0.00
   34    8    5     -0.41      0.00
  -37    9    5     -3.17      0.00
  -35    9    5     -1.76      0.00
  -33    9    5      0.47      0.00
  -31    9    5     -5.96      0.00
   23    9    5      0.64      0.00
   25    9    5     -3.23      0.00
   27    9    5      0.15      0.00
   29    9    5      3.96      0.00
   31    9    5      1.36      0.00
   33    9    5     -0.85      0.00
  -36   10    5      0.64      0.00
  -34   10    5     -0.16      0.00
  -32   10    5      4.99      0.00
  -30   10    5      5.47      0.00
  -28   10    5      1.78      0.00
   20   10    5      4.58      0.00
   22   10    5      3.83      0.00
   24   10    5      2.70      0.00
   26   10    5      0.01      0.00
   28   10    5     -2.39      0.00
   30   10    5     -2.52      0.00
  -37   11    5      0.40      0.00
  -35   11    5      1.15      0.00
  -33   11    5     -1.45      0.00
  -31   11    5     -2.82      0.00
  -29   11    5     -4.19      0.00
  -27   11    5     -2.43      0.00
  -25   11    5      0.94      0.00
   17   11    5     -1.69      0.00
   19   11    5     -4.65      0.00
   21   11    5     -4.06      0.00
   23   11    5     -2.76      0.00
   25   11    5     -0.34      0.00
   27   11    5      1.87      0.00
   29   11    5      1.34      0.00
  -34   12    5     -0.10      0.00
  -32   12    5      0.20      0.00
  -30   12    5      3.37      0.00
  -28   12    5      3.31      0.00
  -26   12    5     -1.01      0.00
  -24   12    5     -2.22      0.00
  -22   12    5     -0.61      0.00
   14   12    5     -2.76      0.00
   16   12    5     -0.34      0.00
   18   12    5      2.76      0.00
   20   12    5      3.32      0.00
   22   12    5     -1.46      0.00
   24   12    5     -1.40      0.00
   26   12    5     -1.18      0.00
  -31   13    5     -1.11      0.00
  -29   13    5     -2.48      0.00
  -27   13    5     -0.60      0.00
  -25   13    5      0.17      0.00
  -23   13    5      1.63      0.00
  -21   13    5      0.67      0.00
  -19   13    5     -2.93      0.00
  -17   13    5     -0.52      0.00
    9   13    5      2.26      0.00
   11   13    5     -0.46      0.00
   13   13    5      2.28      0.00
   15   13    5      1.31      0.00
   17   13    5     -0.04      0.00
   19   13    5     -0.17      0.00
   21   13    5      0.93      0.00
   23   13    5      2.91      0.00
   25   13    5      1.93      0.00
  -28   14    5      1.04      0.00
  -26   14    5     -0.02      0.00
  -24   14    5     -0.70      0.00
  -22   14    5      0.79      0.00
  -20   14    5      2.50      0.00
  -18   14    5      2.22      0.00
  -16   14    5     -4.52      0.00
  -14   14    5     -7.31      0.00
  -12   14    5     -0.70      0.00
  -10   14    5     -0.32      0.00
   -8   14    5     -3.06      0.00
   -6   14    5     -1.31      0.00
   -4   14    5     -0.99      0.00
   -2   14    5     -1.23      0.00
    0   14    5     -1.27      0.00
    2   14    5     -4.49      0.00
    4   14    5     -4.91      0.00
    6   14    5     -1.98      0.00
    8   14    5     -2.16      0.00
   10   14    5     -0.22      0.00
   12   14    5      0.76      0.00
   14   14    5     -0.97      0.00
   16   14    5     -0.25      0.00
   18   14    5     -1.56      0.00
   20   14    5     -1.02      0.00
   22   14    5      0.23      0.00
   30    0    6      0.69      0.00
   32    0    6      1.22      0.00
   34    0    6     -1.87      0.00
   36    0    6      1.12      0.00
   29    1    6      2.60      0.00
   31    1    6     -0.02      0.00
   33    1    6     -0.52      0.00
   35    1    6      0.38      0.00
   37    1    6     -0.04      0.00
   28    2    6      3.23      0.00
   30    2    6     -1.86      0.00
   32    2    6     -1.06      0.00
   34    2    6      1.07      0.00
   36    2    6     -0.84      0.00
  -37    3    6     -0.52      0.00
   29    3    6     -4.23      0.00
   31    3    6      0.68      0.00
   33    3    6      2.05      0.00
   35    3    6     -0.49      0.00
   37    3    6     -0.70      0.00
  -36    4    6     -3.38      0.00
   28    4    6     -0.60      0.00
   30    4    6      2.41      0.00
   32    4    6     -1.40      0.00
   34    4    6     -0.49      0.00
   36    4    6      1.51      0.00
  -37    5    6      2.33      0.00
  -35    5    6      2.95      0.00
   27    5    6      3.60      0.00
   29    5    6      1.92      0.00
   31    5    6      1.20      0.00
   33    5    6     -0.40      0.00
   35    5    6     -1.19      0.00
  -36    6    6      0.92      0.00
  -34    6    6      1.08      0.00
   26    6    6      0.33      0.00
   28    6    6     -2.39      0.00
   30    6    6     -3.11      0.00
   32    6    6     -0.51      0.00
   34    6    6     -0.24      0.00
  -37    7    6     -1.66      0.00
  -35    7    6     -4.17      0.00
  -33    7    6      0.87      0.00
   25    7    6      0.32      0.00
   27    7    6     -1.23      0.00
   29    7    6      1.65      0.00
   31    7    6      0.97      0.00
   33    7    6      1.83      0.00
  -36    8    6      2.40      0.00
  -34    8    6     -0.67      0.00
  -32    8    6     -1.56      0.00
   22    8    6     -3.01      0.00
   24    8    6     -2.08      0.00
   26    8    6      1.81      0.00
   28    8    6      1.93      0.00
   30    8    6     -0.06      0.00
   32    8    6     -1.51      0.00
  -37    9    6     -0.98      0.00
  -35    9    6      3.16      0.00
  -33    9    6      1.33      0.00
  -31    9    6     -3.40      0.00
  -29    9    6      1.18      0.00
   21    9    6      1.61      0.00
   23    9    6     -1.90      0.00
   25    9    6     -2.37      0.00
   27    9    6     -1.72      0.00
   29    9    6     -1.26      0.00
   31    9    6      0.75      0.00
  -36   10    6     -2.81      0.00
  -34   10    6     -0.50      0.00
  -32   10    6      3.48      0.00
  -30   10    6     -0.76      0.00
  -28   10    6     -0.26      0.00
   18   10    6      4.21      0.00
   20   10    6     -1.13      0.00
   22   10    6     -0.59      0.00
   24   10    6      1.99      0.00
   26   10    6      0.94      0.00
   28   10    6      0.48      0.00
   30   10    6      0.28      0.00
  -37   11    6      2.23      0.00
  -35   11    6     -0.88      0.00
  -33   11    6     -3.53      0.00
  -31   11    6     -0.11      0.00
  -29   11    6     -2.72      0.00
  -27   11    6     -4.38      0.00
  -25   11    6      0.04      0.00
   15   11    6     -4.38      0.00
   17   11    6     -3.86      0.00
   19   11    6     -0.53      0.00
   21   11    6      0.76      0.00
   23   11    6      3.14      0.00
   25   11    6      1.08      0.00
   27   11    6     -0.26      0.00
  -34   12    6      2.18      0.00
  -32   12    6      0.55      0.00
  -30   12    6      2.63      0.00
  -28   12    6      3.57      0.00
  -26   12    6      0.98      0.00
  -24   12    6      2.09      0.00
  -22   12    6     -0.24      0.00
  -20   12    6     -4.52      0.00
   12   12    6     -4.57      0.00
   14   12    6      1.10      0.00
   16   12    6      4.81      0.00
   18   12    6     -0.02      0.00
   20   12    6     -2.21      0.00
   22   12    6     -2.79      0.00
   24   12    6     -2.55      0.00
   26   12    6      0.45      0.00
  -31   13    6     -0.90      0.00
  -29   13    6     -0.83      0.00
  -27   13    6     -0.94      0.00
  -25   13    6     -1.22      0.00
  -23   13    6     -1.74      0.00
  -21   13    6      0.32      0.00
  -19   13    6      3.06      0.00
  -17   13    6      2.36      0.00
  -15   13    6      6.44      0.00
    5   13    6      0.17      0.00
    7   13    6      3.53      0.00
    9   13    6      4.38      0.00
   11   13    6      2.90      0.00
   13   13    6      0.95      0.00
   15   13    6     -1.85      0.00
   17   13    6     -3.31      0.00
   19   13    6      2.08      0.00
   21   13    6      2.88      0.00
   23   13    6      0.32      0.00
  -28   14    6     -0.53      0.00
  -26   14    6      0.55      0.00
  -24   14    6     -0.12      0.00
  -22   14    6      1.29      0.00
  -20   14    6      1.62      0.00
  -18   14    6     -3.75      0.00
  -16   14    6     -5.49      0.00
  -14   14    6     -2.79      0.00
  -12   14    6     -2.77      0.00
  -10   14    6     -2.64      0.00
   -8   14    6     -0.68      0.00
   -6   14    6      0.08      0.00
   -4   14    6      0.72      0.00
   -2   14    6     -1.36      0.00
    0   14    6     -1.91      0.00
    2   14    6      3.81      0.00
    4   14    6      3.97      0.00
    6   14    6     -0.80      0.00
    8   14    6     -1.64      0.00
   10   14    6      0.01      0.00
   12   14    6      1.01      0.00
   14   14    6      0.50      0.00
   16   14    6      1.71      0.00
   18   14    6      1.33      0.00
   20   14    6     -1.20      0.00
  -37    1    7     -0.94      0.00
   27    1    7      3.05      0.00
   29    1    7     -2.98      0.00
   31    1    7      1.40      0.00
   33    1    7     -0.21      0.00
   35    1    7     -2.51      0.00
   28    2    7     -1.72      0.00
   30    2    7      0.80      0.00
   32    2    7      0.45      0.00
   34    2    7      1.25      0.00
   36    2    7      0.62      0.00
  -37    3    7      0.36      0.00
   27    3    7      4.09      0.00
   29    3    7      2.62      0.00
   31    3    7     -0.40      0.00
   33    3    7     -0.97      0.00
   35    3    7     -0.15      0.00
  -36    4    7     -4.30      0.00
   26    4    7     -1.57      0.00
   28    4    7     -1.60      0.00
   30    4    7     -1.93      0.00
   32    4    7     -0.23      0.00
   34    4    7      0.61      0.00
  -37    5    7      3.13      0.00
  -35    5    7      0.89      0.00
   25    5    7      0.67      0.00
   27    5    7      0.11      0.00
   29    5    7      0.87      0.00
   31    5    7     -0.28      0.00
   33    5    7     -0.78      0.00
  -36    6    7      0.43      0.00
  -34    6    7      1.26      0.00
   24    6    7      0.03      0.00
   26    6    7      1.53      0.00
   28    6    7     -0.91      0.00
   30    6    7      1.00      0.00
   32    6    7      2.30      0.00
  -37    7    7     -0.82      0.00
  -35    7    7     -0.99      0.00
  -33    7    7     -1.91      0.00
   23    7    7      0.22      0.00
   25    7    7     -2.25      0.00
   27    7    7     -0.11      0.00
   29    7    7     -0.26      0.00
   31    7    7     -1.34      0.00
  -36    8    7     -0.24      0.00
  -34    8    7     -1.94      0.00
  -32    8    7      3.95      0.00
   22    8    7     -3.17      0.00
   24    8    7      0.92      0.00
   26    8    7      0.90      0.00
   28    8    7      0.89      0.00
   30    8    7     -0.26      0.00
  -37    9    7      1.21      0.00
  -35    9    7      3.78      0.00
  -33    9    7     -1.31      0.00
  -31    9    7     -3.59      0.00
  -29    9    7      2.80      0.00
   19    9    7     -6.38      0.00
   21    9    7      0.41      0.00
   23    9    7      1.48      0.00
   25    9    7      0.67      0.00
   27    9    7     -1.15      0.00
   29    9    7     -0.22      0.00
  -36   10    7     -3.64      0.00
  -34   10    7      2.37      0.00
  -32   10    7      2.75      0.00
  -30   10    7     -2.39      0.00
  -28   10    7      0.58      0.00
  -26   10    7      0.22      0.00
   16   10    7      6.07      0.00
   18   10    7      2.83      0.00
   20   10    7      2.83      0.00
   22   10    7      2.15      0.00
   24   10    7     -2.71      0.00
   26   10    7     -1.04      0.00
   28   10    7      0.14      0.00
  -37   11    7      1.51      0.00
  -35   11    7     -2.11      0.00
  -33   11    7     -2.31      0.00
  -31   11    7      1.26      0.00
  -29   11    7     -3.32      0.00
  -27   11    7     -2.26      0.00
  -25   11    7      2.91      0.00
  -23   11    7     -2.38      0.00
   13   11    7      2.54      0.00
   15   11    7     -1.46      0.00
   17   11    7     -1.56      0.00
   19   11    7     -0.14      0.00
   21   11    7     -2.19      0.00
   23   11    7      1.02      0.00
   25   11    7      2.49      0.00
  -34   12    7      0.15      0.00
  -32   12    7     -1.11      0.00
  -30   12    7      2.16      0.00
  -28   12    7      1.75      0.00
  -26   12    7     -0.79      0.00
  -24   12    7     -1.32      0.00
  -22   12    7      2.61      0.00
  -20   12    7      5.81      0.00
    8   12    7      0.17      0.00
   10   12    7      1.89      0.00
   12   12    7      3.51      0.00
   14   12    7      0.31      0.00
   16   12    7     -2.69      0.00
   18   12    7      1.00      0.00
   20   12    7      0.42      0.00
   22   12    7     -0.88      0.00
   24   12    7     -1.35      0.00
  -31   13    7     -0.70      0.00
  -29   13    7      0.58      0.00
  -27   13    7      0.44      0.00
  -25   13    7     -0.04      0.00
  -23   13    7      3.82      0.00
  -21   13    7      1.55      0.00
  -19   13    7     -2.76      0.00
  -17   13    7     -1.12      0.00
  -15   13    7     -2.83      0.00
  -13   13    7     -4.15      0.00
  -11   13    7     -3.44      0.00
    1   13    7     -0.21      0.00
    3   13    7     -1.49      0.00
    5   13    7     -0.10      0.00
    7   13    7      0.07      0.00
    9   13    7      0.87      0.00
   11   13    7     -2.29      0.00
   13   13    7     -4.21      0.00
   15   13    7      1.42      0.00
   17   13    7      1.81      0.00
   19   13    7     -0.60      0.00
   21   13    7      0.06      0.00
  -28   14    7     -0.09      0.00
  -26   14    7      0.29      0.00
  -24   14    7     -0.83      0.00
  -22   14    7     -3.77      0.00
  -20   14    7     -3.55      0.00
  -18   14    7     -1.35      0.00
  -16   14    7     -0.63      0.00
  -14   14    7      2.09      0.00
  -12   14    7      1.88      0.00
  -10   14    7      2.02      0.00
   -8   14    7      3.21      0.00
   -6   14    7      1.48      0.00
   -4   14    7      3.91      0.00
   -2   14    7      5.99      0.00
    0   14    7      3.57      0.00
    2   14    7     -0.04      0.00
    4   14    7     -1.25      0.00
    6   14    7      0.99      0.00
    8   14    7      0.88      0.00
   10   14    7      0.09      0.00
   12   14    7      1.25      0.00
   14   14    7      1.00      0.00
   16   14    7     -1.20      0.00
   18   14    7     -1.26      0.00
   26    0    8     -5.36      0.00
   28    0    8      0.56      0.00
   30    0    8      3.30      0.00
   32    0    8     -1.79      0.00
   34    0    8     -1.36      0.00
  -37    1    8      1.08      0.00
   25    1    8      2.78      0.00
   27    1    8      1.50      0.00
   29    1    8     -0.85      0.00
   31    1    8      0.29      0.00
   33    1    8      0.51      0.00
   26    2    8     -0.12      0.00
   28    2    8      0.31      0.00
   30    2    8     -2.39      0.00
   32    2    8      0.55      0.00
   34    2    8      0.49      0.00
  -37    3    8      0.42      0.00
   25    3    8     -0.14      0.00
   27    3    8     -1.84      0.00
   29    3    8      0.70      0.00
   31    3    8      0.16      0.00
   33    3    8     -0.10      0.00
  -36    4    8     -0.81      0.00
   24    4    8     -0.13      0.00
   26    4    8      4.46      0.00
   28    4    8     -0.09      0.00
   30    4    8      0.20      0.00
   32    4    8     -0.02      0.00
  -37    5    8      1.25      0.00
  -35    5    8      0.02      0.00
   23    5    8      5.60      0.00
   25    5    8     -3.66      0.00
   27    5    8     -2.39      0.00
   29    5    8      0.72      0.00
   31    5    8      0.60      0.00
  -36    6    8     -0.76      0.00
  -34    6    8     -2.15      0.00
   22    6    8     -7.09      0.00
   24    6    8     -2.30      0.00
   26    6    8      1.55      0.00
   28    6    8      1.28      0.00
   30    6    8     -0.76      0.00
   32    6    8     -1.10      0.00
  -37    7    8      0.05      0.00
  -35    7    8      2.28      0.00
  -33    7    8     -0.28      0.00
   21    7    8      5.02      0.00
   23    7    8      2.87      0.00
   25    7    8      1.89      0.00
   27    7    8     -0.95      0.00
   29    7    8     -1.59      0.00
   31    7    8      1.44      0.00
  -36    8    8     -1.11      0.00
  -34    8    8     -0.05      0.00
  -32    8    8      1.74      0.00
  -30    8    8     -0.12      0.00
   20    8    8     -3.46      0.00
   22    8    8      0.11      0.00
   24    8    8     -0.83      0.00
   26    8    8     -1.25      0.00
   28    8    8      1.94      0.00
  -37    9    8      0.74      0.00
  -35    9    8      0.31      0.00
  -33    9    8     -3.57      0.00
  -31    9    8     -0.81      0.00
  -29    9    8      0.26      0.00
   17    9    8     -2.44      0.00
   19    9    8      6.22      0.00
   21    9    8      1.00      0.00
   23    9    8     -1.71      0.00
   25    9    8      0.08      0.00
   27    9    8     -0.79      0.00
  -36   10    8     -0.44      0.00
  -34   10    8      3.33      0.00
  -32   10    8      0.44      0.00
  -30   10    8     -1.43      0.00
  -28   10    8      3.23      0.00
  -26   10    8     -0.04      0.00
   14   10    8     -2.08      0.00
   16   10    8      1.86      0.00
   18   10    8     -2.41      0.00
   20   10    8     -2.50      0.00
   22   10    8     -0.11      0.00
   24   10    8      0.40      0.00
   26   10    8      1.47      0.00
  -35   11    8     -2.54      0.00
  -33   11    8      1.17      0.00
  -31   11    8      1.44      0.00
  -29   11    8     -2.05      0.00
  -27   11    8     -0.22      0.00
  -25   11    8      2.22      0.00
  -23   11    8      4.56      0.00
   11   11    8      6.90      0.00
   13   11    8     -3.06      0.00
   15   11    8     -2.06      0.00
   17   11    8      2.39      0.00
   19   11    8     -1.03      0.00
   21   11    8      0.79      0.00
   23   11    8      1.27      0.00
  -34   12    8     -1.64      0.00
  -32   12    8     -0.89      0.00
  -30   12    8      2.33      0.00
  -28   12    8     -1.23      0.00
  -26   12    8     -1.59      0.00
  -24   12    8     -0.22      0.00
  -22   12    8     -3.49      0.00
  -20   12    8     -2.13      0.00
  -18   12    8     -3.48      0.00
    6   12    8     -1.33      0.00
    8   12    8      2.67      0.00
   10   12    8     -4.83      0.00
   12   12    8      0.13      0.00
   14   12    8      4.63      0.00
   16   12    8      0.13      0.00
   18   12    8      0.32      0.00
   20   12    8     -0.08      0.00
   22   12    8     -1.23      0.00
  -31   13    8     -1.31      0.00
  -29   13    8      0.10      0.00
  -27   13    8      0.76      0.00
  -25   13    8      0.27      0.00
  -23   13    8     -0.81      0.00
  -21   13    8      2.30      0.00
  -19   13    8      4.16      0.00
  -17   13    8      2.17      0.00
  -15   13    8      1.01      0.00
  -13   13    8     -0.03      0.00
  -11   13    8      0.47      0.00
   -9   13    8      1.51      0.00
   -7   13    8      2.88      0.00
   -5   13    8      3.50      0.00
   -3   13    8      2.40      0.00
   -1   13    8      0.33      0.00
    1   13    8      2.39      0.00
    3   13    8      8.63      0.00
    5   13    8      5.15      0.00
    7   13    8     -1.21      0.00
    9   13    8     -1.23      0.00
   11   13    8     -1.20      0.00
   13   13    8     -0.69      0.00
   15   13    8     -1.50      0.00
   17   13    8     -1.31      0.00
   19   13    8      0.88      0.00
  -28   14    8      0.55      0.00
  -26   14    8      0.56      0.00
  -24   14    8     -0.10      0.00
  -22   14    8     -0.02      0.00
  -20   14    8     -2.17      0.00
  -18   14    8     -1.57      0.00
  -16   14    8      0.12      0.00
  -14   14    8      0.00      0.00
  -12   14    8      2.44      0.00
  -10   14    8     -0.74      0.00
   -8   14    8     -3.18      0.00
   -6   14    8      2.89      0.00
   -4   14    8      2.08      0.00
   -2   14    8     -0.97      0.00
    0   14    8     -0.72      0.00
    2   14    8     -3.11      0.00
    4   14    8     -2.47      0.00
    6   14    8     -0.31      0.00
    8   14    8      1.39      0.00
   10   14    8      2.37      0.00
   12   14    8      0.70      0.00
   14   14    8      0.30      0.00
   16   14    8      0.45      0.00
  -37    1    9      1.69      0.00
   23    1    9      0.58      0.00
   25    1    9      0.52      0.00
   27    1    9     -2.31      0.00
   29    1    9     -0.63      0.00
   31    1    9      1.63      0.00
   33    1    9      0.27      0.00
  -36    2    9      1.45      0.00
   24    2    9     -0.74      0.00
   26    2    9      2.04      0.00
   28    2    9     -0.23      0.00
   30    2    9     -0.50      0.00
   32    2    9     -0.62      0.00
  -37    3    9      0.87      0.00
   23    3    9      3.18      0.00
   25    3    9     -2.63      0.00
   27    3    9     -0.19      0.00
   29    3    9      1.27      0.00
   31    3    9     -0.21      0.00
  -36    4    9     -1.16      0.00
   22    4    9     -2.96      0.00
   24    4    9      0.05      0.00
   26    4    9      0.89      0.00
   28    4    9      0.14      0.00
   30    4    9     -0.07      0.00
  -37    5    9     -0.52      0.00
  -35    5    9      6.50      0.00
   21    5    9      5.68      0.00
   23    5    9     -1.17      0.00
   25    5    9      1.51      0.00
   27    5    9      0.43      0.00
   29    5    9     -1.13      0.00
   31    5    9      0.75      0.00
  -36    6    9     -3.11      0.00
  -34    6    9     -5.37      0.00
   20    6    9     -8.53      0.00
   22    6    9      0.18      0.00
   24    6    9      0.39      0.00
   26    6    9     -2.36      0.00
   28    6    9      0.60      0.00
   30    6    9      0.14      0.00
  -37    7    9      2.27      0.00
  -35    7    9      1.94      0.00
  -33    7    9      0.42      0.00
  -31    7    9      2.89      0.00
   19    7    9      5.29      0.00
   21    7    9      1.63      0.00
   23    7    9     -2.42      0.00
   25    7    9     -0.42      0.00
   27    7    9      0.58      0.00
   29    7    9     -0.42      0.00
  -36    8    9     -0.42      0.00
  -34    8    9      1.63      0.00
  -32    8    9     -1.50      0.00
  -30    8    9     -0.40      0.00
   16    8    9      3.77      0.00
   18    8    9      1.22      0.00
   20    8    9      0.23      0.00
   22    8    9      2.53      0.00
   24    8    9      1.97      0.00
   26    8    9      1.12      0.00
   28    8    9     -0.35      0.00
  -37    9    9      0.19      0.00
  -35    9    9     -2.00      0.00
  -33    9    9     -1.53      0.00
  -31    9    9     -0.25      0.00
  -29    9    9     -3.19      0.00
  -27    9    9     -3.90      0.00
   15    9    9     -3.52      0.00
   17    9    9     -0.85      0.00
   19    9    9     -2.95      0.00
   21    9    9     -4.09      0.00
   23    9    9     -0.82      0.00
   25    9    9     -0.04      0.00
  -36   10    9      0.60      0.00
  -34   10    9      1.43      0.00
  -32   10    9     -0.82      0.00
  -30   10    9      2.04      0.00
  -28   10    9      3.69      0.00
  -26   10    9      3.20      0.00
  -24   10    9      0.44      0.00
   12   10    9     -2.47      0.00
   14   10    9      7.43      0.00
   16   10    9      0.58      0.00
   18   10    9     -0.69      0.00
   20   10    9      3.92      0.00
   22   10    9      1.19      0.00
   24   10    9     -0.73      0.00
  -35   11    9     -0.32      0.00
  -33   11    9      2.72      0.00
  -31   11    9      0.25      0.00
  -29   11    9     -2.62      0.00
  -27   11    9      0.31      0.00
  -25   11    9      1.33      0.00
  -23   11    9      2.44      0.00
  -21   11    9      1.37      0.00
    7   11    9     -9.78      0.00
    9   11    9     -5.20      0.00
   11   11    9      3.75      0.00
   13   11    9     -1.01      0.00
   15   11    9     -1.58      0.00
   17   11    9      0.32      0.00
   19   11    9     -0.90      0.00
   21   11    9      0.20      0.00
  -32   12    9     -0.21      0.00
  -30   12    9      0.39      0.00
  -28   12    9     -0.58      0.00
  -26   12    9     -1.74      0.00
  -24   12    9     -2.00      0.00
  -22   12    9      0.88      0.00
  -20   12    9     -2.42      0.00
  -18   12    9     -3.38      0.00
  -16   12    9      2.11      0.00
  -14   12    9      1.07      0.00
  -12   12    9      0.03      0.00
    0   12    9      3.04      0.00
    2   12    9     -0.12      0.00
    4   12    9      1.33      0.00
    6   12    9      8.27      0.00
    8   12    9      3.39      0.00
   10   12    9      0.12      0.00
   12   12    9      0.46      0.00
   14   12    9     -3.32      0.00
   16   12    9     -0.59      0.00
   18   12    9      1.27      0.00
   20   12    9     -1.39      0.00
  -29   13    9      1.52      0.00
  -27   13    9      0.28      0.00
  -25   13    9     -0.50      0.00
  -23   13    9     -0.67      0.00
  -21   13    9      0.14      0.00
  -19   13    9      1.92      0.00
  -17   13    9     -1.00      0.00
  -15   13    9     -0.13      0.00
  -13   13    9     -0.20      0.00
  -11   13    9     -4.59      0.00
   -9   13    9      5.26      0.00
   -7   13    9      8.52      0.00
   -5   13    9     -2.89      0.00
   -3   13    9     -4.88      0.00
   -1   13    9     -3.22      0.00
    1   13    9      0.96      0.00
    3   13    9      1.73      0.00
    5   13    9     -4.43      0.00
    7   13    9     -2.40      0.00
    9   13    9     -0.30      0.00
   11   13    9      0.18      0.00
   13   13    9      3.21      0.00
   15   13    9      1.93      0.00
   17   13    9     -0.01      0.00
  -26   14    9      0.08      0.00
  -24   14    9      1.45      0.00
  -22   14    9     -0.60      0.00
  -20   14    9      0.13      0.00
  -18   14    9      0.97      0.00
  -16   14    9     -0.61      0.00
  -14   14    9      0.60      0.00
  -12   14    9      2.23      0.00
  -10   14    9     -0.59      0.00
   -8   14    9     -4.33      0.00
   -6   14    9     -1.86      0.00
   -4   14    9      1.27      0.00
   -2   14    9      1.93      0.00
    0   14    9      0.28      0.00
    2   14    9     -2.02      0.00
    4   14    9     -0.40      0.00
    6   14    9     -0.16      0.00
    8   14    9      0.67      0.00
   10   14    9      0.11      0.00
   12   14    9     -3.09      0.00
   14   14    9     -1.02      0.00
  -36    0   10      1.76      0.00
   22    0   10      0.43      0.00
   24    0   10     -0.50      0.00
   26    0   10     -2.32      0.00
   28    0   10     -2.18      0.00
   30    0   10     -0.06      0.00
  -37    1   10     -0.08      0.00
   21    1   10     -0.50      0.00
   23    1   10      1.00      0.00
   25    1   10     -0.35      0.00
   27    1   10      0.95      0.00
   29    1   10      0.80      0.00
   31    1   10     -0.40      0.00
  -36    2   10      1.88      0.00
   22    2   10     -1.47      0.00
   24    2   10     -0.29      0.00
   26    2   10      1.79      0.00
   28    2   10      0.77      0.00
   30    2   10      0.71      0.00
  -37    3   10     -3.35      0.00
  -35    3   10     -0.52      0.00
   21    3   10      1.47      0.00
   23    3   10      0.45      0.00
   25    3   10      0.58      0.00
   27    3   10     -0.89      0.00
   29    3   10     -2.08      0.00
  -36    4   10      3.56      0.00
  -34    4   10     -2.97      0.00
   20    4   10     -1.89      0.00
   22    4   10     -0.14      0.00
   24    4   10      0.14      0.00
   26    4   10     -2.00      0.00
   28    4   10      1.49      0.00
   30    4   10      0.69      0.00
  -37    5   10     -1.54      0.00
  -35    5   10      0.21      0.00
  -33    5   10     -1.88      0.00
   19    5   10     -2.00      0.00
   21    5   10      0.26      0.00
   23    5   10     -1.79      0.00
   25    5   10      1.72      0.00
   27    5   10     -0.05      0.00
   29    5   10     -1.00      0.00
  -36    6   10     -2.57      0.00
  -34    6   10      2.76      0.00
  -32    6   10     -0.32      0.00
   18    6   10      2.20      0.00
   20    6   10      1.83      0.00
   22    6   10      1.32      0.00
   24    6   10     -1.20      0.00
   26    6   10      0.55      0.00
   28    6   10      0.63      0.00
  -37    7   10      3.24      0.00
  -35    7   10     -0.62      0.00
  -33    7   10     -1.31      0.00
  -31    7   10      3.70      0.00
   15    7   10     -5.01      0.00
   17    7   10      0.99      0.00
   19    7   10     -1.79      0.00
   21    7   10     -1.72      0.00
   23    7   10      1.92      0.00
   25    7   10     -0.33      0.00
   27    7   10     -1.16      0.00
  -36    8   10     -0.51      0.00
  -34    8   10      0.35      0.00
  -32    8   10     -0.89      0.00
  -30    8   10      0.10      0.00
  -28    8   10     -1.47      0.00
   14    8   10      3.16      0.00
   16    8   10     -2.66      0.00
   18    8   10     -1.50      0.00
   20    8   10      1.38      0.00
   22    8   10     -0.36      0.00
   24    8   10     -0.66      0.00
   26    8   10      0.16      0.00
  -37    9   10      0.35      0.00
  -35    9   10      0.23      0.00
  -33    9   10      0.30      0.00
  -31    9   10     -1.14      0.00
  -29    9   10      0.60      0.00
  -27    9   10      1.65      0.00
   11    9   10      4.71      0.00
   13    9   10      4.83      0.00
   15    9   10      0.38      0.00
   17    9   10      1.80      0.00
   19    9   10      0.07      0.00
   21    9   10      0.34      0.00
   23    9   10      0.71      0.00
  -36   10   10      0.60      0.00
  -34   10   10      0.15      0.00
  -32   10   10      0.82      0.00
  -30   10   10      0.67      0.00
  -28   10   10      0.61      0.00
  -26   10   10      0.99      0.00
  -24   10   10      0.10      0.00
  -22   10   10     -0.23      0.00
    8   10   10      3.69      0.00
   10   10   10      3.73      0.00
   12   10   10     -1.75      0.00
   14   10   10     -3.21      0.00
   16   10   10     -1.59      0.00
   18   10   10      1.06      0.00
   20   10   10     -0.15      0.00
   22   10   10     -2.29      0.00
  -35   11   10     -0.47      0.00
  -33   11   10     -0.27      0.00
  -31   11   10     -1.16      0.00
  -29   11   10      0.18      0.00
  -27   11   10     -1.20      0.00
  -25   11   10      0.00      0.00
  -23   11   10     -1.50      0.00
  -21   11   10     -5.37      0.00
  -19   11   10      2.80      0.00
  -17   11   10      3.29      0.00
    3   11   10      7.91      0.00
    5   11   10      3.55      0.00
    7   11   10     -1.44      0.00
    9   11   10      0.42      0.00
   11   11   10     -3.48      0.00
   13   11   10     -1.65      0.00
   15   11   10      3.00      0.00
   17   11   10     -0.44      0.00
   19   11   10     -1.02      0.00
  -32   12   10      1.08      0.00
  -30   12   10     -0.29      0.00
  -28   12   10     -1.84      0.00
  -26   12   10      0.12      0.00
  -24   12   10      2.06      0.00
  -22   12   10      2.80      0.00
  -20   12   10     -0.03      0.00
  -18   12   10     -2.02      0.00
  -16   12   10     -0.68      0.00
  -14   12   10     -8.32      0.00
  -12   12   10     -7.18      0.00
  -10   12   10      3.97      0.00
   -8   12   10      0.35      0.00
   -6   12   10     -1.03      0.00
   -4   12   10      1.13      0.00
   -2   12   10     -0.96      0.00
    0   12   10     -0.03      0.00
    2   12   10     -2.29      0.00
    4   12   10     -0.91      0.00
    6   12   10     -0.34      0.00
    8   12   10     -3.01      0.00
   10   12   10      2.00      0.00
   12   12   10      2.90      0.00
   14   12   10      0.14      0.00
   16   12   10      0.51      0.00
   18   12   10     -0.02      0.00
  -29   13   10      1.02      0.00
  -27   13   10      1.49      0.00
  -25   13   10     -1.36      0.00
  -23   13   10     -2.12      0.00
  -21   13   10      0.74      0.00
  -19   13   10     -1.29      0.00
  -17   13   10      0.29      0.00
  -15   13   10      4.39      0.00
  -13   13   10      4.73      0.00
  -11   13   10      4.21      0.00
   -9   13   10      1.07      0.00
   -7   13   10     -2.69      0.00
   -5   13   10     -1.92      0.00
   -3   13   10      2.11      0.00
   -1   13   10      4.00      0.00
    1   13   10      1.64      0.00
    3   13   10     -3.28      0.00
    5   13   10     -0.72      0.00
    7   13   10      5.00      0.00
    9   13   10     -0.19      0.00
   11   13   10     -2.17      0.00
   13   13   10      0.53      0.00
   15   13   10     -1.20      0.00
  -26   14   10     -0.03      0.00
  -24   14   10      0.11      0.00
  -22   14   10     -0.30      0.00
  -20   14   10      1.60      0.00
  -18   14   10      1.31      0.00
  -16   14   10     -1.61      0.00
  -14   14   10      0.00      0.00
  -12   14   10     -1.91      0.00
  -10   14   10     -4.67      0.00
   -8   14   10      1.24      0.00
   -6   14   10      2.81      0.00
   -4   14   10     -0.82      0.00
   -2   14   10     -3.46      0.00
    0   14   10     -4.12      0.00
    2   14   10      1.27      0.00
    4   14   10      2.61      0.00
    6   14   10     -1.62      0.00
    8   14   10     -1.79      0.00
   10   14   10      0.30      0.00
  -37    1   11      1.29      0.00
  -35    1   11      2.48      0.00
   19    1   11      0.39      0.00
   21    1   11      0.33      0.00
   23    1   11      1.19      0.00
   25    1   11      2.67      0.00
   27    1   11      1.36      0.00
   29    1   11      0.31      0.00
  -36    2   11     -0.15      0.00
  -34    2   11     -5.27      0.00
   18    2   11      1.15      0.00
   20    2   11     -1.27      0.00
   22    2   11      0.87      0.00
   24    2   11     -0.53      0.00
   26    2   11     -1.85      0.00
   28    2   11     -0.13      0.00
  -37    3   11     -1.79      0.00
  -35    3   11      0.76      0.00
   19    3   11     -1.36      0.00
   21    3   11      0.09      0.00
   23    3   11     -2.14      0.00
   25    3   11     -0.12      0.00
   27    3   11     -0.96      0.00
  -36    4   11      0.65      0.00
  -34    4   11      4.98      0.00
   18    4   11      3.66      0.00
   20    4   11     -0.03      0.00
   22    4   11      0.58      0.00
   24    4   11      0.38      0.00
   26    4   11      0.79      0.00
  -37    5   11      0.32      0.00
  -35    5   11     -4.25      0.00
  -33    5   11     -8.16      0.00
   17    5   11     -2.73      0.00
   19    5   11     -0.01      0.00
   21    5   11     -0.49      0.00
   23    5   11      1.94      0.00
   25    5   11      0.41      0.00
   27    5   11      0.13      0.00
  -36    6   11      0.82      0.00
  -34    6   11      4.47      0.00
  -32    6   11     -0.98      0.00
   14    6   11      1.81      0.00
   16    6   11     -0.90      0.00
   18    6   11     -2.66      0.00
   20    6   11      1.84      0.00
   22    6   11     -2.43      0.00
   24    6   11     -2.35      0.00
   26    6   11      0.10      0.00
  -37    7   11      0.12      0.00
  -35    7   11     -0.72      0.00
  -33    7   11      2.15      0.00
  -31    7   11      0.78      0.00
  -29    7   11      4.06      0.00
   13    7   11      3.06      0.00
   15    7   11      2.17      0.00
   17    7   11      5.31      0.00
   19    7   11     -0.62      0.00
   21    7   11      1.74      0.00
   23    7   11      2.07      0.00
   25    7   11     -0.17      0.00
  -36    8   11     -0.09      0.00
  -34    8   11     -2.88      0.00
  -32    8   11     -0.07      0.00
  -30    8   11      1.01      0.00
  -28    8   11     -4.24      0.00
  -26    8   11     -1.55      0.00
   10    8   11      1.02      0.00
   12    8   11     -1.87      0.00
   14    8   11     -4.58      0.00
   16    8   11     -2.98      0.00
   18    8   11      0.10      0.00
   20    8   11     -0.51      0.00
   22    8   11     -1.04      0.00
  -37    9   11      0.08      0.00
  -35    9   11      2.28      0.00
  -33    9   11      0.19      0.00
  -31    9   11     -1.35      0.00
  -29    9   11      1.43      0.00
  -27    9   11     -0.57      0.00
  -25    9   11      0.14      0.00
  -23    9   11      2.08      0.00
    7    9   11      4.54      0.00
    9    9   11      2.83      0.00
   11    9   11     -3.62      0.00
   13    9   11      0.56      0.00
   15    9   11      1.09      0.00
   17    9   11     -1.89      0.00
   19    9   11     -1.80      0.00
   21    9   11     -1.32      0.00
  -36   10   11     -0.62      0.00
  -34   10   11      0.08      0.00
  -32   10   11      1.46      0.00
  -30   10   11     -0.68      0.00
  -28   10   11     -0.78      0.00
  -26   10   11      1.77      0.00
  -24   10   11     -2.06      0.00
  -22   10   11     -0.46      0.00
  -20   10   11     -0.55      0.00
    4   10   11     -3.27      0.00
    6   10   11     -0.99      0.00
    8   10   11     -2.00      0.00
   10   10   11     -0.49      0.00
   12   10   11      2.42      0.00
   14   10   11      1.85      0.00
   16   10   11      2.33      0.00
   18   10   11      3.02      0.00
   20   10   11      1.75      0.00
  -33   11   11     -1.29      0.00
  -31   11   11     -0.46      0.00
  -29   11   11      0.52      0.00
  -27   11   11      1.06      0.00
  -25   11   11     -1.09      0.00
  -23   11   11     -2.42      0.00
  -21   11   11     -1.49      0.00
  -19   11   11      2.21      0.00
  -17   11   11      1.08      0.00
  -15   11   11     -4.32      0.00
  -13   11   11     -0.38      0.00
  -11   11   11     -0.06      0.00
   -9   11   11     -4.31      0.00
   -7   11   11     -3.66      0.00
   -5   11   11     -6.10      0.00
   -3   11   11     -4.51      0.00
   -1   11   11      0.07      0.00
    1   11   11      1.55      0.00
    3   11   11      2.05      0.00
    5   11   11      0.01      0.00
    7   11   11      0.88      0.00
    9   11   11      0.85      0.00
   11   11   11     -1.50      0.00
   13   11   11     -0.26      0.00
   15   11   11     -1.01      0.00
   17   11   11     -2.20      0.00
  -30   12   11     -0.62      0.00
  -28   12   11     -0.91      0.00
  -26   12   11     -1.18      0.00
  -24   12   11      2.92      0.00
  -22   12   11      2.36      0.00
  -20   12   11      0.23      0.00
  -18   12   11      1.89      0.00
  -16   12   11     -0.81      0.00
  -14   12   11     -0.17      0.00
  -12   12   11      1.56      0.00
  -10   12   11     -0.70      0.00
   -8   12   11      1.10      0.00
   -6   12   11      4.16      0.00
   -4   12   11      5.25      0.00
   -2   12   11      3.46      0.00
    0   12   11     -1.01      0.00
    2   12   11     -1.18      0.00
    4   12   11      2.66      0.00
    6   12   11      0.73      0.00
    8   12   11     -1.78      0.00
   10   12   11      1.82      0.00
   12   12   11      0.70      0.00
   14   12   11     -1.48      0.00
  -27   13   11      0.40      0.00
  -25   13   11     -0.28      0.00
  -23   13   11      0.14      0.00
  -21   13   11     -0.63      0.00
  -19   13   11     -2.65      0.00
  -17   13   11      0.51      0.00
  -15   13   11      3.75      0.00
  -13   13   11      0.48      0.00
  -11   13   11      0.65      0.00
   -9   13   11      1.29      0.00
   -7   13   11     -1.23      0.00
   -5   13   11     -0.66      0.00
   -3   13   11     -1.45      0.00
   -1   13   11     -1.04      0.00
    1   13   11     -0.63      0.00
    3   13   11     -2.77      0.00
    5   13   11     -1.61      0.00
    7   13   11     -0.81      0.00
    9   13   11     -0.59      0.00
   11   13   11     -0.54      0.00
  -24   14   11     -1.37      0.00
  -22   14   11     -0.43      0.00
  -20   14   11      1.94      0.00
  -18   14   11     -0.25      0.00
  -16   14   11     -1.48      0.00
  -14   14   11     -1.75      0.00
  -12   14   11     -2.04      0.00
  -10   14   11     -0.09      0.00
   -8   14   11      1.46      0.00
   -6   14   11     -0.87      0.00
   -4   14   11     -2.73      0.00
   -2   14   11     -0.60      0.00
    0   14   11      1.84      0.00
    2   14   11      2.52      0.00
    4   14   11      0.37      0.00
    6   14   11      0.54      0.00
  -36    0   12     -2.74      0.00
  -34    0   12     -1.32      0.00
   16    0   12     -2.23      0.00
   18    0   12     -0.80      0.00
   20    0   12     -2.26      0.00
   22    0   12     -0.60      0.00
   24    0   12     -0.24      0.00
   26    0   12      0.68      0.00
  -37    1   12      1.64      0.00
  -35    1   12      1.96      0.00
  -33    1   12     -0.65      0.00
   17    1   12      0.07      0.00
   19    1   12      1.16      0.00
   21    1   12      1.87      0.00
   23    1   12      0.46      0.00
   25    1   12      0.35      0.00
   27    1   12     -0.81      0.00
  -36    2   12     -1.86      0.00
  -34    2   12     -0.89      0.00
   16    2   12     -1.87      0.00
   18    2   12      0.62      0.00
   20    2   12     -0.89      0.00
   22    2   12     -0.52      0.00
   24    2   12     -0.76      0.00
   26    2   12     -0.31      0.00
  -37    3   12      2.23      0.00
  -35    3   12      2.98      0.00
  -33    3   12     -2.87      0.00
   15    3   12      1.34      0.00
   17    3   12      1.43      0.00
   19    3   12     -0.73      0.00
   21    3   12     -1.11      0.00
   23    3   12      0.28      0.00
   25    3   12     -0.14      0.00
  -36    4   12     -2.93      0.00
  -34    4   12      2.02      0.00
  -32    4   12      2.59      0.00
   14    4   12     -0.79      0.00
   16    4   12     -2.00      0.00
   18    4   12     -2.16      0.00
   20    4   12      2.12      0.00
   22    4   12     -0.02      0.00
   24    4   12      0.41      0.00
  -37    5   12     -0.91      0.00
  -35    5   12     -3.55      0.00
  -33    5   12     -0.62      0.00
  -31    5   12      2.41      0.00
   13    5   12      3.82      0.00
   15    5   12     -0.64      0.00
   17    5   12      4.72      0.00
   19    5   12      0.61      0.00
   21    5   12     -1.15      0.00
   23    5   12      0.34      0.00
   25    5   12     -0.61      0.00
  -36    6   12      5.68      0.00
  -34    6   12      1.08      0.00
  -32    6   12     -3.80      0.00
  -30    6   12     -0.69      0.00
   12    6   12     -6.72      0.00
   14    6   12      0.18      0.00
   16    6   12     -1.91      0.00
   18    6   12     -1.59      0.00
   20    6   12      1.19      0.00
   22    6   12      0.10      0.00
   24    6   12      0.29      0.00
  -37    7   12     -3.54      0.00
  -35    7   12     -1.58      0.00
  -33    7   12      2.71      0.00
  -31    7   12      1.62      0.00
  -29    7   12      2.62      0.00
  -27    7   12     -0.60      0.00
    9    7   12      3.09      0.00
   11    7   12      0.06      0.00
   13    7   12      0.43      0.00
   15    7   12      1.61      0.00
   17    7   12     -2.18      0.00
   19    7   12     -1.48      0.00
   21    7   12     -0.35      0.00
  -36    8   12      0.86      0.00
  -34    8   12     -1.89      0.00
  -32    8   12     -0.22      0.00
  -30    8   12     -2.55      0.00
  -28    8   12     -0.16      0.00
  -26    8   12      5.26      0.00
  -24    8   12      2.94      0.00
    6    8   12      7.86      0.00
    8    8   12     -3.38      0.00
   10    8   12     -0.98      0.00
   12    8   12      3.72      0.00
   14    8   12     -1.74      0.00
   16    8   12      2.87      0.00
   18    8   12      2.37      0.00
   20    8   12     -0.27      0.00
  -37    9   12     -0.19      0.00
  -35    9   12      0.80      0.00
  -33    9   12      0.11      0.00
  -31    9   12      0.45      0.00
  -29    9   12      0.91      0.00
  -27    9   12     -1.71      0.00
  -25    9   12     -2.91      0.00
  -23    9   12      0.59      0.00
  -21    9   12      0.17      0.00
    3    9   12      0.49      0.00
    5    9   12     -1.47      0.00
    7    9   12      1.19      0.00
    9    9   12      1.33      0.00
   11    9   12     -1.70      0.00
   13    9   12     -0.58      0.00
   15    9   12     -1.28      0.00
   17    9   12     -1.27      0.00
   19    9   12      0.13      0.00
  -34   10   12      1.00      0.00
  -32   10   12     -0.63      0.00
  -30   10   12     -0.71      0.00
  -28   10   12     -0.28      0.00
  -26   10   12     -1.35      0.00
  -24   10   12      0.05      0.00
  -22   10   12     -1.56      0.00
  -20   10   12     -2.54      0.00
  -18   10   12     -5.05      0.00
  -16   10   12     -6.70      0.00
  -14   10   12      1.06      0.00
  -12   10   12      3.92      0.00
  -10   10   12      1.89      0.00
   -6   10   12      4.22      0.00
   -4   10   12      2.39      0.00
   -2   10   12      0.90      0.00
    0   10   12      0.18      0.00
    2   10   12      1.01      0.00
    4   10   12      0.14      0.00
    6   10   12     -1.59      0.00
    8   10   12     -1.33      0.00
   10   10   12     -0.20      0.00
   12   10   12      1.17      0.00
   14   10   12      0.75      0.00
   16   10   12     -0.67      0.00
  -33   11   12     -0.90      0.00
  -31   11   12      1.26      0.00
  -29   11   12      0.85      0.00
  -27   11   12      1.24      0.00
  -25   11   12      1.34      0.00
  -23   11   12     -1.32      0.00
  -21   11   12      1.45      0.00
  -19   11   12      1.89      0.00
  -17   11   12     -0.63      0.00
  -15   11   12     -0.10      0.00
  -13   11   12     -3.31      0.00
  -11   11   12     -3.94      0.00
   -9   11   12     -2.88      0.00
   -7   11   12     -3.20      0.00
   -5   11   12     -1.23      0.00
   -3   11   12     -0.88      0.00
   -1   11   12     -0.39      0.00
    1   11   12     -0.39      0.00
    3   11   12     -0.21      0.00
    5   11   12     -0.33      0.00
    7   11   12     -0.59      0.00
    9   11   12      1.76      0.00
   11   11   12      0.33      0.00
   13   11   12     -0.66      0.00
   15   11   12      0.77      0.00
  -30   12   12     -0.93      0.00
  -28   12   12     -0.98      0.00
  -26   12   12      0.47      0.00
  -24   12   12      1.22      0.00
  -22   12   12      0.45      0.00
  -20   12   12     -0.14      0.00
  -18   12   12      2.30      0.00
  -16   12   12      2.58      0.00
  -14   12   12      0.08      0.00
  -12   12   12      0.50      0.00
  -10   12   12      0.43      0.00
   -8   12   12      0.58      0.00
   -6   12   12      0.38      0.00
   -4   12   12     -0.84      0.00
   -2   12   12     -0.68      0.00
    0   12   12     -1.26      0.00
    2   12   12     -0.71      0.00
    4   12   12     -0.14      0.00
    6   12   12      0.56      0.00
    8   12   12      0.74      0.00
   10   12   12     -1.71      0.00
   12   12   12     -1.20      0.00
  -25   13   12     -1.03      0.00
  -23   13   12      0.40      0.00
  -21   13   12     -0.61      0.00
  -19   13   12     -0.86      0.00
  -17   13   12     -0.27      0.00
  -15   13   12      0.58      0.00
  -13   13   12      2.42      0.00
  -11   13   12      2.05      0.00
   -9   13   12      1.25      0.00
   -7   13   12      0.19      0.00
   -5   13   12      0.13      0.00
   -3   13   12      1.17      0.00
   -1   13   12      1.34      0.00
    1   13   12      1.32      0.00
    3   13   12      0.65      0.00
    5   13   12      0.52      0.00
    7   13   12     -0.63      0.00
  -20   14   12     -0.06      0.00
  -18   14   12     -1.26      0.00
  -16   14   12     -1.59      0.00
  -14   14   12     -2.31      0.00
  -12   14   12     -1.51      0.00
  -10   14   12     -0.50      0.00
   -8   14   12     -0.26      0.00
   -6   14   12     -0.05      0.00
   -4   14   12      0.00      0.00
   -2   14   12      0.30      0.00
    0   14   12      0.08      0.00
    2   14   12     -0.72      0.00
  -37    1   13      0.56      0.00
  -35    1   13     -1.15      0.00
  -33    1   13      3.05      0.00
   13    1   13     -0.80      0.00
   15    1   13     -0.08      0.00
   17    1   13      0.55      0.00
   19    1   13     -1.06      0.00
   21    1   13      0.08      0.00
   23    1   13      0.16      0.00
  -36    2   13      0.05      0.00
  -34    2   13     -2.38      0.00
  -32    2   13     -6.95      0.00
   12    2   13     -2.06      0.00
   14    2   13      0.50      0.00
   16    2   13      0.64      0.00
   18    2   13     -0.15      0.00
   20    2   13      1.40      0.00
   22    2   13     -1.04      0.00
   24    2   13     -0.54      0.00
  -37    3   13      0.16      0.00
  -35    3   13      2.88      0.00
  -33    3   13      3.84      0.00
  -31    3   13      4.00      0.00
   11    3   13      1.76      0.00
   13    3   13      2.80      0.00
   15    3   13     -2.40      0.00
   17    3   13      0.09      0.00
   19    3   13     -2.06      0.00
   21    3   13     -1.18      0.00
   23    3   13      1.97      0.00
  -36    4   13     -2.21      0.00
  -34    4   13     -2.29      0.00
  -32    4   13     -2.02      0.00
  -30    4   13     -0.67      0.00
   10    4   13      2.55      0.00
   12    4   13     -3.72      0.00
   14    4   13     -0.09      0.00
   16    4   13      1.76      0.00
   18    4   13      2.02      0.00
   20    4   13      2.18      0.00
   22    4   13     -0.17      0.00
  -37    5   13      1.55      0.00
  -35    5   13      0.46      0.00
  -33    5   13      2.46      0.00
  -31    5   13     -1.19      0.00
  -29    5   13     -2.92      0.00
    9    5   13     -0.17      0.00
   11    5   13     -0.81      0.00
   13    5   13      2.17      0.00
   15    5   13      0.26      0.00
   17    5   13     -2.27      0.00
   19    5   13     -0.79      0.00
   21    5   13      0.09      0.00
  -36    6   13      1.28      0.00
  -34    6   13     -1.64      0.00
  -32    6   13      0.80      0.00
  -30    6   13      2.91      0.00
  -28    6   13      3.23      0.00
  -26    6   13      2.11      0.00
    8    6   13     -4.58      0.00
   10    6   13     -2.88      0.00
   12    6   13      3.28      0.00
   14    6   13     -2.09      0.00
   16    6   13     -0.70      0.00
   18    6   13      0.62      0.00
   20    6   13     -1.44      0.00
  -37    7   13     -2.27      0.00
  -35    7   13     -0.10      0.00
  -33    7   13      0.03      0.00
  -31    7   13     -0.46      0.00
  -29    7   13      0.11      0.00
  -27    7   13     -4.69      0.00
  -25    7   13     -1.20      0.00
    5    7   13      2.25      0.00
    7    7   13     -0.11      0.00
    9    7   13      6.57      0.00
   11    7   13     -2.90      0.00
   13    7   13     -2.60      0.00
   15    7   13      2.77      0.00
   17    7   13     -0.32      0.00
   19    7   13      1.26      0.00
  -36    8   13      0.49      0.00
  -34    8   13      0.47      0.00
  -32    8   13     -2.31      0.00
  -30    8   13     -2.27      0.00
  -28    8   13      1.04      0.00
  -26    8   13      2.20      0.00
  -24    8   13      2.60      0.00
  -22    8   13     -2.56      0.00
  -20    8   13     -0.81      0.00
    2    8   13     -1.20      0.00
    4    8   13     -2.67      0.00
    6    8   13     -0.74      0.00
    8    8   13     -2.47      0.00
   10    8   13      1.21      0.00
   12    8   13      2.77      0.00
   14    8   13      0.34      0.00
   16    8   13     -0.71      0.00
   18    8   13     -1.06      0.00
  -35    9   13     -0.10      0.00
  -33    9   13      0.82      0.00
  -31    9   13      3.21      0.00
  -29    9   13     -0.32      0.00
  -27    9   13      0.00      0.00
  -25    9   13     -0.68      0.00
  -23    9   13     -2.45      0.00
  -21    9   13      0.85      0.00
  -19    9   13     -3.61      0.00
  -17    9   13      0.01      0.00
  -15    9   13      7.54      0.00
  -13    9   13     -0.71      0.00
  -11    9   13     -1.45      0.00
   -9    9   13      0.03      0.00
   -7    9   13     -6.35      0.00
   -5    9   13     -4.31      0.00
   -3    9   13     -3.66      0.00
   -1    9   13     -4.78      0.00
    1    9   13     -2.01      0.00
    3    9   13     -1.88      0.00
    5    9   13      0.95      0.00
    7    9   13      1.04      0.00
    9    9   13     -1.49      0.00
   11    9   13     -0.04      0.00
   13    9   13     -1.44      0.00
   15    9   13     -0.29      0.00
   17    9   13      2.19      0.00
  -34   10   13     -0.08      0.00
  -32   10   13     -0.64      0.00
  -30   10   13     -0.67      0.00
  -28   10   13      0.38      0.00
  -26   10   13     -1.07      0.00
  -24   10   13     -0.65      0.00
  -22   10   13      2.92      0.00
  -20   10   13      1.46      0.00
  -18   10   13     -0.37      0.00
  -16   10   13     -0.04      0.00
  -14   10   13      0.62      0.00
  -12   10   13      0.27      0.00
  -10   10   13      0.10      0.00
   -8   10   13      2.80      0.00
   -6   10   13      0.76      0.00
   -4   10   13      2.18      0.00
   -2   10   13      5.48      0.00
    0   10   13      2.48      0.00
    2   10   13      2.85      0.00
    4   10   13     -0.27      0.00
    6   10   13     -1.31      0.00
    8   10   13      1.52      0.00
   10   10   13     -1.17      0.00
   12   10   13      0.28      0.00
   14   10   13      0.57      0.00
  -31   11   13     -0.08      0.00
  -29   11   13      0.19      0.00
  -27   11   13      0.42      0.00
  -25   11   13      1.39      0.00
  -23   11   13      0.67      0.00
  -21   11   13     -0.33      0.00
  -19   11   13      1.50      0.00
  -17   11   13     -1.56      0.00
  -15   11   13     -3.27      0.00
  -13   11   13      0.72      0.00
  -11   11   13      1.01      0.00
   -9   11   13      0.32      0.00
   -7   11   13      1.98      0.00
   -5   11   13      2.00      0.00
   -3   11   13     -0.56      0.00
   -1   11   13     -1.46      0.00
    1   11   13     -0.44      0.00
    3   11   13      0.21      0.00
    5   11   13      0.85      0.00
    7   11   13      0.22      0.00
    9   11   13      0.02      0.00
   11   11   13      0.05      0.00
  -28   12   13      0.22      0.00
  -26   12   13      0.29      0.00
  -24   12   13     -1.06      0.00
  -22   12   13     -2.22      0.00
  -20   12   13     -1.65      0.00
  -18   12   13      1.27      0.00
  -16   12   13      3.55      0.00
  -14   12   13      0.06      0.00
  -12   12   13     -1.23      0.00
  -10   12   13      0.31      0.00
   -8   12   13     -1.29      0.00
   -6   12   13     -1.20      0.00
   -4   12   13     -1.29      0.00
   -2   12   13     -0.87      0.00
    0   12   13     -0.46      0.00
    2   12   13     -1.96      0.00
    4   12   13     -0.38      0.00
    6   12   13     -0.26      0.00
    8   12   13     -0.61      0.00
  -23   13   13      1.60      0.00
  -21   13   13      1.26      0.00
  -19   13   13     -0.11      0.00
  -17   13   13     -2.12      0.00
  -15   13   13     -0.17      0.00
  -13   13   13      1.21      0.00
  -11   13   13     -0.98      0.00
   -9   13   13     -1.26      0.00
   -7   13   13     -1.35      0.00
   -5   13   13     -1.03      0.00
   -3   13   13      0.54      0.00
   -1   13   13      0.51      0.00
    1   13   13      0.96      0.00
    3   13   13      1.21      0.00
  -14   14   13     -1.18      0.00
  -12   14   13     -0.10      0.00
  -10   14   13      1.65      0.00
   -8   14   13      2.24      0.00
   -6   14   13      1.48      0.00
   -4   14   13      0.99      0.00
  -36    0   14     -0.97      0.00
  -34    0   14      3.26      0.00
  -32    0   14     -2.36      0.00
  -30    0   14     -2.48      0.00
   10    0   14      6.90      0.00
   12    0   14      1.19      0.00
   14    0   14      1.15      0.00
   16    0   14     -2.44      0.00
   18    0   14     -1.28      0.00
   20    0   14      1.73      0.00
   22    0   14     -0.20      0.00
  -37    1   14     -0.13      0.00
  -35    1   14     -2.34      0.00
  -33    1   14     -0.86      0.00
  -31    1   14      0.71      0.00
  -29    1   14     -3.48      0.00
    9    1   14     -6.20      0.00
   11    1   14     -4.23      0.00
   13    1   14     -0.54      0.00
   15    1   14      0.10      0.00
   17    1   14      1.82      0.00
   19    1   14     -0.56      0.00
   21    1   14     -0.85      0.00
  -36    2   14      3.20      0.00
  -34    2   14     -0.11      0.00
  -32    2   14      1.58      0.00
  -30    2   14      6.20      0.00
    8    2   14     -0.64      0.00
   10    2   14      3.59      0.00
   12    2   14      0.77      0.00
   14    2   14      0.28      0.00
   16    2   14      0.41      0.00
   18    2   14     -0.81      0.00
   20    2   14      0.24      0.00
  -37    3   14     -1.05      0.00
  -35    3   14      0.19      0.00
  -33    3   14      1.04      0.00
  -31    3   14     -3.21      0.00
  -29    3   14     -4.69      0.00
    7    3   14      0.92      0.00
    9    3   14      3.03      0.00
   11    3   14      0.95      0.00
   13    3   14     -0.03      0.00
   15    3   14      0.04      0.00
   17    3   14     -0.28      0.00
   19    3   14      0.72      0.00
   21    3   14      0.38      0.00
  -36    4   14     -1.29      0.00
  -34    4   14     -0.92      0.00
  -32    4   14     -1.18      0.00
  -30    4   14     -0.45      0.00
  -28    4   14      3.58      0.00
    6    4   14      7.36      0.00
    8    4   14     -3.66      0.00
   10    4   14     -5.02      0.00
   12    4   14      1.18      0.00
   14    4   14     -2.03      0.00
   16    4   14     -0.39      0.00
   18    4   14      0.99      0.00
   20    4   14     -1.17      0.00
  -37    5   14      1.14      0.00
  -35    5   14      1.44      0.00
  -33    5   14      0.71      0.00
  -31    5   14      0.64      0.00
  -29    5   14      1.93      0.00
  -27    5   14     -2.73      0.00
  -25    5   14     -1.78      0.00
    5    5   14     -4.42      0.00
    7    5   14     -5.14      0.00
    9    5   14      4.52      0.00
   11    5   14      0.14      0.00
   13    5   14     -0.59      0.00
   15    5   14      2.25      0.00
   17    5   14     -0.60      0.00
   19    5   14      0.60      0.00
  -36    6   14     -1.49      0.00
  -34    6   14     -0.43      0.00
  -32    6   14      2.29      0.00
  -30    6   14      0.03      0.00
  -28    6   14     -1.87      0.00
  -26    6   14      2.26      0.00
  -24    6   14      3.10      0.00
    2    6   14      0.05      0.00
    4    6   14     -3.99      0.00
    6    6   14      2.56      0.00
    8    6   14      2.34      0.00
   10    6   14     -1.31      0.00
   12    6   14      1.80      0.00
   14    6   14      0.23      0.00
   16    6   14     -1.68      0.00
   18    6   14     -0.71      0.00
  -37    7   14      1.45      0.00
  -35    7   14      0.30      0.00
  -33    7   14     -2.55      0.00
  -31    7   14     -0.67      0.00
  -29    7   14     -1.53      0.00
  -27    7   14      0.03      0.00
  -25    7   14     -2.22      0.00
  -23    7   14     -6.60      0.00
  -21    7   14      4.25      0.00
  -19    7   14      2.32      0.00
   -1    7   14      2.17      0.00
    1    7   14      0.02      0.00
    3    7   14      2.45      0.00
    5    7   14      1.99      0.00
    7    7   14     -0.41      0.00
    9    7   14     -1.15      0.00
   11    7   14     -0.83      0.00
   13    7   14     -1.15      0.00
   15    7   14      0.10      0.00
   17    7   14      1.56      0.00
  -36    8   14     -0.56      0.00
  -34    8   14      0.81      0.00
  -32    8   14     -0.84      0.00
  -30    8   14      0.03      0.00
  -28    8   14      2.91      0.00
  -26    8   14      0.02      0.00
  -24    8   14      2.86      0.00
  -22    8   14      1.74      0.00
  -20    8   14     -0.85      0.00
  -18    8   14      6.28      0.00
  -16    8   14     -0.38      0.00
  -14    8   14     -4.90      0.00
  -12    8   14      2.14      0.00
  -10    8   14     -1.22      0.00
   -8    8   14     -0.48      0.00
   -6    8   14      0.72      0.00
   -4    8   14     -2.10      0.00
   -2    8   14      1.65      0.00
    0    8   14     -0.45      0.00
    2    8   14     -0.97      0.00
    4    8   14      1.43      0.00
    6    8   14     -1.32      0.00
    8    8   14      1.23      0.00
   10    8   14      1.20      0.00
   12    8   14     -1.35      0.00
   14    8   14      1.00      0.00
  -33    9   14      1.58      0.00
  -31    9   14      0.95      0.00
  -29    9   14      0.05      0.00
  -27    9   14     -1.29      0.00
  -25    9   14      0.03      0.00
  -23    9   14      1.58      0.00
  -21    9   14     -3.33      0.00
  -19    9   14     -4.47      0.00
  -17    9   14      0.60      0.00
  -15    9   14      0.53      0.00
  -13    9   14     -1.15      0.00
  -11    9   14      1.70      0.00
   -9    9   14     -1.73      0.00
   -7    9   14     -2.34      0.00
   -5    9   14      4.38      0.00
   -3    9   14     -1.04      0.00
   -1    9   14     -1.88      0.00
    1    9   14      1.91      0.00
    3    9   14     -2.88      0.00
    5    9   14     -1.14      0.00
    7    9   14     -1.46      0.00
    9    9   14     -1.84      0.00
   11    9   14      2.28      0.00
   13    9   14      0.46      0.00
  -32   10   14     -0.10      0.00
  -30   10   14     -0.22      0.00
  -28   10   14     -0.81      0.00
  -26   10   14     -0.14      0.00
  -24   10   14     -1.85      0.00
  -22   10   14      0.48      0.00
  -20   10   14      2.06      0.00
  -18   10   14     -1.77      0.00
  -16   10   14      0.97      0.00
  -14   10   14      1.51      0.00
  -12   10   14     -2.15      0.00
  -10   10   14      0.84      0.00
   -8   10   14      1.76      0.00
   -6   10   14     -1.31      0.00
   -4   10   14     -0.59      0.00
   -2   10   14      0.37      0.00
    0   10   14     -1.13      0.00
    2   10   14     -0.92      0.00
    4   10   14      0.93      0.00
    6   10   14      2.10      0.00
    8   10   14      1.21      0.00
   10   10   14     -0.67      0.00
  -29   11   14      0.20      0.00
  -27   11   14      1.02      0.00
  -25   11   14      1.09      0.00
  -23   11   14     -0.01      0.00
  -21   11   14      1.04      0.00
  -19   11   14      2.94      0.00
  -17   11   14     -0.60      0.00
  -15   11   14     -1.82      0.00
  -13   11   14      2.14      0.00
  -11   11   14      0.26      0.00
   -9   11   14     -0.69      0.00
   -7   11   14      0.44      0.00
   -5   11   14     -1.55      0.00
   -3   11   14      0.86      0.00
   -1   11   14      1.57      0.00
    1   11   14      1.19      0.00
    3   11   14      1.98      0.00
    5   11   14     -0.78      0.00
    7   11   14     -0.26      0.00
  -24   12   14     -0.37      0.00
  -22   12   14     -0.96      0.00
  -20   12   14     -1.62      0.00
  -18   12   14      0.27      0.00
  -16   12   14      1.53      0.00
  -14   12   14     -0.63      0.00
  -12   12   14     -0.59      0.00
  -10   12   14      0.50      0.00
   -8   12   14      0.28      0.00
   -6   12   14      1.90      0.00
   -4   12   14      1.17      0.00
   -2   12   14     -1.33      0.00
    0   12   14     -0.86      0.00
    2   12   14     -0.07      0.00
    4   12   14     -0.17      0.00
  -17   13   14     -0.99      0.00
  -15   13   14     -0.18      0.00
  -13   13   14     -0.52      0.00
  -11   13   14      0.04      0.00
   -9   13   14     -0.52      0.00
   -7   13   14     -1.51      0.00
   -5   13   14     -0.83      0.00
   -3   13   14     -0.01      0.00
  -37    1   15     -0.24      0.00
  -35    1   15     -2.07      0.00
  -33    1   15      0.84      0.00
  -31    1   15     -0.68      0.00
  -29    1   15     -0.28      0.00
  -27    1   15     -1.52      0.00
    5    1   15     -4.17      0.00
    7    1   15     -2.18      0.00
    9    1   15      4.14      0.00
   11    1   15      1.92      0.00
   13    1   15      0.53      0.00
   15    1   15      0.35      0.00
   17    1   15     -1.69      0.00
   19    1   15     -0.24      0.00
  -36    2   15      1.48      0.00
  -34    2   15      0.58      0.00
  -32    2   15      2.08      0.00
  -30    2   15      0.74      0.00
  -28    2   15      0.39      0.00
  -26    2   15      4.07      0.00
    4    2   15     -0.03      0.00
    6    2   15      3.88      0.00
    8    2   15     -1.23      0.00
   10    2   15     -3.89      0.00
   12    2   15     -0.15      0.00
   14    2   15     -0.03      0.00
   16    2   15      1.63      0.00
   18    2   15      1.54      0.00
  -37    3   15     -0.93      0.00
  -35    3   15      0.82      0.00
  -33    3   15     -2.70      0.00
  -31    3   15     -1.88      0.00
  -29    3   15      1.55      0.00
  -27    3   15     -1.72      0.00
  -25    3   15      1.51      0.00
    3    3   15      5.30      0.00
    5    3   15      2.15      0.00
    7    3   15     -2.16      0.00
    9    3   15      2.94      0.00
   11    3   15     -0.32      0.00
   13    3   15     -2.73      0.00
   15    3   15     -0.32      0.00
   17    3   15     -0.76      0.00
  -36    4   15     -0.15      0.00
  -34    4   15      0.22      0.00
  -32    4   15      1.05      0.00
  -30    4   15      0.15      0.00
  -28    4   15     -1.56      0.00
  -26    4   15     -3.31      0.00
  -24    4   15     -4.10      0.00
    2    4   15     -1.02      0.00
    4    4   15     -5.67      0.00
    6    4   15     -0.79      0.00
    8    4   15     -0.04      0.00
   10    4   15      0.02      0.00
   12    4   15      3.73      0.00
   14    4   15      1.45      0.00
   16    4   15     -0.64      0.00
  -37    5   15     -0.18      0.00
  -35    5   15     -0.30      0.00
  -33    5   15      0.72      0.00
  -31    5   15     -0.26      0.00
  -29    5   15     -0.74      0.00
  -27    5   15      4.16      0.00
  -25    5   15      3.51      0.00
  -23    5   15      1.30      0.00
  -21    5   15      4.75      0.00
   -1    5   15     -1.67      0.00
    1    5   15     -2.54      0.00
    3    5   15     -1.64      0.00
    5    5   15      1.90      0.00
    7    5   15      0.69      0.00
    9    5   15     -2.00      0.00
   11    5   15     -0.86      0.00
   13    5   15     -1.32      0.00
   15    5   15     -0.88      0.00
  -36    6   15     -0.98      0.00
  -34    6   15      0.30      0.00
  -32    6   15      0.28      0.00
  -30    6   15     -0.74      0.00
  -28    6   15      0.23      0.00
  -26    6   15     -2.71      0.00
  -24    6   15      0.01      0.00
  -22    6   15      0.81      0.00
  -20    6   15     -4.94      0.00
  -18    6   15      3.02      0.00
  -16    6   15      6.17      0.00
   -6    6   15     -2.89      0.00
   -4    6   15      2.95      0.00
   -2    6   15      5.12      0.00
    0    6   15      2.55      0.00
    2    6   15      3.74      0.00
    4    6   15      3.16      0.00
    6    6   15     -0.59      0.00
    8    6   15      1.20      0.00
   10    6   15     -0.08      0.00
   12    6   15     -1.88      0.00
   14    6   15      1.23      0.00
  -35    7   15      0.11      0.00
  -33    7   15     -1.63      0.00
  -31    7   15      0.46      0.00
  -29    7   15      0.72      0.00
  -27    7   15     -1.01      0.00
  -25    7   15     -0.81      0.00
  -23    7   15     -1.68      0.00
  -21    7   15      2.00      0.00
  -19    7   15     -0.51      0.00
  -17    7   15     -7.69      0.00
  -15    7   15     -1.15      0.00
  -13    7   15      3.25      0.00
  -11    7   15      1.79      0.00
   -9    7   15      1.05      0.00
   -7    7   15     -0.49      0.00
   -5    7   15      1.01      0.00
   -3    7   15     -3.29      0.00
   -1    7   15     -4.63      0.00
    1    7   15      0.02      0.00
    3    7   15     -2.29      0.00
    5    7   15     -1.25      0.00
    7    7   15      1.16      0.00
    9    7   15      0.34      0.00
   11    7   15      2.28      0.00
   13    7   15      1.46      0.00
  -34    8   15      0.79      0.00
  -32    8   15      0.93      0.00
  -30    8   15      0.91      0.00
  -28    8   15     -0.85      0.00
  -26    8   15      2.40      0.00
  -24    8   15      1.63      0.00
  -22    8   15     -3.24      0.00
  -20    8   15      1.15      0.00
  -18    8   15      2.97      0.00
  -16    8   15     -1.72      0.00
  -14    8   15     -0.13      0.00
  -12    8   15      0.80      0.00
  -10    8   15     -1.60      0.00
   -8    8   15      2.38      0.00
   -6    8   15      0.85      0.00
   -4    8   15     -2.44      0.00
   -2    8   15      2.33      0.00
    0    8   15     -0.48      0.00
    2    8   15     -2.09      0.00
    4    8   15      0.27      0.00
    6    8   15     -2.57      0.00
    8    8   15     -1.17      0.00
   10    8   15     -0.42      0.00
   12    8   15     -1.59      0.00
  -31    9   15     -1.62      0.00
  -29    9   15      0.04      0.00
  -27    9   15      0.15      0.00
  -25    9   15     -0.88      0.00
  -23    9   15      2.24      0.00
  -21    9   15     -0.17      0.00
  -19    9   15      0.00      0.00
  -17    9   15      4.69      0.00
  -15    9   15      1.06      0.00
  -13    9   15     -0.47      0.00
  -11    9   15      0.56      0.00
   -9    9   15     -1.05      0.00
   -7    9   15      0.41      0.00
   -5    9   15      1.59      0.00
   -3    9   15      1.43      0.00
   -1    9   15      1.51      0.00
    1    9   15      1.10      0.00
    3    9   15      1.45      0.00
    5    9   15      2.05      0.00
    7    9   15      1.31      0.00
    9    9   15     -0.11      0.00
  -28   10   15      0.04      0.00
  -26   10   15     -0.66      0.00
  -24   10   15     -1.15      0.00
  -22   10   15      1.48      0.00
  -20   10   15      0.06      0.00
  -18   10   15     -3.40      0.00
  -16   10   15     -0.36      0.00
  -14   10   15      0.39      0.00
  -12   10   15     -0.98      0.00
  -10   10   15      1.24      0.00
   -8   10   15     -1.39      0.00
   -6   10   15     -1.38      0.00
   -4   10   15      0.85      0.00
   -2   10   15     -2.31      0.00
    0   10   15     -0.31      0.00
    2   10   15      0.77      0.00
    4   10   15     -0.89      0.00
    6   10   15     -0.14      0.00
  -25   11   15     -0.08      0.00
  -23   11   15     -1.32      0.00
  -21   11   15     -0.99      0.00
  -19   11   15     -0.70      0.00
  -17   11   15     -1.48      0.00
  -15   11   15     -0.98      0.00
  -13   11   15      0.01      0.00
  -11   11   15     -0.07      0.00
   -9   11   15      0.96      0.00
   -7   11   15      0.87      0.00
   -5   11   15     -1.40      0.00
   -3   11   15     -0.51      0.00
   -1   11   15      0.48      0.00
    1   11   15     -0.76      0.00
    3   11   15     -1.04      0.00
  -20   12   15      1.29      0.00
  -18   12   15      2.87      0.00
  -16   12   15      0.75      0.00
  -14   12   15      0.11      0.00
  -12   12   15      0.10      0.00
  -10   12   15     -1.27      0.00
   -8   12   15     -0.31      0.00
   -6   12   15      0.74      0.00
   -4   12   15      0.60      0.00
   -2   12   15      0.58      0.00
  -36    0   16      0.38      0.00
  -34    0   16     -0.11      0.00
  -32    0   16     -0.80      0.00
  -30    0   16     -0.46      0.00
  -28    0   16     -1.23      0.00
  -26    0   16      1.78      0.00
  -24    0   16      1.64      0.00
  -22    0   16      4.72      0.00
   -2    0   16      5.17      0.00
    0    0   16     -0.37      0.00
    2    0   16     -2.52      0.00
    4    0   16     -2.35      0.00
    6    0   16      5.75      0.00
    8    0   16      3.68      0.00
   10    0   16     -1.80      0.00
   12    0   16     -0.01      0.00
   14    0   16      0.00      0.00
   16    0   16      0.37      0.00
  -37    1   16     -0.67      0.00
  -35    1   16      0.66      0.00
  -33    1   16      1.47      0.00
  -31    1   16      0.52      0.00
  -29    1   16      2.06      0.00
  -27    1   16     -0.03      0.00
  -25    1   16     -2.18      0.00
  -23    1   16     -1.33      0.00
  -21    1   16     -3.90      0.00
   -3    1   16     -8.09      0.00
   -1    1   16     -1.33      0.00
    1    1   16      1.31      0.00
    3    1   16      3.39      0.00
    5    1   16     -1.15      0.00
    7    1   16     -4.06      0.00
    9    1   16      0.42      0.00
   11    1   16      0.79      0.00
   13    1   16      0.04      0.00
   15    1   16     -0.07      0.00
  -36    2   16      0.14      0.00
  -34    2   16     -1.82      0.00
  -32    2   16     -0.25      0.00
  -30    2   16     -1.88      0.00
  -28    2   16     -0.99      0.00
  -26    2   16      1.95      0.00
  -24    2   16      0.78      0.00
  -22    2   16      0.06      0.00
  -20    2   16      0.56      0.00
   -4    2   16      6.76      0.00
   -2    2   16      2.70      0.00
    0    2   16     -0.16      0.00
    2    2   16     -2.11      0.00
    4    2   16     -2.03      0.00
    6    2   16      0.48      0.00
    8    2   16      0.35      0.00
   10    2   16     -1.14      0.00
   12    2   16     -0.57      0.00
   14    2   16      0.27      0.00
  -37    3   16     -0.32      0.00
  -35    3   16     -0.53      0.00
  -33    3   16     -1.21      0.00
  -31    3   16      0.70      0.00
  -29    3   16     -0.64      0.00
  -27    3   16     -1.14      0.00
  -25    3   16     -0.42      0.00
  -23    3   16     -1.16      0.00
  -21    3   16      2.58      0.00
  -19    3   16     -0.25      0.00
   -5    3   16     -1.40      0.00
   -3    3   16     -2.09      0.00
   -1    3   16     -0.38      0.00
    1    3   16      1.21      0.00
    3    3   16      0.97      0.00
    5    3   16      1.20      0.00
    7    3   16     -0.05      0.00
    9    3   16     -0.15      0.00
   11    3   16      1.17      0.00
   13    3   16     -0.17      0.00
   15    3   16     -0.20      0.00
  -36    4   16      0.24      0.00
  -34    4   16      2.42      0.00
  -32    4   16      0.41      0.00
  -30    4   16      1.24      0.00
  -28    4   16      1.59      0.00
  -26    4   16     -1.83      0.00
  -24    4   16      2.08      0.00
  -22    4   16     -0.40      0.00
  -20    4   16     -4.84      0.00
  -18    4   16      1.42      0.00
  -16    4   16      1.88      0.00
  -14    4   16      0.96      0.00
  -12    4   16      2.86      0.00
  -10    4   16     -1.56      0.00
   -8    4   16     -4.63      0.00
   -6    4   16     -3.87      0.00
   -4    4   16     -1.34      0.00
   -2    4   16      0.96      0.00
    0    4   16     -1.59      0.00
    2    4   16     -0.86      0.00
    4    4   16      1.59      0.00
    6    4   16     -0.58      0.00
    8    4   16      0.68      0.00
   10    4   16      1.09      0.00
   12    4   16     -1.10      0.00
   14    4   16     -0.34      0.00
  -37    5   16     -0.25      0.00
  -35    5   16      0.05      0.00
  -33    5   16     -0.69      0.00
  -31    5   16     -1.23      0.00
  -29    5   16      0.16      0.00
  -27    5   16      1.27      0.00
  -25    5   16      0.15      0.00
  -23    5   16     -1.58      0.00
  -21    5   16      0.90      0.00
  -19    5   16      2.71      0.00
  -17    5   16     -1.22      0.00
  -15    5   16     -3.99      0.00
  -13    5   16     -2.40      0.00
  -11    5   16     -0.39      0.00
   -9    5   16     -1.18      0.00
   -7    5   16      0.99      0.00
   -5    5   16      4.61      0.00
   -3    5   16      0.61      0.00
   -1    5   16     -0.03      0.00
    1    5   16      2.15      0.00
    3    5   16     -1.83      0.00
    5    5   16     -0.73      0.00
    7    5   16      0.41      0.00
    9    5   16     -2.32      0.00
   11    5   16      0.64      0.00
   13    5   16      1.56      0.00
  -34    6   16     -0.80      0.00
  -32    6   16      0.43      0.00
  -30    6   16     -1.05      0.00
  -28    6   16     -2.49      0.00
  -26    6   16     -0.16      0.00
  -24    6   16      0.68      0.00
  -22    6   16      1.77      0.00
  -20    6   16      0.37      0.00
  -18    6   16     -0.23      0.00
  -16    6   16      2.35      0.00
  -14    6   16      1.05      0.00
  -12    6   16     -0.50      0.00
  -10    6   16      0.77      0.00
   -8    6   16      2.71      0.00
   -6    6   16     -0.51      0.00
   -4    6   16     -2.93      0.00
   -2    6   16      0.34      0.00
    0    6   16     -0.56      0.00
    2    6   16     -0.26      0.00
    4    6   16      1.00      0.00
    6    6   16     -0.69      0.00
    8    6   16      0.28      0.00
   10    6   16     -0.33      0.00
   12    6   16     -1.33      0.00
  -33    7   16      0.69      0.00
  -31    7   16      1.40      0.00
  -29    7   16      1.90      0.00
  -27    7   16      2.57      0.00
  -25    7   16     -0.94      0.00
  -23    7   16     -1.15      0.00
  -21    7   16      0.36      0.00
  -19    7   16     -2.57      0.00
  -17    7   16     -1.39      0.00
  -15    7   16      3.63      0.00
  -13    7   16      2.26      0.00
  -11    7   16     -0.75      0.00
   -9    7   16     -0.24      0.00
   -7    7   16     -1.83      0.00
   -5    7   16     -0.91      0.00
   -3    7   16      1.22      0.00
   -1    7   16     -0.44      0.00
    1    7   16     -0.03      0.00
    3    7   16     -0.30      0.00
    5    7   16     -0.51      0.00
    7    7   16      1.83      0.00
    9    7   16      1.53      0.00
  -32    8   16     -0.43      0.00
  -30    8   16     -0.68      0.00
  -28    8   16     -1.87      0.00
  -26    8   16     -0.22      0.00
  -24    8   16      0.46      0.00
  -22    8   16     -1.55      0.00
  -20    8   16      2.01      0.00
  -18    8   16      1.02      0.00
  -16    8   16     -4.05      0.00
  -14    8   16     -2.63      0.00
  -12    8   16     -0.36      0.00
  -10    8   16      0.59      0.00
   -8    8   16      0.31      0.00
   -6    8   16      1.06      0.00
   -4    8   16      1.03      0.00
   -2    8   16     -1.10      0.00
    0    8   16      0.19      0.00
    2    8   16      1.23      0.00
    4    8   16      0.82      0.00
    6    8   16     -0.78      0.00
    8    8   16     -1.84      0.00
  -29    9   16      0.68      0.00
  -27    9   16     -0.91      0.00
  -25    9   16      0.01      0.00
  -23    9   16      1.63      0.00
  -21    9   16     -1.31      0.00
  -19    9   16      0.17      0.00
  -17    9   16      3.54      0.00
  -15    9   16      0.25      0.00
  -13    9   16     -0.74      0.00
  -11    9   16     -0.14      0.00
   -9    9   16     -0.98      0.00
   -7    9   16      1.04      0.00
   -5    9   16      0.01      0.00
   -3    9   16      0.13      0.00
   -1    9   16      1.55      0.00
    1    9   16     -1.33      0.00
    3    9   16     -1.13      0.00
    5    9   16     -0.08      0.00
  -26   10   16      0.48      0.00
  -24   10   16     -0.12      0.00
  -22   10   16      0.34      0.00
  -20   10   16     -0.88      0.00
  -18   10   16     -1.38      0.00
  -16   10   16      0.32      0.00
  -14   10   16      1.47      0.00
  -12   10   16      1.26      0.00
  -10   10   16      0.42      0.00
   -8   10   16     -0.76      0.00
   -6   10   16     -0.80      0.00
   -4   10   16     -0.50      0.00
   -2   10   16     -0.88      0.00
    0   10   16      0.28      0.00
    2   10   16      0.69      0.00
  -19   11   16      0.20      0.00
  -17   11   16     -1.14      0.00
  -15   11   16     -0.52      0.00
  -13   11   16     -0.79      0.00
  -11   11   16     -0.05      0.00
   -9   11   16      0.60      0.00
   -7   11   16     -0.37      0.00
   -5   11   16      0.03      0.00
   -3   11   16      0.45      0.00
    0    0    0      0.00      0.00
# SQUEEZE RESULTS (Version =  70515)
# Note: Data are Listed for all Voids in the P1 Unit Cell
# i.e. Centre of Gravity, Solvent Accessible Volume,
# Recovered number of Electrons in the Void and
# Details about the Squeezed Material
loop_
  _platon_squeeze_void_nr
  _platon_squeeze_void_average_x
  _platon_squeeze_void_average_y
  _platon_squeeze_void_average_z
  _platon_squeeze_void_volume
  _platon_squeeze_void_count_electrons
  _platon_squeeze_void_content
   1  0.500  0.000  0.284       969       377 ' '
   2  0.000  0.500  0.419       969       377 ' '
_platon_squeeze_void_probe_radius                  1.20
_platon_squeeze_details
;
_olex2_submission_special_instructions 'No special instructions were received'
loop_
_space_group_symop_operation_xyz
'x, y, z'
'-x, y, -z+1/2'
'x+1/2, y+1/2, z'
'-x+1/2, y+1/2, -z+1/2'
'-x, -y, -z'
'x, -y, z-1/2'
'-x+1/2, -y+1/2, -z'
'x+1/2, -y+1/2, z-1/2'
loop_
_atom_site_label
_atom_site_type_symbol
_atom_site_fract_x
_atom_site_fract_y
_atom_site_fract_z
_atom_site_U_iso_or_equiv
_atom_site_adp_type
_atom_site_occupancy
_atom_site_site_symmetry_order
_atom_site_calc_flag
_atom_site_refinement_flags_posn
_atom_site_refinement_flags_adp
_atom_site_refinement_flags_occupancy
_atom_site_disorder_assembly
_atom_site_disorder_group
C2 C 0.27339(9) 0.5808(3) 0.4983(2) 0.0479(16) Uani 1 1 d . . . A 1
C3 C 0.26875(11) 0.6389(2) 0.5651(2) 0.0460(16) Uani 1 1 d G . . A 1
C4 C 0.23363(13) 0.6362(3) 0.5848(2) 0.0511(18) Uani 1 1 d G . . A 1
C5 C 0.20316(10) 0.5753(3) 0.5376(3) 0.0492(17) Uani 1 1 d G . . A 1
C6 C 0.20780(10) 0.5172(2) 0.4707(2) 0.0455(16) Uani 1 1 d G . . A 1
C1 C 0.24292(11) 0.5199(2) 0.4511(2) 0.0384(15) Uani 1 1 d G . . A 1
Cu1 Cu 0.5000 0.5000 1.0000 0.0804(6) Uani 1 2 d S T P B 1
O6 O 0.30796(12) 0.4328(3) 0.3005(3) 0.0605(12) Uani 1 1 d . . . A 1
N6 N 0.25367(15) 0.5097(3) 0.3067(3) 0.0460(13) Uani 1 1 d . . . A 1
H6 H 0.2358 0.5516 0.2818 0.055 Uiso 1 1 calc R . . A 1
N4 N 0.33335(14) 0.6800(3) 0.6747(3) 0.0464(13) Uani 1 1 d . . . A 1
H4 H 0.3293 0.6380 0.7104 0.056 Uiso 1 1 calc R . . A 1
O5 O 0.37935(14) 0.7656(4) 0.6361(3) 0.0836(16) Uani 1 1 d . . . A 1
N5 N 0.13867(15) 0.6335(4) 0.5458(3) 0.0607(15) Uani 1 1 d . . . A 1
H5 H 0.1360 0.6681 0.4994 0.073 Uiso 1 1 calc R . . A 1
N3 N 0.46022(17) 0.5702(4) 0.8979(3) 0.0585(16) Uani 1 1 d . . . . .
N2 N 0.03486(19) 0.8847(6) 0.5285(4) 0.071(2) Uani 1 1 d . . . . .
O7 O 0.11781(18) 0.6021(5) 0.6606(4) 0.118(2) Uani 1 1 d . . . A 1
C25 C 0.28375(19) 0.4984(5) 0.2754(4) 0.0475(16) Uani 1 1 d . . . A 1
C14 C 0.40174(18) 0.6607(5) 0.7623(4) 0.0477(16) Uani 1 1 d . . . . .
C10 C 0.24956(19) 0.4551(4) 0.3804(4) 0.0527(17) Uani 1 1 d . . . A 1
H10A H 0.2733 0.4173 0.4069 0.063 Uiso 1 1 calc R . . A 1
H10B H 0.2274 0.4114 0.3586 0.063 Uiso 1 1 calc R . . A 1
C30 C 0.2569(2) 0.6229(5) 0.1554(4) 0.0536(17) Uani 1 1 d . . . A 1
H30 H 0.2316 0.6156 0.1594 0.064 Uiso 1 1 calc R . . A 1
C13 C 0.3702(2) 0.7078(5) 0.6863(4) 0.0530(17) Uani 1 1 d . . . A 1
C26 C 0.2877(2) 0.5701(4) 0.2087(4) 0.0519(17) Uani 1 1 d . . . A 1
C20 C 0.0876(2) 0.7316(5) 0.5691(5) 0.0571(18) Uani 1 1 d . . . . .
C12 C 0.1684(2) 0.5571(5) 0.5699(4) 0.065(2) Uani 1 1 d . . . A 1
H12A H 0.1559 0.4972 0.5449 0.077 Uiso 1 1 calc R . . A 1
H12B H 0.1781 0.5503 0.6342 0.077 Uiso 1 1 calc R . . A 1
C11 C 0.29945(18) 0.7180(4) 0.6036(4) 0.0576(18) Uani 1 1 d . . . A 1
H11A H 0.3083 0.7441 0.5567 0.069 Uiso 1 1 calc R . . A 1
H11B H 0.2874 0.7695 0.6268 0.069 Uiso 1 1 calc R . . A 1
N1 N 0.2983(2) 0.7022(4) 0.0860(5) 0.086(2) Uani 1 1 d . . . A 1
C7 C 0.17333(18) 0.4606(5) 0.4093(5) 0.0636(19) Uani 1 1 d . . . A 1
H7A H 0.1758 0.3946 0.4272 0.095 Uiso 1 1 calc GR . . A 1
H7B H 0.1735 0.4655 0.3492 0.095 Uiso 1 1 calc GR . . A 1
H7C H 0.1489 0.4860 0.4127 0.095 Uiso 1 1 calc GR . . A 1
C19 C 0.1163(2) 0.6492(5) 0.5942(5) 0.069(2) Uani 1 1 d . . . A 1
C8 C 0.31414(17) 0.5757(5) 0.4852(4) 0.0608(19) Uani 1 1 d . . . A 1
H8A H 0.3147 0.6191 0.4387 0.091 Uiso 1 1 calc GR . . A 1
H8B H 0.3188 0.5115 0.4690 0.091 Uiso 1 1 calc GR . . A 1
H8C H 0.3344 0.5932 0.5396 0.091 Uiso 1 1 calc GR . . A 1
C9 C 0.2292(2) 0.6983(5) 0.6597(4) 0.072(2) Uani 1 1 d . . . A 1
H9A H 0.2532 0.6963 0.7097 0.108 Uiso 1 1 calc GR . . A 1
H9B H 0.2077 0.6746 0.6775 0.108 Uiso 1 1 calc GR . . A 1
H9C H 0.2238 0.7632 0.6393 0.108 Uiso 1 1 calc GR . . A 1
C29 C 0.2632(2) 0.6870(5) 0.0959(5) 0.073(2) Uani 1 1 d . . . A 1
H29 H 0.2417 0.7219 0.0603 0.087 Uiso 1 1 calc R . . A 1
C27 C 0.3243(2) 0.5857(6) 0.2001(6) 0.082(2) Uani 1 1 d . . . A 1
H27 H 0.3462 0.5509 0.2344 0.098 Uiso 1 1 calc R . . A 1
C28 C 0.3283(3) 0.6540(7) 0.1398(7) 0.098(3) Uani 1 1 d . . . A 1
H28 H 0.3536 0.6661 0.1374 0.117 Uiso 1 1 calc R . . A 1
C18A C 0.3960(3) 0.6077(9) 0.8284(7) 0.039(3) Uani 0.555(9) 1 d . . . B 1
H18A H 0.3702 0.6004 0.8294 0.046 Uiso 0.555(9) 1 calc R . . B 1
C17A C 0.4255(3) 0.5652(10) 0.8924(8) 0.049(3) Uani 0.555(9) 1 d . . . B 1
H17A H 0.4191 0.5298 0.9353 0.059 Uiso 0.555(9) 1 calc R . . B 1
C24A C 0.0717(5) 0.7615(11) 0.6324(11) 0.075(5) Uani 0.555(9) 1 d . . . B 1
H24A H 0.0784 0.7317 0.6878 0.091 Uiso 0.555(9) 1 calc R . . B 1
C23A C 0.0453(5) 0.8376(12) 0.6114(10) 0.069(5) Uani 0.555(9) 1 d . . . B 1
H23A H 0.0340 0.8581 0.6533 0.083 Uiso 0.555(9) 1 calc R . . B 1
F1 F 0.53299(15) 0.4451(4) 0.8919(3) 0.0970(16) Uani 1 1 d . . . . .
C21A C 0.0722(5) 0.7665(10) 0.4882(9) 0.067(4) Uani 0.555(9) 1 d . . . B 1
H21A H 0.0797 0.7410 0.4422 0.080 Uiso 0.555(9) 1 calc R . . B 1
C15A C 0.4427(3) 0.6656(10) 0.7685(8) 0.062(4) Uani 0.555(9) 1 d . . . B 1
H15A H 0.4505 0.7035 0.7291 0.075 Uiso 0.555(9) 1 calc R . . B 1
C22A C 0.0451(4) 0.8397(12) 0.4704(10) 0.081(5) Uani 0.555(9) 1 d . . . B 1
H22A H 0.0334 0.8576 0.4112 0.097 Uiso 0.555(9) 1 calc R . . B 1
C16A C 0.4708(3) 0.6127(11) 0.8347(9) 0.069(4) Uani 0.555(9) 1 d . . . B 1
H16A H 0.4966 0.6075 0.8342 0.083 Uiso 0.555(9) 1 calc R . . B 1
C24B C 0.0999(5) 0.8158(13) 0.5372(11) 0.057(5) Uani 0.445(9) 1 d . . . B 2
H24B H 0.1244 0.8178 0.5289 0.068 Uiso 0.445(9) 1 calc R . . B 2
C23B C 0.0759(4) 0.8947(13) 0.5181(11) 0.068(5) Uani 0.445(9) 1 d . . . B 2
H23B H 0.0841 0.9519 0.4998 0.081 Uiso 0.445(9) 1 calc R . . B 2
C15B C 0.4181(6) 0.5885(15) 0.7479(10) 0.085(7) Uani 0.445(9) 1 d . . . B 2
H15B H 0.4114 0.5643 0.6903 0.102 Uiso 0.445(9) 1 calc R . . B 2
C21B C 0.0506(6) 0.7293(17) 0.5691(15) 0.086(6) Uani 0.445(9) 1 d . . . B 2
H21B H 0.0399 0.6725 0.5820 0.103 Uiso 0.445(9) 1 calc R . . B 2
C22B C 0.0277(5) 0.8123(17) 0.550(2) 0.079(7) Uani 0.445(9) 1 d . . . B 2
H22B H 0.0027 0.8069 0.5553 0.095 Uiso 0.445(9) 1 calc R . . B 2
C17B C 0.4383(6) 0.655(2) 0.9123(11) 0.107(9) Uani 0.445(9) 1 d . . . B 2
H17B H 0.4450 0.6813 0.9690 0.129 Uiso 0.445(9) 1 calc R . . B 2
C18B C 0.4075(8) 0.697(2) 0.8419(12) 0.140(13) Uani 0.445(9) 1 d . . . B 2
H18B H 0.3921 0.7470 0.8513 0.168 Uiso 0.445(9) 1 calc R . . B 2
F2 F 0.5972(2) 0.4283(9) 0.9283(6) 0.244(5) Uani 1 1 d . . . . .
F3 F 0.5621(3) 0.3979(13) 0.7982(5) 0.327(9) Uani 1 1 d . . . . .
F4 F 0.5599(4) 0.3116(9) 0.9025(11) 0.306(7) Uani 1 1 d . . . . .
B5 B 0.5613(5) 0.4010(17) 0.8726(13) 0.172(10) Uani 1 1 d . . . . .
C16B C 0.4464(5) 0.5429(12) 0.8170(11) 0.072(6) Uani 0.445(9) 1 d . . . B 2
H16B H 0.4566 0.4859 0.8030 0.087 Uiso 0.445(9) 1 calc R . . B 2
loop_
_atom_site_aniso_label
_atom_site_aniso_U_11
_atom_site_aniso_U_22
_atom_site_aniso_U_33
_atom_site_aniso_U_23
_atom_site_aniso_U_13
_atom_site_aniso_U_12
C2 0.058(4) 0.045(4) 0.031(3) 0.010(3) 0.001(3) 0.021(3)
C3 0.053(4) 0.043(4) 0.025(3) 0.010(3) -0.011(3) 0.023(3)
C4 0.079(5) 0.042(4) 0.015(3) 0.006(3) -0.008(3) 0.038(4)
C5 0.062(4) 0.052(4) 0.035(4) 0.015(3) 0.017(3) 0.031(4)
C6 0.057(4) 0.033(4) 0.039(4) 0.012(3) 0.006(3) 0.016(3)
C1 0.046(4) 0.031(4) 0.032(3) 0.007(3) 0.004(3) 0.012(3)
Cu1 0.0596(9) 0.0910(11) 0.0613(9) 0.0363(7) -0.0198(6) -0.0297(7)
O6 0.059(3) 0.054(3) 0.063(3) -0.009(2) 0.013(2) 0.011(3)
N6 0.054(3) 0.048(3) 0.034(3) -0.004(2) 0.012(2) 0.006(2)
N4 0.053(3) 0.039(3) 0.033(3) 0.013(2) -0.006(2) 0.003(3)
O5 0.076(3) 0.111(4) 0.069(3) 0.051(3) 0.029(3) 0.015(3)
N5 0.068(3) 0.062(4) 0.060(3) 0.022(3) 0.031(3) 0.029(3)
N3 0.054(4) 0.068(4) 0.046(4) 0.021(3) 0.006(3) -0.017(3)
N2 0.056(4) 0.089(6) 0.052(4) -0.030(4) -0.006(3) 0.026(4)
O7 0.145(5) 0.137(5) 0.110(5) 0.068(4) 0.094(4) 0.070(4)
C25 0.050(4) 0.041(4) 0.045(4) -0.006(3) 0.009(3) -0.002(3)
C14 0.053(4) 0.043(4) 0.043(4) 0.006(4) 0.010(3) 0.002(3)
C10 0.070(4) 0.046(4) 0.042(4) 0.000(3) 0.019(3) 0.007(3)
C30 0.064(4) 0.052(4) 0.043(4) -0.013(3) 0.016(3) -0.012(4)
C13 0.060(4) 0.060(5) 0.031(4) 0.007(3) 0.004(3) 0.007(4)
C26 0.063(4) 0.038(4) 0.061(4) -0.018(3) 0.029(4) -0.008(3)
C20 0.057(5) 0.062(5) 0.053(5) 0.006(4) 0.019(4) 0.010(4)
C12 0.100(5) 0.048(4) 0.057(4) 0.029(3) 0.041(4) 0.033(4)
C11 0.066(4) 0.043(4) 0.043(4) 0.010(3) -0.011(3) 0.012(3)
N1 0.107(6) 0.061(5) 0.105(5) 0.007(4) 0.057(5) -0.014(4)
C7 0.060(4) 0.052(4) 0.070(5) 0.002(4) 0.010(4) 0.002(3)
C19 0.073(5) 0.075(5) 0.068(5) 0.027(4) 0.037(4) 0.026(4)
C8 0.056(4) 0.064(5) 0.052(4) 0.012(3) 0.004(3) 0.009(3)
C9 0.093(5) 0.068(5) 0.044(4) 0.001(4) 0.008(4) 0.039(4)
C29 0.091(6) 0.071(5) 0.063(5) -0.004(4) 0.035(4) -0.005(4)
C27 0.071(5) 0.058(5) 0.120(7) -0.001(5) 0.037(5) 0.003(4)
C28 0.082(6) 0.084(7) 0.148(9) 0.021(7) 0.065(6) -0.007(5)
C18A 0.033(6) 0.050(8) 0.024(6) 0.002(6) -0.004(5) -0.009(6)
C17A 0.027(7) 0.064(10) 0.048(8) 0.010(7) 0.001(6) -0.008(6)
C24A 0.077(11) 0.083(11) 0.077(12) 0.033(9) 0.040(10) 0.047(10)
C23A 0.054(9) 0.102(13) 0.055(9) -0.013(10) 0.022(7) -0.001(10)
F1 0.059(3) 0.116(4) 0.097(4) 0.008(3) -0.001(3) -0.005(3)
C21A 0.082(11) 0.068(10) 0.057(9) -0.013(8) 0.033(8) 0.030(9)
C15A 0.050(8) 0.083(11) 0.054(8) 0.017(8) 0.017(6) -0.004(8)
C22A 0.067(10) 0.091(12) 0.078(11) 0.003(10) 0.014(9) 0.020(10)
C16A 0.032(7) 0.112(13) 0.058(8) 0.024(9) 0.009(7) 0.016(8)
C24B 0.042(9) 0.075(13) 0.061(11) 0.019(10) 0.026(8) 0.014(10)
C23B 0.036(9) 0.073(12) 0.092(13) 0.015(10) 0.019(9) 0.011(9)
C15B 0.096(13) 0.080(15) 0.036(10) -0.012(9) -0.036(9) 0.026(13)
C21B 0.050(12) 0.122(19) 0.084(16) 0.010(13) 0.019(10) 0.006(13)
C22B 0.025(9) 0.061(16) 0.14(2) -0.018(15) 0.010(12) 0.010(11)
C17B 0.110(16) 0.15(2) 0.039(10) -0.005(12) -0.012(10) 0.067(17)
C18B 0.17(2) 0.20(3) 0.031(12) 0.009(15) 0.003(12) 0.12(2)
F2 0.105(5) 0.446(15) 0.190(8) -0.083(9) 0.063(5) -0.031(7)
F3 0.255(10) 0.66(3) 0.069(5) 0.014(9) 0.057(6) 0.172(14)
F4 0.249(12) 0.237(12) 0.45(2) -0.032(13) 0.134(13) 0.052(10)
B5 0.083(10) 0.21(2) 0.164(17) 0.114(16) -0.038(11) -0.017(12)
C16B 0.072(12) 0.058(11) 0.050(11) -0.005(8) -0.029(9) 0.009(10)
loop_
_atom_type_symbol
_atom_type_description
_atom_type_scat_dispersion_real
_atom_type_scat_dispersion_imag
_atom_type_scat_source
C C 0.0033 0.0016 'International Tables Vol C Tables 4.2.6.8 and 6.1.1.4'
H H 0.0000 0.0000 'International Tables Vol C Tables 4.2.6.8 and 6.1.1.4'
B B 0.0013 0.0007 'International Tables Vol C Tables 4.2.6.8 and 6.1.1.4'
Cu Cu 0.3201 1.2651 'International Tables Vol C Tables 4.2.6.8 and 6.1.1.4'
F F 0.0171 0.0103 'International Tables Vol C Tables 4.2.6.8 and 6.1.1.4'
N N 0.0061 0.0033 'International Tables Vol C Tables 4.2.6.8 and 6.1.1.4'
O O 0.0106 0.0060 'International Tables Vol C Tables 4.2.6.8 and 6.1.1.4'
loop_
_geom_angle_atom_site_label_1
_geom_angle_atom_site_label_2
_geom_angle_atom_site_label_3
_geom_angle
_geom_angle_site_symmetry_1
_geom_angle_site_symmetry_3
C3 C2 C1 120.0 . .
C3 C2 C8 119.1(4) . .
C1 C2 C8 120.4(4) . .
C2 C3 C4 120.0 . .
C2 C3 C11 118.3(4) . .
C4 C3 C11 120.7(4) . .
C3 C4 C9 119.7(4) . .
C5 C4 C3 120.0 . .
C5 C4 C9 120.3(4) . .
C4 C5 C6 120.0 . .
C4 C5 C12 120.3(4) . .
C6 C5 C12 118.6(4) . .
C5 C6 C7 121.3(4) . .
C1 C6 C5 120.0 . .
C1 C6 C7 118.1(4) . .
C2 C1 C10 118.5(4) . .
C6 C1 C2 120.0 . .
C6 C1 C10 121.5(4) . .
N3 Cu1 N3 180.0(3) . 5_667
N2 Cu1 N3 89.3(2) 4_546 .
N2 Cu1 N3 90.7(2) 4_546 5_667
N2 Cu1 N3 90.7(2) 8_566 .
N2 Cu1 N3 89.3(2) 8_566 5_667
N2 Cu1 N2 180.0(3) 8_566 4_546
C25 N6 H6 118.3 . .
C25 N6 C10 123.3(5) . .
C10 N6 H6 118.3 . .
C13 N4 H4 118.8 . .
C13 N4 C11 122.3(5) . .
C11 N4 H4 118.8 . .
C12 N5 H5 119.9 . .
C19 N5 H5 119.9 . .
C19 N5 C12 120.2(5) . .
C17A N3 Cu1 117.4(6) . .
C17A N3 C16A 120.6(8) . .
C16A N3 Cu1 121.7(6) . .
C16B N3 C17B 110.3(10) . .
C23A N2 Cu1 122.8(7) . 4_556
C22A N2 Cu1 122.9(8) . 4_556
C22A N2 C23A 113.6(11) . .
C22B N2 C23B 115.7(13) . .
O6 C25 N6 122.2(6) . .
O6 C25 C26 120.3(6) . .
N6 C25 C26 117.4(6) . .
C18A C14 C13 126.5(7) . .
C18A C14 C15A 112.6(8) . .
C15A C14 C13 120.9(7) . .
C15B C14 C18B 124.3(12) . .
C1 C10 H10A 109.3 . .
C1 C10 H10B 109.3 . .
N6 C10 C1 111.6(4) . .
N6 C10 H10A 109.3 . .
N6 C10 H10B 109.3 . .
H10A C10 H10B 108.0 . .
C26 C30 H30 120.1 . .
C26 C30 C29 119.7(7) . .
C29 C30 H30 120.1 . .
N4 C13 C14 115.6(6) . .
O5 C13 N4 123.8(5) . .
O5 C13 C14 120.5(6) . .
C30 C26 C25 123.7(6) . .
C30 C26 C27 116.9(7) . .
C27 C26 C25 119.4(7) . .
C24A C20 C19 116.7(8) . .
C21A C20 C19 125.0(8) . .
C21A C20 C24A 117.4(9) . .
C21B C20 C24B 116.7(12) . .
C5 C12 H12A 108.9 . .
C5 C12 H12B 108.9 . .
N5 C12 C5 113.3(5) . .
N5 C12 H12A 108.9 . .
N5 C12 H12B 108.9 . .
H12A C12 H12B 107.7 . .
C3 C11 H11A 109.6 . .
C3 C11 H11B 109.6 . .
N4 C11 C3 110.5(4) . .
N4 C11 H11A 109.6 . .
N4 C11 H11B 109.6 . .
H11A C11 H11B 108.1 . .
C28 N1 C29 116.1(7) . .
C6 C7 H7A 109.5 . .
C6 C7 H7B 109.5 . .
C6 C7 H7C 109.5 . .
H7A C7 H7B 109.5 . .
H7A C7 H7C 109.5 . .
H7B C7 H7C 109.5 . .
N5 C19 C20 118.1(6) . .
O7 C19 N5 123.9(6) . .
O7 C19 C20 118.1(7) . .
C2 C8 H8A 109.5 . .
C2 C8 H8B 109.5 . .
C2 C8 H8C 109.5 . .
H8A C8 H8B 109.5 . .
H8A C8 H8C 109.5 . .
H8B C8 H8C 109.5 . .
C4 C9 H9A 109.5 . .
C4 C9 H9B 109.5 . .
C4 C9 H9C 109.5 . .
H9A C9 H9B 109.5 . .
H9A C9 H9C 109.5 . .
H9B C9 H9C 109.5 . .
C30 C29 H29 117.9 . .
N1 C29 C30 124.1(7) . .
N1 C29 H29 117.9 . .
C26 C27 H27 120.2 . .
C26 C27 C28 119.6(7) . .
C28 C27 H27 120.2 . .
N1 C28 C27 123.4(8) . .
N1 C28 H28 118.3 . .
C27 C28 H28 118.3 . .
C14 C18A H18A 118.4 . .
C17A C18A C14 123.2(10) . .
C17A C18A H18A 118.4 . .
N3 C17A C18A 124.0(11) . .
N3 C17A H17A 118.0 . .
C18A C17A H17A 118.0 . .
C20 C24A H24A 121.0 . .
C20 C24A C23A 118.0(12) . .
C23A C24A H24A 121.0 . .
N2 C23A H23A 118.9 . .
C24A C23A N2 122.2(11) . .
C24A C23A H23A 118.9 . .
C20 C21A H21A 119.3 . .
C20 C21A C22A 121.3(11) . .
C22A C21A H21A 119.3 . .
C14 C15A H15A 120.4 . .
C16A C15A C14 119.3(10) . .
C16A C15A H15A 120.4 . .
N2 C22A C21A 124.9(13) . .
N2 C22A H22A 117.5 . .
C21A C22A H22A 117.5 . .
N3 C16A C15A 119.6(10) . .
N3 C16A H16A 120.2 . .
C15A C16A H16A 120.2 . .
C20 C24B H24B 119.8 . .
C23B C24B C20 120.5(12) . .
C23B C24B H24B 119.8 . .
N2 C23B H23B 121.5 . .
C24B C23B N2 117.0(13) . .
C24B C23B H23B 121.5 . .
C14 C15B H15B 119.9 . .
C14 C15B C16B 120.1(15) . .
C16B C15B H15B 119.9 . .
C20 C21B H21B 120.2 . .
C20 C21B C22B 119.5(18) . .
C22B C21B H21B 120.2 . .
N2 C22B C21B 129.9(19) . .
N2 C22B H22B 115.0 . .
C21B C22B H22B 115.0 . .
N3 C17B H17B 119.2 . .
C18B C17B N3 121.7(17) . .
C18B C17B H17B 119.2 . .
C14 C18B C17B 115.9(18) . .
C14 C18B H18B 122.1 . .
C17B C18B H18B 122.1 . .
F1 B5 F2 111(2) . .
F1 B5 F4 103.6(16) . .
F3 B5 F1 121.7(12) . .
F3 B5 F2 109.3(17) . .
F3 B5 F4 109(3) . .
F4 B5 F2 99.6(11) . .
N3 C16B C15B 127.1(16) . .
N3 C16B H16B 116.5 . .
C15B C16B H16B 116.5 . .
loop_
_geom_bond_atom_site_label_1
_geom_bond_atom_site_label_2
_geom_bond_distance
_geom_bond_site_symmetry_2
C2 C3 1.3900 .
C2 C1 1.3900 .
C2 C8 1.538(7) .
C3 C4 1.3900 .
C3 C11 1.534(7) .
C4 C5 1.3900 .
C4 C9 1.522(7) .
C5 C6 1.3900 .
C5 C12 1.513(7) .
C6 C1 1.3900 .
C6 C7 1.517(7) .
C1 C10 1.519(6) .
Cu1 N3 2.023(5) 5_667
Cu1 N3 2.023(5) .
Cu1 N2 1.993(7) 8_566
Cu1 N2 1.993(7) 4_546
O6 C25 1.232(7) .
N6 H6 0.8600 .
N6 C25 1.334(8) .
N6 C10 1.444(7) .
N4 H4 0.8600 .
N4 C13 1.324(7) .
N4 C11 1.458(6) .
O5 C13 1.253(7) .
N5 H5 0.8600 .
N5 C12 1.463(7) .
N5 C19 1.297(8) .
N3 C17A 1.216(11) .
N3 C16A 1.323(14) .
N3 C17B 1.48(2) .
N3 C16B 1.275(16) .
N2 Cu1 1.993(7) 4_556
N2 C23A 1.408(17) .
N2 C22A 1.265(16) .
N2 C23B 1.535(16) .
N2 C22B 1.12(2) .
O7 C19 1.228(8) .
C25 C26 1.498(9) .
C14 C13 1.505(8) .
C14 C18A 1.356(12) .
C14 C15A 1.435(13) .
C14 C15B 1.223(18) .
C14 C18B 1.31(2) .
C10 H10A 0.9700 .
C10 H10B 0.9700 .
C30 H30 0.9300 .
C30 C26 1.364(8) .
C30 C29 1.373(9) .
C26 C27 1.374(9) .
C20 C19 1.503(9) .
C20 C24A 1.374(15) .
C20 C21A 1.314(14) .
C20 C24B 1.405(17) .
C20 C21B 1.325(19) .
C12 H12A 0.9700 .
C12 H12B 0.9700 .
C11 H11A 0.9700 .
C11 H11B 0.9700 .
N1 C29 1.331(9) .
N1 C28 1.315(10) .
C7 H7A 0.9600 .
C7 H7B 0.9600 .
C7 H7C 0.9600 .
C8 H8A 0.9600 .
C8 H8B 0.9600 .
C8 H8C 0.9600 .
C9 H9A 0.9600 .
C9 H9B 0.9600 .
C9 H9C 0.9600 .
C29 H29 0.9300 .
C27 H27 0.9300 .
C27 C28 1.392(11) .
C28 H28 0.9300 .
C18A H18A 0.9300 .
C18A C17A 1.339(14) .
C17A H17A 0.9300 .
C24A H24A 0.9300 .
C24A C23A 1.386(19) .
C23A H23A 0.9300 .
F1 B5 1.30(3) .
C21A H21A 0.9300 .
C21A C22A 1.371(18) .
C15A H15A 0.9300 .
C15A C16A 1.401(15) .
C22A H22A 0.9300 .
C16A H16A 0.9300 .
C24B H24B 0.9300 .
C24B C23B 1.37(2) .
C23B H23B 0.9300 .
C15B H15B 0.9300 .
C15B C16B 1.38(2) .
C21B H21B 0.9300 .
C21B C22B 1.39(3) .
C22B H22B 0.9300 .
C17B H17B 0.9300 .
C17B C18B 1.41(2) .
C18B H18B 0.9300 .
F2 B5 1.353(16) .
F3 B5 1.19(2) .
F4 B5 1.342(17) .
C16B H16B 0.9300 .
loop_
_geom_torsion_atom_site_label_1
_geom_torsion_atom_site_label_2
_geom_torsion_atom_site_label_3
_geom_torsion_atom_site_label_4
_geom_torsion
_geom_torsion_site_symmetry_1
C2 C3 C4 C5 0.0 .
C2 C3 C4 C9 178.5(4) .
C2 C3 C11 N4 -85.6(5) .
C2 C1 C10 N6 -66.1(5) .
C3 C2 C1 C6 0.0 .
C3 C2 C1 C10 -178.1(4) .
C3 C4 C5 C6 0.0 .
C3 C4 C5 C12 167.9(4) .
C4 C3 C11 N4 105.7(5) .
C4 C5 C6 C1 0.0 .
C4 C5 C6 C7 -171.2(4) .
C4 C5 C12 N5 80.5(5) .
C5 C6 C1 C2 0.0 .
C5 C6 C1 C10 178.1(4) .
C6 C5 C12 N5 -111.4(5) .
C6 C1 C10 N6 115.8(4) .
C1 C2 C3 C4 0.0 .
C1 C2 C3 C11 -168.8(3) .
Cu1 N3 C17A C18A -179.8(11) .
Cu1 N3 C16A C15A -175.9(10) .
Cu1 N2 C23A C24A -175.4(12) 4_556
Cu1 N2 C22A C21A 172.9(12) 4_556
O6 C25 C26 C30 156.8(6) .
O6 C25 C26 C27 -24.0(9) .
N6 C25 C26 C30 -24.2(8) .
N6 C25 C26 C27 155.0(6) .
N3 C17B C18B C14 -5(4) .
C25 N6 C10 C1 128.6(5) .
C25 C26 C27 C28 -178.4(7) .
C14 C18A C17A N3 0(2) .
C14 C15A C16A N3 -10(2) .
C14 C15B C16B N3 -4(3) .
C10 N6 C25 O6 8.5(9) .
C10 N6 C25 C26 -170.5(5) .
C30 C26 C27 C28 0.8(10) .
C13 N4 C11 C3 142.3(5) .
C13 C14 C18A C17A 177.8(10) .
C13 C14 C15A C16A -173.4(10) .
C26 C30 C29 N1 -0.2(10) .
C26 C27 C28 N1 -3.6(13) .
C20 C24A C23A N2 -1(3) .
C20 C21A C22A N2 6(3) .
C20 C24B C23B N2 -3(2) .
C20 C21B C22B N2 5(4) .
C12 C5 C6 C1 -168.1(4) .
C12 C5 C6 C7 20.7(5) .
C12 N5 C19 O7 -1.1(12) .
C12 N5 C19 C20 177.0(6) .
C11 C3 C4 C5 168.5(3) .
C11 C3 C4 C9 -13.0(4) .
C11 N4 C13 O5 -2.9(10) .
C11 N4 C13 C14 -179.4(5) .
C7 C6 C1 C2 171.5(4) .
C7 C6 C1 C10 -10.5(5) .
C19 N5 C12 C5 -153.2(6) .
C19 C20 C24A C23A 179.8(13) .
C19 C20 C21A C22A 177.6(12) .
C8 C2 C3 C4 -172.6(4) .
C8 C2 C3 C11 18.6(4) .
C8 C2 C1 C6 172.5(4) .
C8 C2 C1 C10 -5.6(4) .
C9 C4 C5 C6 -178.5(4) .
C9 C4 C5 C12 -10.6(4) .
C29 C30 C26 C25 -179.8(6) .
C29 C30 C26 C27 0.9(9) .
C29 N1 C28 C27 4.2(13) .
C28 N1 C29 C30 -2.4(11) .
C18A C14 C13 N4 -13.1(12) .
C18A C14 C13 O5 170.3(9) .
C18A C14 C15A C16A 4.3(17) .
C17A N3 C16A C15A 10.3(19) .
C24A C20 C19 N5 -164.3(11) .
C24A C20 C19 O7 14.0(14) .
C24A C20 C21A C22A 9(2) .
C23A N2 C22A C21A -16(2) .
C21A C20 C19 N5 27.0(14) .
C21A C20 C19 O7 -154.7(12) .
C21A C20 C24A C23A -11(2) .
C15A C14 C13 N4 164.2(9) .
C15A C14 C13 O5 -12.4(12) .
C15A C14 C18A C17A 0.3(17) .
C22A N2 C23A C24A 14(2) .
C16A N3 C17A C18A -6(2) .
C24B C20 C21B C22B -9(3) .
C23B N2 C22B C21B 1(4) .
C15B C14 C18B C17B 8(4) .
C21B C20 C24B C23B 8(2) .
C22B N2 C23B C24B -1(2) .
C17B N3 C16B C15B 6(3) .
C18B C14 C15B C16B -4(3) .
C16B N3 C17B C18B -2(3) .
