#------------------------------------------------------------------------------
#$Date: 2020-03-05 01:36:17 +0200 (Thu, 05 Mar 2020) $
#$Revision: 248822 $
#$URL: file:///home/coder/svn-repositories/cod/cif/7/12/58/7125854.cif $
#------------------------------------------------------------------------------
#
# This file is available in the Crystallography Open Database (COD),
# http://www.crystallography.net/
#
# All data on this site have been placed in the public domain by the
# contributors.
#
data_7125854
loop_
_publ_author_name
'Wang, Sa-Sa'
'Yang, Wen-Bin'
'Yang, Mingxue'
'Wu, Xiao-Yuan'
'Wu, Weiming'
'Wang, Song-Xia'
'Lin, Lang'
'Lu, Can-Zhong'
_publ_section_title
;
 A bi-polyoxometallate-based host-guest metal-organic framework.
;
_journal_issue                   16
_journal_name_full
'Chemical communications (Cambridge, England)'
_journal_page_first              2503
_journal_page_last               2506
_journal_paper_doi               10.1039/c9cc09008h
_journal_volume                  56
_journal_year                    2020
_chemical_absolute_configuration ad
_chemical_formula_moiety         'C17 H38 N6 Ni6 O44 P W9, C6 H20 N4 Ni, H2 O'
_chemical_formula_sum            'C23 H60 N10 Ni7 O45 P W9'
_chemical_formula_weight         3293.40
_space_group_crystal_system      orthorhombic
_space_group_IT_number           19
_space_group_name_Hall           'P 2ac 2ab'
_space_group_name_H-M_alt        'P 21 21 21'
_atom_sites_solution_hydrogens   mixed
_atom_sites_solution_primary     iterative
_audit_creation_date             2019-08-21
_audit_creation_method
;
Olex2 1.2
(compiled 2018.05.29 svn.r3508 for OlexSys, GUI svn.r5506)
;
_audit_update_record
;
2019-08-22 deposited with the CCDC.	2020-01-22 downloaded from the CCDC.
;
_cell_angle_alpha                90
_cell_angle_beta                 90
_cell_angle_gamma                90
_cell_formula_units_Z            4
_cell_length_a                   13.5091(2)
_cell_length_b                   14.2789(2)
_cell_length_c                   36.1110(6)
_cell_measurement_reflns_used    26564
_cell_measurement_temperature    100.00(11)
_cell_measurement_theta_max      30.7460
_cell_measurement_theta_min      3.6250
_cell_volume                     6965.63(18)
_computing_cell_refinement
;
CrysAlisPro, Agilent Technologies,
Version 1.171.37.35 (release 13-08-2014 CrysAlis171 .NET)
(compiled Aug 13 2014,18:06:01)
;
_computing_data_collection
;
CrysAlisPro, Agilent Technologies,
Version 1.171.37.35 (release 13-08-2014 CrysAlis171 .NET)
(compiled Aug 13 2014,18:06:01)
;
_computing_data_reduction
;
CrysAlisPro, Agilent Technologies,
Version 1.171.37.35 (release 13-08-2014 CrysAlis171 .NET)
(compiled Aug 13 2014,18:06:01)
;
_computing_molecular_graphics    'Olex2 (Dolomanov et al., 2009)'
_computing_publication_material  'Olex2 (Dolomanov et al., 2009)'
_computing_structure_refinement  'ShelXL (Sheldrick, 2015)'
_computing_structure_solution
;
Superflip (Palatinus & Chapuis, 2007;Palatinus & van der Lee, 2008;
Palatinus et al., 2012)
;
_diffrn_ambient_environment      N~2~
_diffrn_ambient_temperature      100.00(11)
_diffrn_detector                 'CCD plate'
_diffrn_detector_area_resol_mean 10.3503
_diffrn_detector_type            Atlas
_diffrn_measured_fraction_theta_full 0.996
_diffrn_measured_fraction_theta_max 0.997
_diffrn_measurement_details
;
#__ type_ start__ end____ width___ exp.time_
  1 omega  -18.00   94.00   0.5000    8.6750
omega____ theta____ kappa____ phi______ frames
    -       15.4102   77.0000   90.0000 224

#__ type_ start__ end____ width___ exp.time_
  2 omega   11.00   92.00   0.5000    8.6750
omega____ theta____ kappa____ phi______ frames
    -       15.4102   77.0000 -150.0000 162

#__ type_ start__ end____ width___ exp.time_
  3 omega   27.00   59.00   0.5000    8.6750
omega____ theta____ kappa____ phi______ frames
    -      -15.5664   77.0000  -60.0000 64
;
_diffrn_measurement_device       'four-circle diffractometer'
_diffrn_measurement_device_type  'SuperNova, Dual, Cu at zero, Atlas'
_diffrn_measurement_method       '\w scans'
_diffrn_orient_matrix_UB_11      0.0188406000
_diffrn_orient_matrix_UB_12      0.0455135000
_diffrn_orient_matrix_UB_13      0.0034958000
_diffrn_orient_matrix_UB_21      0.0325282000
_diffrn_orient_matrix_UB_22      -0.0187062000
_diffrn_orient_matrix_UB_23      0.0135445000
_diffrn_orient_matrix_UB_31      0.0366381000
_diffrn_orient_matrix_UB_32      -0.0067669000
_diffrn_orient_matrix_UB_33      -0.0137984000
_diffrn_radiation_monochromator  mirror
_diffrn_radiation_probe          x-ray
_diffrn_radiation_type           MoK\a
_diffrn_radiation_wavelength     0.71073
_diffrn_reflns_av_R_equivalents  0.0396
_diffrn_reflns_av_unetI/netI     0.0508
_diffrn_reflns_Laue_measured_fraction_full 0.996
_diffrn_reflns_Laue_measured_fraction_max 0.997
_diffrn_reflns_limit_h_max       13
_diffrn_reflns_limit_h_min       -18
_diffrn_reflns_limit_k_max       19
_diffrn_reflns_limit_k_min       -15
_diffrn_reflns_limit_l_max       48
_diffrn_reflns_limit_l_min       -41
_diffrn_reflns_number            40345
_diffrn_reflns_point_group_measured_fraction_full 0.997
_diffrn_reflns_point_group_measured_fraction_max 0.998
_diffrn_reflns_theta_full        25.242
_diffrn_reflns_theta_max         28.282
_diffrn_reflns_theta_min         3.384
_diffrn_source                   'SuperNova (Mo) X-ray Source'
_exptl_absorpt_coefficient_mu    16.754
_exptl_absorpt_correction_T_max  1.00000
_exptl_absorpt_correction_T_min  0.19470
_exptl_absorpt_correction_type   multi-scan
_exptl_absorpt_process_details
;
CrysAlisPro, Agilent Technologies,
Version 1.171.37.35 (release 13-08-2014 CrysAlis171 .NET)
(compiled Aug 13 2014,18:06:01)
Empirical absorption correction using spherical harmonics,
 implemented in SCALE3 ABSPACK scaling algorithm.
;
_exptl_crystal_colour            'clear green'
_exptl_crystal_colour_lustre     clear
_exptl_crystal_colour_primary    green
_exptl_crystal_density_diffrn    3.140
_exptl_crystal_density_method    'not measured'
_exptl_crystal_description       block
_exptl_crystal_F_000             6020
_exptl_crystal_size_max          0.23
_exptl_crystal_size_mid          0.14
_exptl_crystal_size_min          0.1
_refine_diff_density_max         4.404
_refine_diff_density_min         -2.606
_refine_diff_density_rms         0.312
_refine_ls_abs_structure_details
;
 Refined as an inversion twin.
;
_refine_ls_abs_structure_Flack   0.036(10)
_refine_ls_extinction_method     none
_refine_ls_goodness_of_fit_ref   1.042
_refine_ls_hydrogen_treatment    constr
_refine_ls_matrix_type           full
_refine_ls_number_parameters     905
_refine_ls_number_reflns         16970
_refine_ls_number_restraints     549
_refine_ls_restrained_S_all      1.030
_refine_ls_R_factor_all          0.0387
_refine_ls_R_factor_gt           0.0372
_refine_ls_shift/su_max          0.002
_refine_ls_shift/su_mean         0.000
_refine_ls_structure_factor_coef Fsqd
_refine_ls_weighting_details
'w=1/[\s^2^(Fo^2^)+(0.0504P)^2^+36.3214P] where P=(Fo^2^+2Fc^2^)/3'
_refine_ls_weighting_scheme      calc
_refine_ls_wR_factor_gt          0.0913
_refine_ls_wR_factor_ref         0.0924
_reflns_Friedel_coverage         0.830
_reflns_Friedel_fraction_full    0.999
_reflns_Friedel_fraction_max     0.999
_reflns_number_gt                16382
_reflns_number_total             16970
_reflns_threshold_expression     'I > 2\s(I)'
_cod_data_source_file            c9cc09008h2.cif
_cod_data_source_block           exp_30008
_cod_depositor_comments
'Adding full bibliography for 7125851--7125854.cif.'
_cod_original_cell_volume        6965.63(19)
_cod_database_code               7125854
_shelx_shelxl_version_number     2017/1
_chemical_oxdiff_formula         'Ni W C O N P H'
_shelx_space_group_comment
;
The symmetry employed for this shelxl refinement is uniquely defined
by the following loop, which should always be used as a source of
symmetry information in preference to the above space-group names.
They are only intended as comments.
;
_shelx_estimated_absorpt_t_max   0.285
_shelx_estimated_absorpt_t_min   0.113
_reflns_odcompleteness_completeness 99.63
_reflns_odcompleteness_iscentric 1
_reflns_odcompleteness_theta     28.22
_olex2_refinement_description
;
1. Twinned data refinement
 Scales: 0.964(10)
 0.036(10)
2. Fixed Uiso
 At 1.2 times of:
  All C(H) groups, All C(H,H) groups, All N(H,H) groups, All N(H,H,H,H) groups
 At 1.5 times of:
  All C(H,H,H) groups, All C(H,H,H,H,H,H) groups, All O(H) groups, All O(H,H)
  groups
3. Restrained distances
 H59A-H1WB
 2.3 with sigma of 0.01
 H59A-H1WA
 2.3 with sigma of 0.01
 C80-C79
 1.5 with sigma of 0.02
4. Uiso/Uaniso restraints and constraints
C88 \\sim C78 \\sim C72 \\sim C75 \\sim C73 \\sim C77 \\sim C74 \\sim C76 \\sim
C93 \\sim C89 \\sim C94 \\sim C92 \\sim C90 \\sim C91 \\sim C82A \\sim C83A
\\sim C83B \\sim C84 \\sim C85A \\sim C86A \\sim C82B \\sim C81 \\sim C87 \\sim
C86B \\sim C85B \\sim C79 \\sim C80: within 3.8A with sigma of 0.01 and sigma
for terminal atoms of 0.02
N66 \\sim C80 \\sim C79 \\sim C81 \\sim N67: within 3.8A with sigma of 0.01 and
sigma for terminal atoms of 0.02
C89 \\sim C90 \\sim C91 \\sim N69 \\sim N68: within 3.8A with sigma of 0.01 and
sigma for terminal atoms of 0.02
C93 \\sim N71 \\sim C92 \\sim C94 \\sim N70: within 3.8A with sigma of 0.01 and
sigma for terminal atoms of 0.02
Uanis(O57) \\sim Ueq, Uanis(C77) \\sim Ueq, Uanis(C83A) \\sim Ueq, Uanis(C83B)
\\sim Ueq, Uanis(O51) \\sim Ueq, Uanis(C85B) \\sim Ueq, Uanis(C82A) \\sim Ueq,
Uanis(C82B) \\sim Ueq, Uanis(C86B) \\sim Ueq, Uanis(C86A) \\sim Ueq, Uanis(O40)
\\sim Ueq, Uanis(O48) \\sim Ueq, Uanis(O29) \\sim Ueq, Uanis(N65) \\sim Ueq,
Uanis(O41) \\sim Ueq, Uanis(C90) \\sim Ueq, Uanis(C94) \\sim Ueq, Uanis(C85A)
\\sim Ueq, Uanis(O55) \\sim Ueq, Uanis(O32) \\sim Ueq, Uanis(O21) \\sim Ueq,
Uanis(C72) \\sim Ueq, Uanis(O31) \\sim Ueq, Uanis(C80) \\sim Ueq, Uanis(O42)
\\sim Ueq: with sigma of 0.002 and sigma for terminal atoms of 0.004
5. Others
 Sof(H64C)=Sof(H64D)=Sof(H65C)=Sof(H65D)=Sof(H63C)=Sof(H63D)=Sof(H62C)=
 Sof(H62D)=Sof(C82A)=Sof(H82A)=Sof(H82B)=Sof(C83A)=Sof(H83A)=Sof(H84D)=
 Sof(H84E)=Sof(H84F)=Sof(H87D)=Sof(H87E)=Sof(H87F)=Sof(C86B)=Sof(H86B)=
 Sof(C85B)=Sof(H85C)=Sof(H85D)=1-FVAR(1)
 Sof(H64A)=Sof(H64B)=Sof(H65A)=Sof(H65B)=Sof(H63A)=Sof(H63B)=Sof(H62A)=
 Sof(H62B)=Sof(C83B)=Sof(H83B)=Sof(H84A)=Sof(H84B)=Sof(H84C)=Sof(C85A)=
 Sof(H85A)=Sof(H85B)=Sof(C86A)=Sof(H86A)=Sof(C82B)=Sof(H82C)=Sof(H82D)=
 Sof(H87A)=Sof(H87B)=Sof(H87C)=FVAR(1)
6.a Free rotating group:
 O1W(H1WA,H1WB)
6.b Rotating group:
 O59(H59A,H59B), O53(H53A,H53B)
6.c Ternary CH refined with riding coordinates:
 C92(H92), C90(H90), C83A(H83A), C83B(H83B), C86A(H86A), C86B(H86B), C80(H80)
6.d Secondary CH2 refined with riding coordinates:
 N64(H64C,H64D), N64(H64A,H64B), N65(H65C,H65D), N65(H65A,H65B), N67(H67A,
 H67B), N63(H63A,H63B), N63(H63C,H63D), N66(H66A,H66B), N69(H69A,H69B),
 N62(H62A,H62B), N62(H62C,H62D), N71(H71A,H71B), N70(H70A,H70B), C93(H93A,H93B),
  C89(H89A,H89B), N68(H68A,H68B), C82A(H82A,H82B), C85A(H85A,H85B), C82B(H82C,
 H82D), C85B(H85C,H85D), C79(H79A,H79B)
6.e Aromatic/amide H refined with riding coordinates:
 C78(H78), C74(H74), C76(H76)
6.f Idealised Me refined as rotating group:
 C94(H94A,H94B,H94C), C91(H91A,H91B,H91C), C84(H84D,H84E,H84F), C84(H84A,H84B,
 H84C), C81(H81A,H81B,H81C), C87(H87A,H87B,H87C), C87(H87D,H87E,H87F)
6.g Idealised tetrahedral OH refined as rotating group:
 O61(H61)
;
_shelx_res_file
;
TITL CF solution in P212121
    exp_30008.res
    created by SHELXL-2017/1 at 15:45:22 on 21-Aug-2019
CELL 0.71073 13.50909 14.2789 36.111 90 90 90
ZERR 4 0.0002 0.00024 0.00059 0 0 0
LATT -1
SYMM 0.5-X,-Y,0.5+Z
SYMM 0.5+X,0.5-Y,-Z
SYMM -X,0.5+Y,0.5-Z
SFAC C H N Ni O P W
UNIT 92 240 40 28 180 4 36
DFIX 2.3 0.01 H59a H1Wb
DFIX 2.3 0.01 H59a H1Wa
DFIX 1.5 C80 C79
SIMU 0.01 0.02 3.8 $C
SIMU 0.01 0.02 3.8 N66 C80 C79 C81 N67
SIMU 0.01 0.02 3.8 C89 C90 C91 N69 N68
SIMU 0.01 0.02 3.8 C93 N71 C92 C94 N70
ISOR 0.002 0.004 O57 C77 C83A C83B O51 C85B C82A C82B C86B C86A O40 O48 O29 =
 N65 O41 C90 C94 C85A O55 O32 O21 C72 O31 C80 O42

L.S. 20
PLAN  2
SIZE 0.1 0.14 0.23
TEMP -173.15(11)
ABIN
fmap 2
acta
SHEL 999 0.75
TWIN -1 0 0 0 -1 0 0 0 -1 2
REM <olex2.extras>
REM <HklSrc "%.\\exp_30008.hkl">
REM </olex2.extras>

WGHT    0.050400   36.321400
BASF   0.03564
FVAR       0.39031   0.60106
W7    7   -0.542109   -0.204701   -0.703195    11.00000    0.01185    0.00743 =
         0.01016    0.00082   -0.00143    0.00008
W5    7   -0.142768   -0.345162   -0.644824    11.00000    0.00945    0.01109 =
         0.01090   -0.00090    0.00011   -0.00079
W8    7   -0.664669   -0.323781   -0.624801    11.00000    0.00985    0.01011 =
         0.01159   -0.00083    0.00121    0.00025
W9    7   -0.526499   -0.446960   -0.562837    11.00000    0.01267    0.01162 =
         0.01076    0.00203    0.00264    0.00011
W3    7   -0.393398   -0.082976   -0.642298    11.00000    0.01303    0.00727 =
         0.01251   -0.00041   -0.00083   -0.00092
W6    7   -0.290997   -0.215243   -0.713110    11.00000    0.01217    0.00835 =
         0.01077    0.00082    0.00143   -0.00163
W2    7   -0.244903   -0.216818   -0.573772    11.00000    0.01133    0.01216 =
         0.00993   -0.00122   -0.00167   -0.00084
W10   7   -0.254929   -0.459717   -0.573467    11.00000    0.01220    0.01197 =
         0.00997    0.00134   -0.00032    0.00098
W4    7   -0.516829   -0.205279   -0.563562    11.00000    0.01200    0.01165 =
         0.01076   -0.00216    0.00091    0.00072
NI16  4   -0.658627   -0.422841   -0.713513    11.00000    0.01070    0.00869 =
         0.01163   -0.00069   -0.00049    0.00005
NI12  4   -0.307930   -0.537418   -0.664264    11.00000    0.00952    0.00906 =
         0.01301   -0.00035    0.00106   -0.00021
NI13  4   -0.429345   -0.425476   -0.723425    11.00000    0.01033    0.00883 =
         0.00971   -0.00112   -0.00018   -0.00069
NI15  4   -0.539258   -0.526189   -0.657748    11.00000    0.00961    0.00869 =
         0.01340   -0.00119    0.00124   -0.00066
NI11  4   -0.200067   -0.453317   -0.728516    11.00000    0.01091    0.01307 =
         0.01117   -0.00172    0.00114   -0.00120
NI14  4   -0.418059   -0.645556   -0.602958    11.00000    0.01761    0.01064 =
         0.01618    0.00327    0.00446    0.00091
NI0A  4   -0.387129   -0.237154   -0.459764    11.00000    0.01422    0.02316 =
         0.02077   -0.00299    0.00096   -0.00053
P1    6   -0.405449   -0.337034   -0.638639    11.00000    0.00863    0.00633 =
         0.00724    0.00007    0.00181    0.00051
O44   5   -0.630591   -0.415489   -0.656773    11.00000    0.01481    0.00880 =
         0.01724   -0.00236    0.00084   -0.00736
O39   5   -0.307058   -0.338512   -0.617034    11.00000    0.00639    0.00351 =
         0.01113    0.00016    0.00143    0.00081
O35   5   -0.563692   -0.516415   -0.526523    11.00000    0.01743    0.02615 =
         0.01030    0.00615    0.00442   -0.00289
O45   5   -0.215167   -0.172795   -0.746893    11.00000    0.02214    0.01308 =
         0.01592    0.00655   -0.00076   -0.00656
O29   5   -0.387216    0.037448   -0.634032    11.00000    0.01952    0.00717 =
         0.01748   -0.00080    0.00012   -0.00025
O21   5   -0.137208   -0.248232   -0.605201    11.00000    0.01591    0.01677 =
         0.01420   -0.00004    0.00014    0.00034
O41   5   -0.620870   -0.230908   -0.661212    11.00000    0.01329    0.00900 =
         0.00987   -0.00061   -0.00069   -0.00059
O51   5   -0.311165   -0.337214   -0.727510    11.00000    0.01064    0.01003 =
         0.00854    0.00092    0.00226   -0.00069
O60   5   -0.301764   -0.541907   -0.607523    11.00000    0.01870    0.01142 =
         0.01053   -0.00009    0.00086   -0.00317
O34   5   -0.205290   -0.529617   -0.540101    11.00000    0.01166    0.02300 =
         0.01873    0.00596    0.00197   -0.00089
O36   5   -0.389424   -0.443381   -0.554585    11.00000    0.00923    0.00534 =
         0.02073   -0.00362    0.00141   -0.00321
O25   5   -0.188501   -0.142674   -0.542845    11.00000    0.01901    0.01912 =
         0.02282   -0.00277   -0.00572   -0.00348
O28   5   -0.482240   -0.124796   -0.604000    11.00000    0.01332    0.01935 =
         0.01084    0.00184    0.00149    0.00074
O26   5   -0.552334   -0.124444   -0.530122    11.00000    0.01874    0.02680 =
         0.00972   -0.00072   -0.00060   -0.00083
O18   5   -0.195379   -0.249191   -0.676811    11.00000    0.01236    0.01343 =
         0.01930   -0.00298    0.00078   -0.00002
O47   5   -0.630591   -0.157469   -0.731780    11.00000    0.01163    0.01120 =
         0.01298    0.00127   -0.00235    0.00148
O50   5   -0.202702   -0.434574   -0.671365    11.00000    0.01220    0.01807 =
         0.01128    0.00504    0.00472    0.00409
O59   5   -0.437655   -0.433374   -0.780188    11.00000    0.02915    0.01384 =
         0.01884   -0.00006   -0.00128   -0.00458
AFIX   7
H59A  2   -0.457028   -0.387271   -0.802401    11.00000   -1.50000
H59B  2   -0.459774   -0.492893   -0.788997    11.00000   -1.50000
AFIX   0
O40   5   -0.408259   -0.250086   -0.663902    11.00000    0.00879    0.00881 =
         0.00739   -0.00194   -0.00274   -0.00063
O58   5   -0.538920   -0.327657   -0.718493    11.00000    0.00715    0.00625 =
         0.01816   -0.00271   -0.00195    0.00164
O42   5   -0.490126   -0.330099   -0.609669    11.00000    0.00980    0.01040 =
         0.00751   -0.00098    0.00114   -0.00146
O48   5   -0.416764   -0.427681   -0.661898    11.00000    0.00955    0.01020 =
         0.01108   -0.00172    0.00188   -0.00014
O24   5   -0.377585   -0.215311   -0.555759    11.00000    0.00696    0.01203 =
         0.01447   -0.00089    0.00263   -0.00587
O49   5   -0.429289   -0.620725   -0.657345    11.00000    0.00652    0.00570 =
         0.02550    0.00130   -0.00100    0.00218
O31   5   -0.307456   -0.100778   -0.682469    11.00000    0.01237    0.00954 =
         0.01228    0.00094    0.00150   -0.00055
O46   5   -0.420940   -0.181860   -0.731011    11.00000    0.01095    0.01496 =
         0.01185    0.00102   -0.00316    0.00081
O20   5   -0.020513   -0.348053   -0.657993    11.00000    0.00712    0.01941 =
         0.01979    0.00374    0.00078    0.00099
O30   5   -0.639172   -0.224017   -0.587783    11.00000    0.01442    0.01000 =
         0.00692    0.00187    0.00593    0.00118
O19   5   -0.326037   -0.522964   -0.718740    11.00000    0.01224    0.00929 =
         0.01129   -0.00153   -0.00331   -0.00481
O23   5   -0.230353   -0.334923   -0.550215    11.00000    0.00895    0.02174 =
         0.00822    0.00139   -0.00281   -0.00247
O32   5   -0.500896   -0.088206   -0.675670    11.00000    0.01518    0.01190 =
         0.01565   -0.00088    0.00082   -0.00156
O52   5   -0.542922   -0.511113   -0.713925    11.00000    0.01347    0.01982 =
         0.00748    0.00410    0.00225   -0.00047
O54   5   -0.195161   -0.632990   -0.667599    11.00000    0.00297    0.01514 =
         0.01609    0.00389    0.00027    0.00211
O43   5   -0.513867   -0.529300   -0.601137    11.00000    0.01113    0.01305 =
         0.01607    0.00060    0.00609    0.00485
O56   5   -0.753511   -0.524153   -0.697945    11.00000    0.01642    0.01855 =
         0.02209    0.00035    0.00152   -0.00348
O57   5   -0.791193   -0.314900   -0.628827    11.00000    0.00612    0.01608 =
         0.02038   -0.00032    0.00363    0.00020
O55   5   -0.664995   -0.610243   -0.656896    11.00000    0.01487    0.01237 =
         0.01676   -0.00032   -0.00179   -0.00005
O38   5   -0.652837   -0.406636   -0.583626    11.00000    0.01162    0.01063 =
         0.01278   -0.00217   -0.00634    0.00152
O37   5   -0.141404   -0.429646   -0.602748    11.00000    0.01490    0.02245 =
         0.01074   -0.00297   -0.00606   -0.00638
N64   3   -0.776746   -0.326853   -0.713004    11.00000    0.00990    0.02302 =
         0.00669   -0.00214   -0.00147    0.00382
PART 2
AFIX  23
H64C  2   -0.816163   -0.335809   -0.692878   -21.00000   -1.20000
H64D  2   -0.754144   -0.266818   -0.712921   -21.00000   -1.20000
AFIX  23
PART 0
PART 1
H64A  2   -0.828586   -0.350796   -0.699992    21.00000   -1.20000
H64B  2   -0.757504   -0.272433   -0.702042    21.00000   -1.20000
AFIX   0
PART 0
O17   5   -0.108048   -0.568270   -0.715023    11.00000    0.01993    0.01093 =
         0.02512    0.00169   -0.00215    0.00062
N65   3   -0.686352   -0.428224   -0.769447    11.00000    0.01140    0.00914 =
         0.00987   -0.00109   -0.00115    0.00189
PART 2
AFIX  23
H65C  2   -0.628607   -0.421452   -0.782144   -21.00000   -1.20000
H65D  2   -0.712632   -0.484968   -0.775359   -21.00000   -1.20000
AFIX  23
PART 0
PART 1
H65A  2   -0.643375   -0.390342   -0.781782    21.00000   -1.20000
H65B  2   -0.678319   -0.487786   -0.777892    21.00000   -1.20000
AFIX   0
PART 0
N67   3   -0.077380   -0.369225   -0.738871    11.00000    0.02311    0.02692 =
         0.01996   -0.00149   -0.00074   -0.00528
AFIX  23
H67A  2   -0.083281   -0.313571   -0.726793    11.00000   -1.20000
H67B  2   -0.021114   -0.398072   -0.731006    11.00000   -1.20000
AFIX   0
N63   3   -0.395293   -0.673304   -0.547789    11.00000    0.02998    0.03409 =
         0.01654    0.01091    0.01368    0.01188
PART 1
AFIX  23
H63A  2   -0.360266   -0.625520   -0.537477    21.00000   -1.20000
H63B  2   -0.454781   -0.676669   -0.536041    21.00000   -1.20000
AFIX  23
PART 0
PART 2
H63C  2   -0.384371   -0.619071   -0.535201   -21.00000   -1.20000
H63D  2   -0.449471   -0.701858   -0.537951   -21.00000   -1.20000
AFIX   0
PART 0
O27   5   -0.293421   -0.132695   -0.610593    11.00000    0.01362    0.02375 =
         0.01624   -0.00393    0.00348   -0.00180
N66   3   -0.200245   -0.469475   -0.784638    11.00000    0.02600    0.03040 =
         0.02245    0.00166   -0.00016   -0.00751
AFIX  23
H66A  2   -0.203476   -0.531574   -0.790173    11.00000   -1.20000
H66B  2   -0.255029   -0.441381   -0.794210    11.00000   -1.20000
AFIX   0
O33   5   -0.532311   -0.320201   -0.539442    11.00000    0.02072    0.02730 =
         0.00593   -0.00246   -0.00118    0.00178
C88   1   -0.746564   -0.582212   -0.672010    11.00000    0.01877    0.02655 =
         0.01366   -0.00615   -0.00351   -0.00514
O61   5    0.054968   -0.743889   -0.577411    11.00000    0.02659    0.05845 =
         0.03244    0.03273    0.00033    0.00290
AFIX 147
H61   2    0.047760   -0.704188   -0.560458    11.00000   -1.50000
AFIX   0

N69   3   -0.288364   -0.330275   -0.469577    11.00000    0.02938    0.02292 =
         0.02772   -0.00097    0.00404    0.00280
AFIX  23
H69A  2   -0.268713   -0.325970   -0.493621    11.00000   -1.20000
H69B  2   -0.234643   -0.319681   -0.454962    11.00000   -1.20000
AFIX   0

N62   3   -0.324019   -0.756426   -0.609380    11.00000    0.03617    0.01417 =
         0.01998   -0.00696    0.00218   -0.00006
PART 1
AFIX  23
H62A  2   -0.359571   -0.808947   -0.614561    21.00000   -1.20000
H62B  2   -0.282640   -0.745276   -0.628770    21.00000   -1.20000
AFIX  23
PART 0
PART 2
H62C  2   -0.347695   -0.795686   -0.627145   -21.00000   -1.20000
H62D  2   -0.263431   -0.735585   -0.616686   -21.00000   -1.20000
AFIX   0

PART 0
N71   3   -0.303012   -0.133582   -0.472449    11.00000    0.02478    0.02815 =
         0.01840    0.00103   -0.00437    0.00246
AFIX  23
H71A  2   -0.256181   -0.125307   -0.454633    11.00000   -1.20000
H71B  2   -0.271853   -0.145008   -0.494329    11.00000   -1.20000
AFIX   0

C78   1   -0.025769   -0.676737   -0.629884    11.00000    0.01810    0.02177 =
         0.02412    0.00524    0.00212   -0.00469
AFIX  43
H78   2   -0.088376   -0.692063   -0.619549    11.00000   -1.20000
AFIX   0
O53   5   -0.546401   -0.724270   -0.604437    11.00000    0.04517    0.01999 =
         0.05151    0.00395    0.02257   -0.00138
AFIX   7
H53A  2   -0.591371   -0.710365   -0.584962    11.00000   -1.50000
H53B  2   -0.535458   -0.788903   -0.599896    11.00000   -1.50000
AFIX   0
C72   1   -0.114916   -0.608291   -0.683764    11.00000    0.01584    0.01550 =
         0.01643   -0.00096    0.00142    0.00079
C75   1    0.158771   -0.621029   -0.657597    11.00000    0.01359    0.02212 =
         0.02049    0.00099    0.00115   -0.00150
C73   1   -0.020187   -0.633215   -0.663252    11.00000    0.01371    0.01668 =
         0.01877    0.00326    0.00406    0.00092
C77   1    0.062857   -0.699243   -0.610493    11.00000    0.02099    0.02153 =
         0.02252    0.00268    0.00027   -0.00125
C74   1    0.071822   -0.602325   -0.677417    11.00000    0.01416    0.01799 =
         0.01871    0.00116   -0.00117   -0.00239
AFIX  43
H74   2    0.074639   -0.569149   -0.700196    11.00000   -1.20000
AFIX   0
C76   1    0.152804   -0.670938   -0.624150    11.00000    0.01345    0.02531 =
         0.02056    0.00630   -0.00093    0.00038
AFIX  43
H76   2    0.211585   -0.685228   -0.610860    11.00000   -1.20000
AFIX   0

N70   3   -0.489089   -0.146228   -0.451373    11.00000    0.02773    0.03583 =
         0.03703   -0.00467    0.00046    0.00743
AFIX  23
H70A  2   -0.531845   -0.145899   -0.470846    11.00000   -1.20000
H70B  2   -0.523670   -0.161448   -0.430601    11.00000   -1.20000
AFIX   0
C93   1   -0.445469   -0.054550   -0.447075    11.00000    0.02893    0.03565 =
         0.03802   -0.00738   -0.00140    0.00538
AFIX  23
H93A  2   -0.419091   -0.046127   -0.421715    11.00000   -1.20000
H93B  2   -0.494723   -0.004808   -0.452097    11.00000   -1.20000
AFIX   0
C89   1   -0.326083   -0.423131   -0.462564    11.00000    0.04112    0.02792 =
         0.02724   -0.00221    0.00810   -0.00356
AFIX  23
H89A  2   -0.273589   -0.461759   -0.451046    11.00000   -1.20000
H89B  2   -0.344957   -0.452844   -0.486306    11.00000   -1.20000
AFIX   0
C94   1   -0.306410    0.040595   -0.469622    11.00000    0.05063    0.05113 =
         0.05568    0.00148   -0.00223    0.00107
AFIX 137
H94A  2   -0.347157    0.083302   -0.454825    11.00000   -1.50000
H94B  2   -0.292292    0.069261   -0.493708    11.00000   -1.50000
H94C  2   -0.244093    0.028231   -0.456618    11.00000   -1.50000
AFIX   0
C92   1   -0.362565   -0.052254   -0.475469    11.00000    0.03470    0.03554 =
         0.04431   -0.00493   -0.00094    0.00091
AFIX  13
H92   2   -0.392874   -0.051268   -0.500731    11.00000   -1.20000
AFIX   0
C90   1   -0.414509   -0.419857   -0.437387    11.00000    0.04327    0.04213 =
         0.04377    0.00095    0.00027   -0.00102
AFIX  13
H90   2   -0.387858   -0.407963   -0.411983    11.00000   -1.20000
AFIX   0
C91   1   -0.474723   -0.512241   -0.434640    11.00000    0.04864    0.03494 =
         0.06575   -0.00613   -0.00041   -0.01633
AFIX 137
H91A  2   -0.499028   -0.529676   -0.459263    11.00000   -1.50000
H91B  2   -0.531008   -0.503153   -0.417900    11.00000   -1.50000
H91C  2   -0.432131   -0.562193   -0.425023    11.00000   -1.50000
AFIX   0
N68   3   -0.471336   -0.339898   -0.446616    11.00000    0.03174    0.03372 =
         0.02900   -0.00079    0.00370   -0.00543
AFIX  23
H68A  2   -0.509726   -0.323432   -0.426959    11.00000   -1.20000
H68B  2   -0.512011   -0.353670   -0.465951    11.00000   -1.20000
AFIX   0

PART 2
C82A  1   -0.832699   -0.348685   -0.748984   -21.00000    0.01911    0.01913 =
         0.01897   -0.00004   -0.00037    0.00066
AFIX  23
H82A  2   -0.881024   -0.298468   -0.754505   -21.00000   -1.20000
H82B  2   -0.868834   -0.408726   -0.746698   -21.00000   -1.20000
AFIX   0
C83A  1   -0.754307   -0.354989   -0.780030   -21.00000    0.01809    0.01846 =
         0.01820    0.00050   -0.00023    0.00008
AFIX  13
H83A  2   -0.718439   -0.294042   -0.782489   -21.00000   -1.20000
AFIX   0
PART 0
PART 1
C83B  1   -0.792225   -0.395935   -0.776079    21.00000    0.01840    0.01861 =
         0.01830   -0.00053   -0.00043   -0.00102
AFIX  13
H83B  2   -0.838388   -0.445970   -0.767293    21.00000   -1.20000
AFIX   0
PART 0
C84   1   -0.812287   -0.377512   -0.816566    11.00000    0.02003    0.02353 =
         0.02447   -0.00085    0.00151    0.00377
PART 2
AFIX 137
H84D  2   -0.766900   -0.404916   -0.834753   -21.00000   -1.50000
H84E  2   -0.840630   -0.319652   -0.826597   -21.00000   -1.50000
H84F  2   -0.865576   -0.422050   -0.811187   -21.00000   -1.50000
AFIX 137
PART 0
PART 1
H84A  2   -0.766547   -0.329465   -0.825663    21.00000   -1.50000
H84B  2   -0.880582   -0.355696   -0.819621    21.00000   -1.50000
H84C  2   -0.802753   -0.435419   -0.830690    21.00000   -1.50000
AFIX   0
C85A  1   -0.344129   -0.756997   -0.542593    21.00000    0.02638    0.02601 =
         0.02639   -0.00055    0.00012   -0.00007
AFIX  23
H85A  2   -0.391388   -0.809978   -0.542193    21.00000   -1.20000
H85B  2   -0.309029   -0.755517   -0.518534    21.00000   -1.20000
AFIX   0
C86A  1   -0.265559   -0.771507   -0.575648    21.00000    0.02484    0.02502 =
         0.02402   -0.00120   -0.00016    0.00036
AFIX  13
H86A  2   -0.213352   -0.722050   -0.573920    21.00000   -1.20000
AFIX   0
C82B  1   -0.806751   -0.309016   -0.752006    21.00000    0.01758    0.01825 =
         0.01658   -0.00013   -0.00095    0.00034
AFIX  23
H82C  2   -0.766908   -0.256793   -0.762156    21.00000   -1.20000
H82D  2   -0.877238   -0.290117   -0.752660    21.00000   -1.20000
AFIX   0
PART 0
C81   1   -0.115413   -0.406887   -0.842136    11.00000    0.04862    0.03282 =
         0.02744   -0.00101    0.01003   -0.02783
AFIX 137
H81A  2   -0.092358   -0.461078   -0.856383    11.00000   -1.50000
H81B  2   -0.072773   -0.352939   -0.847332    11.00000   -1.50000
H81C  2   -0.183680   -0.392042   -0.849194    11.00000   -1.50000
AFIX   0
C87   1   -0.216834   -0.867988   -0.572542    11.00000    0.03397    0.02899 =
         0.02752   -0.00410   -0.00111    0.00741
PART 1
AFIX 137
H87A  2   -0.262280   -0.911410   -0.560187    21.00000   -1.50000
H87B  2   -0.155689   -0.862795   -0.558084    21.00000   -1.50000
H87C  2   -0.201344   -0.891519   -0.597369    21.00000   -1.50000
AFIX 137
PART 0
PART 2
H87D  2   -0.211873   -0.903425   -0.595710   -21.00000   -1.50000
H87E  2   -0.217661   -0.911511   -0.551561   -21.00000   -1.50000
H87F  2   -0.159814   -0.825942   -0.570292   -21.00000   -1.50000
AFIX   0
C86B  1   -0.314836   -0.808832   -0.572646   -21.00000    0.02599    0.02574 =
         0.02545   -0.00032    0.00012    0.00041
AFIX  13
H86B  2   -0.373972   -0.849331   -0.568062   -21.00000   -1.20000
AFIX   0
C85B  1   -0.306085   -0.736737   -0.544764   -21.00000    0.02758    0.02751 =
         0.02710   -0.00026   -0.00005    0.00050
AFIX  23
H85C  2   -0.244634   -0.700292   -0.548696   -21.00000   -1.20000
H85D  2   -0.303318   -0.765355   -0.519815   -21.00000   -1.20000
AFIX   6

PART 0
O1W   5   -0.449604   -0.258265   -0.802473    11.00000    0.04841    0.04621 =
         0.05196    0.00386   -0.00857    0.00823
H1WA  2   -0.410676   -0.238931   -0.820144    11.00000   -1.50000
H1WB  2   -0.506852   -0.233912   -0.807791    11.00000   -1.50000
AFIX   0

C79   1   -0.073859   -0.354112   -0.778998    11.00000    0.04503    0.04430 =
         0.03131    0.00043    0.00170   -0.01986
AFIX  23
H79A  2   -0.111830   -0.296607   -0.784724    11.00000   -1.20000
H79B  2   -0.004173   -0.342347   -0.786095    11.00000   -1.20000
AFIX   0
C80   1   -0.111511   -0.429032   -0.801949    11.00000    0.04371    0.04313 =
         0.04091    0.00097    0.00018   -0.00257
AFIX  13
H80   2   -0.060446   -0.479478   -0.799937    11.00000   -1.20000
AFIX   0
HKLF 4




REM  CF solution in P212121
REM R1 =  0.0372 for   16382 Fo > 4sig(Fo)  and  0.0387 for all   16970 data
REM    905 parameters refined using    549 restraints

END

WGHT      0.0503     36.6301

REM Highest difference peak  4.404,  deepest hole -2.606,  1-sigma level  0.312
Q1    1  -0.5406 -0.2601 -0.7031  11.00000  0.05    4.40
Q2    1  -0.3922 -0.1395 -0.6422  11.00000  0.05    3.81
;
_shelx_res_checksum              64676
_shelx_fab_file
;
-17 -6 -4 1.2862 -0.3608
-17 -6 -3 1.0763 4.1361
-17 -6 -2 -7.2083 -2.4066
-17 -6 -1 -3.7529 1.5681
-17 -5 -9 -0.2342 1.2712
-17 -5 -8 -4.2503 3.1363
-17 -5 -7 3.7089 6.9797
-17 -5 -6 3.2238 2.1254
-17 -5 -5 -1.8854 4.2978
-17 -5 -4 3.9881 -0.8792
-17 -5 -3 -1.3304 6.6087
-17 -5 -2 -2.3611 1.2344
-17 -5 -1 0.2214 -3.7479
-17 -4 -12 4.3174 3.8101
-17 -4 -11 2.5205 0.9614
-17 -4 -10 1.0111 2.4703
-17 -4 -9 -6.6257 0.4085
-17 -4 -8 -5.1693 1.6141
-17 -4 -7 -0.8838 -3.0187
-17 -4 -6 7.4707 1.9715
-17 -4 -5 1.6586 -3.7998
-17 -4 -4 4.4530 -3.0238
-17 -4 -3 6.8573 -1.1643
-17 -4 -2 3.1161 -0.0522
-17 -4 -1 2.6414 1.8201
-17 -3 -13 3.3265 -2.6214
-17 -3 -12 3.3566 -1.9345
-17 -3 -11 6.3069 -1.0886
-17 -3 -10 2.9584 -2.1808
-17 -3 -9 4.6187 -1.5688
-17 -3 -8 -0.8510 -0.0665
-17 -3 -7 2.8924 5.2109
-17 -3 -6 2.1316 9.9458
-17 -3 -5 -5.3612 3.0413
-17 -3 -4 2.5677 -4.8978
-17 -3 -3 -7.5935 -5.4412
-17 -3 -2 1.3647 2.1768
-17 -3 -1 -4.0903 -2.0401
-17 -2 -15 -3.0472 2.5718
-17 -2 -14 1.9647 7.6281
-17 -2 -13 0.1176 6.4039
-17 -2 -12 -3.6579 2.4737
-17 -2 -11 -6.1688 -1.8576
-17 -2 -10 2.5161 -10.9448
-17 -2 -9 -0.3375 -4.9187
-17 -2 -8 -4.0959 1.1626
-17 -2 -7 -4.3736 -10.8275
-17 -2 -6 -0.1513 9.2065
-17 -2 -5 9.8450 -6.2737
-17 -2 -4 5.6080 1.7762
-17 -2 -3 -0.4178 -1.1802
-17 -2 -2 6.6728 -0.3780
-17 -2 -1 -4.6637 3.0476
-17 -1 -15 4.5909 -3.2114
-17 -1 -14 3.4563 -5.5114
-17 -1 -13 4.3387 -2.5511
-17 -1 -12 13.8810 2.6927
-17 -1 -11 7.0111 -4.2946
-17 -1 -10 -0.9948 1.0418
-17 -1 -9 6.0960 4.3096
-17 -1 -8 -19.0243 -1.5278
-17 -1 -7 -3.0156 2.3330
-17 -1 -6 -1.9216 1.3982
-17 -1 -5 -1.9409 3.3241
-17 -1 -4 6.1573 11.4616
-17 -1 -3 -1.4243 -14.1844
-17 -1 -2 2.6142 -5.8000
-17 -1 -1 -5.9335 5.1781
-16 -8 -8 -3.3418 3.9521
-16 -8 -7 -7.3052 0.6831
-16 -8 -6 -10.5886 2.5822
-16 -8 -5 0.4916 4.2780
-16 -8 -4 -8.0789 2.5995
-16 -8 -3 -2.8073 3.2485
-16 -8 -2 -1.7211 -3.5712
-16 -8 -1 -0.9588 2.3238
-16 -7 -13 -0.9801 -0.8639
-16 -7 -12 -2.8089 -0.8582
-16 -7 -11 6.0051 1.5137
-16 -7 -10 0.0617 1.4329
-16 -7 -9 1.0863 0.1658
-16 -7 -8 -0.3455 -5.7180
-16 -7 -7 -4.7637 9.3936
-16 -7 -6 3.0478 3.5946
-16 -7 -5 0.6419 10.9596
-16 -7 -4 7.4023 9.1442
-16 -7 -3 -3.2676 12.2377
-16 -7 -2 5.0671 -4.4329
-16 -7 -1 0.2160 7.1421
-16 -6 -16 0.5192 -3.4865
-16 -6 -15 -3.2012 0.1256
-16 -6 -14 -0.0928 -3.2057
-16 -6 -13 -3.1458 2.2933
-16 -6 -12 -3.5402 -0.0889
-16 -6 -11 -1.4489 2.3465
-16 -6 -10 3.2647 2.3376
-16 -6 -9 1.7480 -6.1536
-16 -6 -8 3.5613 1.3011
-16 -6 -7 2.1478 1.2647
-16 -6 -6 0.5401 8.0863
-16 -6 -5 -1.4041 -2.8451
-16 -6 -4 10.0821 2.9328
-16 -6 -3 7.1069 0.0063
-16 -6 -2 10.7950 -4.9971
-16 -6 -1 6.9586 0.3383
-16 -5 -18 3.5757 3.8718
-16 -5 -17 -2.9292 -2.7081
-16 -5 -16 0.7783 4.5457
-16 -5 -15 -3.4978 0.5074
-16 -5 -14 0.1542 0.1215
-16 -5 -13 -0.9573 1.5900
-16 -5 -12 -3.7807 -0.6381
-16 -5 -11 1.4962 4.8481
-16 -5 -10 -2.0259 -1.0326
-16 -5 -9 1.7651 2.9342
-16 -5 -8 -1.3385 -4.1369
-16 -5 -7 -0.4453 -4.4380
-16 -5 -6 -1.5416 -6.6558
-16 -5 -5 2.8246 -1.6291
-16 -5 -4 9.5506 -2.9205
-16 -5 -3 2.2401 -0.3130
-16 -5 -2 -2.5361 1.7817
-16 -5 -1 0.5083 -8.0932
-16 -4 -19 1.9506 -1.7778
-16 -4 -18 -7.5206 3.1013
-16 -4 -17 -3.3428 0.1642
-16 -4 -16 -0.9359 0.3552
-16 -4 -15 1.0687 0.0764
-16 -4 -14 4.0438 1.9349
-16 -4 -13 -2.2045 2.1100
-16 -4 -12 3.0222 -2.9258
-16 -4 -11 -1.7448 0.7034
-16 -4 -10 2.8108 4.1187
-16 -4 -9 -2.6320 3.0856
-16 -4 -8 3.3717 0.5641
-16 -4 -7 -1.9994 -1.9827
-16 -4 -6 -3.6011 2.7363
-16 -4 -5 -1.4618 3.8940
-16 -4 -4 -10.0350 -4.6166
-16 -4 -3 -0.7065 -3.3929
-16 -4 -2 0.0479 0.6412
-16 -4 -1 0.8398 -5.8701
-16 -3 -20 -3.9922 1.4181
-16 -3 -19 -1.6657 0.9535
-16 -3 -18 4.0870 3.4431
-16 -3 -17 7.3895 5.2869
-16 -3 -16 1.1845 8.3395
-16 -3 -15 3.3055 6.7596
-16 -3 -14 1.3589 2.1395
-16 -3 -13 -2.3301 0.3521
-16 -3 -12 1.6951 -0.3006
-16 -3 -11 -0.4945 -1.4154
-16 -3 -10 -1.0452 2.8385
-16 -3 -9 -2.3258 1.9167
-16 -3 -8 2.6178 -7.1206
-16 -3 -7 1.6067 6.6274
-16 -3 -6 3.7585 -4.5329
-16 -3 -5 -4.3052 2.2004
-16 -3 -4 -4.4450 5.2355
-16 -3 -3 8.8659 -1.1137
-16 -3 -2 -1.7456 5.6067
-16 -3 -1 -5.4903 0.8437
-16 -2 -21 4.9056 0.5335
-16 -2 -20 -1.0145 8.2325
-16 -2 -19 4.0164 8.6547
-16 -2 -18 0.1807 -2.9504
-16 -2 -17 -2.5149 3.3406
-16 -2 -16 6.8108 -2.2188
-16 -2 -15 2.2079 -12.3191
-16 -2 -14 13.6458 -2.5440
-16 -2 -13 8.3915 -4.4050
-16 -2 -12 3.0334 7.9991
-16 -2 -11 -4.1310 -2.9614
-16 -2 -10 8.8402 -1.0816
-16 -2 -9 -4.8848 -1.0096
-16 -2 -8 6.7736 5.7707
-16 -2 -7 -0.0997 0.9578
-16 -2 -6 -5.7053 -3.5624
-16 -2 -5 4.3803 5.5819
-16 -2 -4 -7.1737 2.7594
-16 -2 -3 5.0276 1.7880
-16 -2 -2 1.3320 3.1938
-16 -2 -1 2.3886 0.8459
-16 -1 -21 -9.5184 4.7662
-16 -1 -20 2.7254 -5.1691
-16 -1 -19 -0.6990 -4.7899
-16 -1 -18 2.6733 5.9332
-16 -1 -17 10.5096 -7.3157
-16 -1 -16 -4.7002 8.9806
-16 -1 -15 5.2535 1.7858
-16 -1 -14 -11.7258 0.8312
-16 -1 -13 -0.6962 -9.7939
-16 -1 -12 -7.4297 -5.6574
-16 -1 -11 0.9589 -13.9050
-16 -1 -10 4.5714 1.6783
-16 -1 -9 1.5081 0.7952
-16 -1 -8 -3.6620 -2.8116
-16 -1 -7 -7.0757 3.8690
-16 -1 -6 4.6912 -12.9681
-16 -1 -5 6.2602 8.7117
-16 -1 -4 -1.6033 -2.4285
-16 -1 -3 1.9415 3.1383
-16 -1 -2 12.5961 2.8914
-16 -1 -1 7.2492 0.5280
-15 -10 -8 -0.3601 -3.3971
-15 -10 -7 5.9877 0.5972
-15 -10 -6 0.9251 -6.4855
-15 -10 -5 -4.4213 7.4751
-15 -10 -4 -2.2970 -4.5542
-15 -10 -3 -7.6590 -0.1088
-15 -10 -2 5.3363 4.1813
-15 -10 -1 -0.2970 -4.4639
-15 -9 -13 -4.7816 -0.6243
-15 -9 -12 -0.8036 1.2949
-15 -9 -11 -0.7804 4.9190
-15 -9 -10 4.8559 1.2005
-15 -9 -9 4.7776 6.6103
-15 -9 -8 10.9567 2.8323
-15 -9 -7 -11.8471 -3.8641
-15 -9 -6 0.3498 -0.0106
-15 -9 -5 -7.9097 -6.6531
-15 -9 -4 -4.1690 0.2722
-15 -9 -3 -3.7307 -0.5609
-15 -9 -2 7.5562 5.8174
-15 -9 -1 -11.2114 1.0060
-15 -8 -17 1.1172 4.6911
-15 -8 -16 -2.1473 -5.5816
-15 -8 -15 1.6123 -1.1230
-15 -8 -14 -1.0543 -1.3642
-15 -8 -13 2.3744 1.0346
-15 -8 -12 6.9760 -0.4333
-15 -8 -11 -0.2112 1.9404
-15 -8 -10 -0.2604 7.7769
-15 -8 -9 7.0086 -6.1905
-15 -8 -8 1.1475 1.4773
-15 -8 -7 3.4035 -4.8094
-15 -8 -6 -1.5963 -0.1737
-15 -8 -5 -0.5814 -2.0061
-15 -8 -4 -7.5747 17.7163
-15 -8 -3 -6.1409 -1.9279
-15 -8 -2 -2.0701 11.5724
-15 -8 -1 -0.1609 0.4380
-15 -7 -19 -7.9090 2.7628
-15 -7 -18 1.1644 0.4441
-15 -7 -17 -0.9481 3.6283
-15 -7 -16 6.1255 -1.4997
-15 -7 -15 -0.9656 -2.4404
-15 -7 -14 2.3700 3.8373
-15 -7 -13 -0.9550 -0.8323
-15 -7 -12 -0.2696 -4.1634
-15 -7 -11 3.5577 1.4624
-15 -7 -10 0.6482 -6.7160
-15 -7 -9 -1.7598 0.1880
-15 -7 -8 1.6742 -2.0919
-15 -7 -7 4.6894 0.0862
-15 -7 -6 -6.2954 -3.0871
-15 -7 -5 3.5936 -0.8649
-15 -7 -4 1.8797 6.4439
-15 -7 -3 -0.8616 4.9854
-15 -7 -2 11.3285 9.8126
-15 -7 -1 1.1727 7.5876
-15 -6 -21 -0.4694 0.3959
-15 -6 -20 4.3845 2.1850
-15 -6 -19 3.7887 -0.6122
-15 -6 -18 3.8342 3.3220
-15 -6 -17 5.6812 -2.5482
-15 -6 -16 -1.0139 1.7982
-15 -6 -15 0.8864 -4.0729
-15 -6 -14 1.5505 -4.6790
-15 -6 -13 -6.8701 -2.1802
-15 -6 -12 6.1503 0.5471
-15 -6 -11 -4.4744 -7.1377
-15 -6 -10 -2.2560 -2.7753
-15 -6 -9 -5.5693 -4.8126
-15 -6 -8 -0.6928 -2.4739
-15 -6 -7 2.0482 -0.1370
-15 -6 -6 -2.3045 7.7244
-15 -6 -5 0.4828 -4.7929
-15 -6 -4 4.3632 5.3921
-15 -6 -3 0.5192 -7.1075
-15 -6 -2 0.2233 2.0360
-15 -6 -1 12.3116 -3.2748
-15 -5 -23 -1.0318 -4.6483
-15 -5 -22 1.0564 -2.2440
-15 -5 -21 -1.4285 1.0476
-15 -5 -20 -0.4597 -0.0194
-15 -5 -19 5.0324 0.1172
-15 -5 -18 -1.9363 -4.7463
-15 -5 -17 -2.1278 -3.1343
-15 -5 -16 -0.3264 -1.7054
-15 -5 -15 -4.1102 -7.6937
-15 -5 -14 -5.5537 5.5986
-15 -5 -13 -1.2683 -4.0597
-15 -5 -12 -4.7338 5.0514
-15 -5 -11 -0.3883 -1.4546
-15 -5 -10 -2.8154 0.9781
-15 -5 -9 -2.5155 2.7066
-15 -5 -8 -10.1192 4.3175
-15 -5 -7 -5.3107 2.6840
-15 -5 -6 -4.2868 5.9727
-15 -5 -5 5.9929 -6.2699
-15 -5 -4 3.5833 -5.9246
-15 -5 -3 7.4780 2.4038
-15 -5 -2 3.8654 -4.2656
-15 -5 -1 -4.0129 -5.9782
-15 -4 -24 0.2116 1.6058
-15 -4 -23 -3.2217 -2.4340
-15 -4 -22 -2.8258 -3.9414
-15 -4 -21 -2.7376 2.0496
-15 -4 -20 -2.8701 -3.4607
-15 -4 -19 -1.1548 -1.2634
-15 -4 -18 0.3572 1.0148
-15 -4 -17 -0.6849 -2.1831
-15 -4 -16 -7.0374 0.0214
-15 -4 -15 4.2796 5.2220
-15 -4 -14 -6.4064 5.9565
-15 -4 -13 1.1053 3.7318
-15 -4 -12 -3.1148 6.2452
-15 -4 -11 3.8903 1.0467
-15 -4 -10 0.7460 4.7051
-15 -4 -9 2.4442 -3.4790
-15 -4 -8 -6.8837 2.7594
-15 -4 -7 5.0866 0.6871
-15 -4 -6 4.9671 6.6868
-15 -4 -5 -1.1872 5.7875
-15 -4 -4 -0.8427 3.8298
-15 -4 -3 0.7914 -7.9810
-15 -4 -2 -8.0102 -8.5074
-15 -4 -1 -8.7593 -4.9608
-15 -3 -25 4.2877 -3.1873
-15 -3 -24 4.3503 -1.9574
-15 -3 -23 -5.4277 -0.9180
-15 -3 -22 2.3769 -3.7501
-15 -3 -21 -3.0593 0.7923
-15 -3 -20 -2.5735 7.7067
-15 -3 -19 -5.0449 2.8118
-15 -3 -18 -2.7127 1.5097
-15 -3 -17 -3.3357 6.9916
-15 -3 -16 -3.7771 -2.6419
-15 -3 -15 4.6506 5.6517
-15 -3 -14 -5.5481 -2.1551
-15 -3 -13 11.1775 4.8987
-15 -3 -12 0.0485 -4.1110
-15 -3 -11 10.8586 6.8019
-15 -3 -10 -0.7025 -2.4960
-15 -3 -9 5.3092 1.0941
-15 -3 -8 -1.7689 -4.2062
-15 -3 -7 2.0244 -1.3111
-15 -3 -6 -3.4271 4.5259
-15 -3 -5 -1.3700 6.5720
-15 -3 -4 6.5276 -3.5079
-15 -3 -3 -3.9112 -1.8770
-15 -3 -2 5.4769 11.8587
-15 -3 -1 -10.4474 0.6349
-15 -2 -26 -1.7144 1.7246
-15 -2 -25 -1.5658 -9.7357
-15 -2 -24 0.1674 -3.7693
-15 -2 -23 -2.9260 -8.1793
-15 -2 -22 -7.6597 2.7240
-15 -2 -21 -1.4774 -2.6128
-15 -2 -20 -2.8994 1.2284
-15 -2 -19 -1.9327 2.2866
-15 -2 -18 9.7703 1.6562
-15 -2 -17 6.9102 14.0952
-15 -2 -16 6.9342 -4.8920
-15 -2 -15 -5.7729 11.6783
-15 -2 -14 11.3599 -4.8888
-15 -2 -13 -3.2692 6.4249
-15 -2 -12 4.6620 -0.6703
-15 -2 -11 -4.1220 -1.3710
-15 -2 -10 2.0515 -7.3013
-15 -2 -9 6.2792 -3.2033
-15 -2 -8 0.1942 -1.8949
-15 -2 -7 -7.2928 -8.2177
-15 -2 -6 -0.4308 7.0819
-15 -2 -5 0.3097 -6.0093
-15 -2 -4 -0.6434 6.4784
-15 -2 -3 9.1807 -0.4991
-15 -2 -2 4.3950 -1.1428
-15 -2 -1 7.5118 5.0788
-15 -1 -26 -2.2017 3.5573
-15 -1 -25 4.5841 -0.3943
-15 -1 -24 -5.4700 -2.4536
-15 -1 -23 -1.7321 3.0975
-15 -1 -22 -7.0069 2.0114
-15 -1 -21 -7.6584 1.4925
-15 -1 -20 2.1392 5.0659
-15 -1 -19 -8.2006 6.0529
-15 -1 -18 8.7112 2.1739
-15 -1 -17 -7.1549 -10.4521
-15 -1 -16 12.6313 1.8113
-15 -1 -15 4.4997 -16.4440
-15 -1 -14 1.0581 1.1305
-15 -1 -13 0.8828 -2.2955
-15 -1 -12 1.4294 -2.9044
-15 -1 -11 6.0277 -0.5453
-15 -1 -10 0.5176 -4.3520
-15 -1 -9 8.7002 -0.6751
-15 -1 -8 -11.7295 6.0529
-15 -1 -7 -1.2446 -9.5636
-15 -1 -6 -4.8985 -1.5158
-15 -1 -5 -6.0151 11.6627
-15 -1 -4 2.8712 4.7799
-15 -1 -3 -2.8616 2.8382
-15 -1 -2 3.8888 -5.1170
-15 -1 -1 -0.1518 -4.6332
-14 -11 -11 -2.9198 -4.4289
-14 -11 -10 0.3594 9.4702
-14 -11 -9 -2.8767 -0.9346
-14 -11 -8 -1.0887 5.5773
-14 -11 -7 1.2528 -8.3368
-14 -11 -6 2.6606 0.2463
-14 -11 -5 7.6726 -3.9451
-14 -11 -4 2.5306 0.1245
-14 -11 -3 1.3775 2.4255
-14 -11 -2 -14.6296 6.2536
-14 -11 -1 0.6043 -5.1701
-14 -10 -16 4.8999 3.1751
-14 -10 -15 -5.5580 -4.8229
-14 -10 -14 -2.2669 -2.6450
-14 -10 -13 0.2485 -4.1829
-14 -10 -12 -6.4925 4.5255
-14 -10 -11 -3.2089 -2.2020
-14 -10 -10 -9.3760 2.4475
-14 -10 -9 3.2574 2.5075
-14 -10 -8 -1.1515 2.1291
-14 -10 -7 5.4786 1.5642
-14 -10 -6 -0.8273 1.0421
-14 -10 -5 0.5317 5.7051
-14 -10 -4 -8.7841 -7.8018
-14 -10 -3 3.5136 2.3380
-14 -10 -2 -4.2822 -6.6649
-14 -10 -1 1.3327 3.3375
-14 -9 -19 4.7319 -7.7743
-14 -9 -18 -1.6389 1.8755
-14 -9 -17 0.9583 -7.2528
-14 -9 -16 4.3490 0.8753
-14 -9 -15 8.1965 -0.5097
-14 -9 -14 -4.3187 -0.0573
-14 -9 -13 1.0089 2.6748
-14 -9 -12 -6.8315 2.7053
-14 -9 -11 -0.4423 4.9162
-14 -9 -10 0.0979 1.7098
-14 -9 -9 3.4615 3.7934
-14 -9 -8 3.3468 4.4596
-14 -9 -7 0.7149 7.7713
-14 -9 -6 5.2873 -4.9869
-14 -9 -5 -2.9755 0.9269
-14 -9 -4 1.9059 -1.5958
-14 -9 -3 2.2926 -4.6585
-14 -9 -2 -2.0699 4.6329
-14 -9 -1 -1.7049 -3.6239
-14 -8 -22 -6.2992 -4.8637
-14 -8 -21 1.3386 3.9672
-14 -8 -20 -1.5110 -1.5920
-14 -8 -19 4.6309 -2.2160
-14 -8 -18 -1.2461 -0.5033
-14 -8 -17 -0.7099 2.6277
-14 -8 -16 -2.5826 -2.1489
-14 -8 -15 -0.0382 5.7884
-14 -8 -14 -1.3689 -9.3353
-14 -8 -13 -3.1297 -2.3729
-14 -8 -12 -0.0519 -1.5340
-14 -8 -11 5.7855 4.4524
-14 -8 -10 6.2568 0.7743
-14 -8 -9 -0.1295 0.3767
-14 -8 -8 5.0318 -0.7477
-14 -8 -7 3.1322 -2.7583
-14 -8 -6 -2.8820 -8.2066
-14 -8 -5 11.4905 -0.3532
-14 -8 -4 -3.6552 1.1740
-14 -8 -3 3.7925 -2.5737
-14 -8 -2 -9.5126 4.0093
-14 -8 -1 -0.9833 -2.1650
-14 -7 -24 5.7654 -1.3645
-14 -7 -23 -1.1512 -0.6662
-14 -7 -22 5.5655 0.3836
-14 -7 -21 2.0050 -2.4907
-14 -7 -20 -3.4142 4.6542
-14 -7 -19 -0.1431 5.3032
-14 -7 -18 1.5832 -0.1451
-14 -7 -17 -8.2118 -1.2092
-14 -7 -16 5.6725 2.1294
-14 -7 -15 -0.9633 -3.1359
-14 -7 -14 5.3609 1.6398
-14 -7 -13 -2.0895 -2.8780
-14 -7 -12 -0.5159 4.4787
-14 -7 -11 -5.0712 -0.4393
-14 -7 -10 0.7057 2.2364
-14 -7 -9 -4.7323 -2.0729
-14 -7 -8 5.5951 -15.7283
-14 -7 -7 -4.9383 2.8653
-14 -7 -6 -6.6861 -4.8429
-14 -7 -5 0.2247 3.8388
-14 -7 -4 -9.4031 -5.0183
-14 -7 -3 0.2866 4.7335
-14 -7 -2 -0.3816 -8.5756
-14 -7 -1 2.8979 6.7916
-14 -6 -26 2.3971 2.2869
-14 -6 -25 4.6436 -5.4545
-14 -6 -24 -3.6845 3.2886
-14 -6 -23 5.8028 3.8591
-14 -6 -22 -2.9106 -2.8995
-14 -6 -21 -4.8045 2.4915
-14 -6 -20 -2.9214 0.0439
-14 -6 -19 1.1335 -5.1740
-14 -6 -18 0.4705 8.5100
-14 -6 -17 11.4389 -2.6366
-14 -6 -16 -3.2295 6.8788
-14 -6 -15 7.1278 1.6154
-14 -6 -14 -4.2000 4.2014
-14 -6 -13 4.7864 -4.5088
-14 -6 -12 -4.4821 1.4549
-14 -6 -11 -3.9310 -5.8783
-14 -6 -10 6.4373 9.2159
-14 -6 -9 -1.0762 -2.2661
-14 -6 -8 0.0449 -0.0347
-14 -6 -7 -2.5193 6.6753
-14 -6 -6 -7.0068 0.6490
-14 -6 -5 -9.8904 3.1886
-14 -6 -4 3.2827 7.3684
-14 -6 -3 3.1340 9.7655
-14 -6 -2 3.0264 4.5105
-14 -6 -1 1.8525 -3.6238
-14 -5 -27 3.2500 9.6584
-14 -5 -26 -0.9192 0.3469
-14 -5 -25 -4.2692 3.2391
-14 -5 -24 1.0960 -3.4934
-14 -5 -23 -5.5184 -5.5824
-14 -5 -22 1.0233 -0.7889
-14 -5 -21 7.5650 -1.0736
-14 -5 -20 -3.8472 -2.5669
-14 -5 -19 8.4863 7.6205
-14 -5 -18 -1.2054 -4.0609
-14 -5 -17 2.3853 2.3405
-14 -5 -16 -0.0416 -9.9636
-14 -5 -15 5.9417 0.5335
-14 -5 -14 0.9331 -7.2442
-14 -5 -13 11.4604 -2.7405
-14 -5 -12 -4.0194 -1.7199
-14 -5 -11 3.9707 -1.1818
-14 -5 -10 -1.8163 -2.3226
-14 -5 -9 -0.3844 8.0943
-14 -5 -8 1.3824 -1.7211
-14 -5 -7 4.5027 -0.2512
-14 -5 -6 -2.8592 -0.5893
-14 -5 -5 0.1546 5.8789
-14 -5 -4 2.4748 3.8967
-14 -5 -3 9.1253 6.3425
-14 -5 -2 1.4226 -1.1539
-14 -5 -1 9.8417 -6.6816
-14 -4 -28 4.5611 1.5841
-14 -4 -27 1.5194 -3.0750
-14 -4 -26 3.1290 1.4211
-14 -4 -25 9.7716 -2.3436
-14 -4 -24 2.0703 -0.6883
-14 -4 -23 1.2789 5.8365
-14 -4 -22 -3.2439 -0.7089
-14 -4 -21 -4.1496 8.2402
-14 -4 -20 -1.3977 -1.1465
-14 -4 -19 -3.4431 -3.9334
-14 -4 -18 -1.4050 -3.0907
-14 -4 -17 -6.7411 -0.9778
-14 -4 -16 0.4174 -7.9333
-14 -4 -15 -7.4341 3.8180
-14 -4 -14 -2.5515 -3.8694
-14 -4 -13 -6.4186 0.4036
-14 -4 -12 1.0331 -6.5835
-14 -4 -11 -7.7486 -5.9191
-14 -4 -10 0.4009 -3.0524
-14 -4 -9 -3.7079 6.3923
-14 -4 -8 1.8132 -2.9782
-14 -4 -7 4.4778 0.1129
-14 -4 -6 5.3645 -2.9141
-14 -4 -5 2.9438 3.7765
-14 -4 -4 -1.6685 -2.9045
-14 -4 -3 6.5247 2.1185
-14 -4 -2 2.7343 7.5681
-14 -4 -1 4.5410 -6.6237
-14 -3 -29 2.3117 -0.1531
-14 -3 -28 1.6465 -2.7103
-14 -3 -27 -1.1779 0.4891
-14 -3 -26 4.8059 -2.5383
-14 -3 -25 -0.9438 2.5560
-14 -3 -24 -1.2043 -5.9105
-14 -3 -23 -4.8303 -2.4792
-14 -3 -22 -1.9098 -7.0299
-14 -3 -21 6.8198 -2.0407
-14 -3 -20 3.1500 -0.6560
-14 -3 -19 0.9406 0.8241
-14 -3 -18 6.2480 6.0631
-14 -3 -17 -4.2924 0.9047
-14 -3 -16 -3.0239 12.5806
-14 -3 -15 -1.3054 3.1008
-14 -3 -14 -4.4904 10.0891
-14 -3 -13 1.5311 0.1013
-14 -3 -12 1.8049 4.8194
-14 -3 -11 -3.5482 6.2761
-14 -3 -10 -0.8611 -1.8427
-14 -3 -9 -8.4207 5.9017
-14 -3 -8 0.7974 -2.5957
-14 -3 -7 4.9663 3.2981
-14 -3 -6 3.9490 -7.5438
-14 -3 -5 -0.3319 -3.6068
-14 -3 -4 -5.8884 -9.7197
-14 -3 -3 4.5009 -1.4965
-14 -3 -2 5.0840 -2.3280
-14 -3 -1 -1.6941 -5.9461
-14 -2 -29 5.5384 -4.1217
-14 -2 -28 6.9556 7.0354
-14 -2 -27 -2.1216 2.1203
-14 -2 -26 2.3264 -3.1293
-14 -2 -25 -5.2577 -2.2206
-14 -2 -24 4.3318 -8.6689
-14 -2 -23 5.6237 2.0450
-14 -2 -22 0.6349 1.9480
-14 -2 -21 -6.5311 3.8303
-14 -2 -20 -9.0973 7.5846
-14 -2 -19 -1.9886 -2.9021
-14 -2 -18 -10.5299 -8.1388
-14 -2 -17 6.6388 3.5270
-14 -2 -16 -2.6433 -4.7585
-14 -2 -15 12.3271 2.8200
-14 -2 -14 11.7900 -1.4847
-14 -2 -13 -0.4760 2.2705
-14 -2 -12 13.4056 5.1719
-14 -2 -11 -7.7488 -3.5738
-14 -2 -10 9.0298 -5.0498
-14 -2 -9 2.5510 4.5004
-14 -2 -8 3.7163 1.7285
-14 -2 -7 -0.9089 4.6897
-14 -2 -6 1.8539 -2.9447
-14 -2 -5 -5.5239 -5.3479
-14 -2 -4 -9.1343 -1.5973
-14 -2 -3 -4.3492 -2.8716
-14 -2 -2 -13.3242 -1.4173
-14 -2 -1 7.3369 3.9898
-14 -1 -30 -11.9056 -3.1955
-14 -1 -29 -6.8497 -11.6302
-14 -1 -28 0.2114 -3.8311
-14 -1 -27 -1.4479 -11.7102
-14 -1 -26 8.1481 -5.6798
-14 -1 -25 1.6770 1.7635
-14 -1 -24 0.2636 1.0676
-14 -1 -23 -4.9757 -3.3250
-14 -1 -22 -9.3950 -4.5099
-14 -1 -21 -2.9954 -3.3604
-14 -1 -20 10.3298 -8.6090
-14 -1 -19 3.0703 13.8141
-14 -1 -18 10.0145 3.0187
-14 -1 -17 -1.1295 10.4288
-14 -1 -16 1.4745 7.9876
-14 -1 -15 -2.4213 -7.8170
-14 -1 -14 0.5464 10.2696
-14 -1 -13 0.2223 -19.5727
-14 -1 -12 2.0350 -5.1590
-14 -1 -11 -6.0173 -2.1052
-14 -1 -10 6.8484 -3.5688
-14 -1 -9 -0.9625 2.0047
-14 -1 -8 -5.8405 -2.0389
-14 -1 -7 -0.3121 -5.6808
-14 -1 -6 4.1394 -6.6362
-14 -1 -5 1.1505 3.3518
-14 -1 -4 0.0512 -6.4185
-14 -1 -3 -10.4175 15.4236
-14 -1 -2 1.6873 4.1406
-14 -1 -1 -0.3483 14.3301
-13 -13 -5 3.4645 9.5064
-13 -13 -4 4.0541 4.5974
-13 -13 -3 -4.2363 -2.4866
-13 -13 -2 -2.9467 -5.1423
-13 -13 -1 5.1007 -0.9751
-13 -12 -13 0.0202 -0.0987
-13 -12 -12 -1.0957 -7.8998
-13 -12 -11 3.2735 -2.8481
-13 -12 -10 -1.3083 -8.2397
-13 -12 -9 2.6138 8.6601
-13 -12 -8 7.4447 2.0593
-13 -12 -7 0.9683 7.5949
-13 -12 -6 1.5266 4.0380
-13 -12 -5 -0.9020 -4.3252
-13 -12 -4 5.2227 -4.5394
-13 -12 -3 -0.3013 5.3413
-13 -12 -2 5.8625 -7.3436
-13 -12 -1 -2.9015 6.1448
-13 -11 -18 0.3727 -0.7957
-13 -11 -17 1.7287 -3.3805
-13 -11 -16 -3.7239 4.2944
-13 -11 -15 -1.8360 0.9271
-13 -11 -14 -1.6190 -3.9494
-13 -11 -13 0.5665 -3.2189
-13 -11 -12 3.8581 -9.6383
-13 -11 -11 -4.9651 -3.1866
-13 -11 -10 -0.5255 0.0458
-13 -11 -9 -5.4819 -2.1310
-13 -11 -8 -4.5705 1.6420
-13 -11 -7 3.5886 -3.3747
-13 -11 -6 7.7331 -1.9007
-13 -11 -5 -2.1113 -13.5578
-13 -11 -4 9.9175 4.3165
-13 -11 -3 -4.4848 -1.2217
-13 -11 -2 -2.8532 -0.1109
-13 -11 -1 4.6843 -2.2476
-13 -10 -21 -5.3865 2.8763
-13 -10 -20 -0.8771 0.6078
-13 -10 -19 5.9226 3.4466
-13 -10 -18 4.7787 -2.5265
-13 -10 -17 4.7347 0.8597
-13 -10 -16 2.6848 -2.3030
-13 -10 -15 -4.4895 3.6756
-13 -10 -14 7.5225 1.5783
-13 -10 -13 -1.3737 -0.5610
-13 -10 -12 -5.9056 1.2744
-13 -10 -11 -6.4243 1.3297
-13 -10 -10 -8.5334 -3.6757
-13 -10 -9 -5.4034 -0.2518
-13 -10 -8 -6.5793 4.6118
-13 -10 -7 5.8927 -2.4262
-13 -10 -6 -4.4316 5.3187
-13 -10 -5 0.8302 -3.6661
-13 -10 -4 -7.0268 -7.0511
-13 -10 -3 -4.3452 2.6236
-13 -10 -2 -3.0547 -6.5230
-13 -10 -1 4.9623 1.7070
-13 -9 -24 -2.1037 7.3130
-13 -9 -23 -5.8178 -1.4591
-13 -9 -22 0.1539 0.9904
-13 -9 -21 -1.1992 -0.3819
-13 -9 -20 -0.1179 -0.2859
-13 -9 -19 -2.2170 3.8386
-13 -9 -18 3.2808 5.6442
-13 -9 -17 0.1283 -7.4284
-13 -9 -16 0.2088 2.0611
-13 -9 -15 -0.6881 -5.0821
-13 -9 -14 0.9598 0.4351
-13 -9 -13 0.6577 -0.7157
-13 -9 -12 3.3128 -1.7757
-13 -9 -11 -0.2573 -1.8295
-13 -9 -10 -5.2361 3.4062
-13 -9 -9 3.8512 6.9933
-13 -9 -8 -0.1764 3.9600
-13 -9 -7 -1.9225 8.4103
-13 -9 -6 3.2438 2.2968
-13 -9 -5 -4.5114 3.6257
-13 -9 -4 4.8424 -3.5248
-13 -9 -3 -7.4502 6.9345
-13 -9 -2 -1.3392 -0.6078
-13 -9 -1 -6.1737 6.3546
-13 -8 -26 -2.5432 1.2675
-13 -8 -25 3.6845 -2.1674
-13 -8 -24 -1.2618 2.6398
-13 -8 -23 1.2263 3.7864
-13 -8 -22 2.6488 3.4207
-13 -8 -21 3.8757 -0.4719
-13 -8 -20 -1.7250 -1.2037
-13 -8 -19 3.8805 1.8161
-13 -8 -18 -3.7624 0.9530
-13 -8 -17 6.8510 1.6493
-13 -8 -16 0.1603 -1.7173
-13 -8 -15 0.3533 -0.9338
-13 -8 -14 -6.8103 3.4973
-13 -8 -13 4.0336 3.8045
-13 -8 -12 -3.7957 -6.9694
-13 -8 -11 0.3534 0.6586
-13 -8 -10 -3.5648 0.5764
-13 -8 -9 -1.5363 0.0098
-13 -8 -8 0.5646 3.3514
-13 -8 -7 -2.5845 -1.8818
-13 -8 -6 4.6392 1.2570
-13 -8 -5 2.4156 -5.8615
-13 -8 -4 6.8890 -1.2692
-13 -8 -3 -3.9510 -0.0918
-13 -8 -2 7.7831 5.0830
-13 -8 -1 2.0347 -1.5399
-13 -7 -28 -1.6898 -5.9935
-13 -7 -27 -2.1331 -0.0816
-13 -7 -26 -5.9945 -0.6132
-13 -7 -25 0.5317 1.1595
-13 -7 -24 -1.7063 -1.1445
-13 -7 -23 -0.0094 0.5668
-13 -7 -22 1.6372 -2.9552
-13 -7 -21 -0.2997 2.5363
-13 -7 -20 4.4118 -3.8391
-13 -7 -19 -1.7974 0.8208
-13 -7 -18 -2.6327 -0.5657
-13 -7 -17 3.6226 6.7046
-13 -7 -16 0.5362 -7.2517
-13 -7 -15 -4.2988 7.7485
-13 -7 -14 2.1772 -4.6669
-13 -7 -13 -1.6598 6.7162
-13 -7 -12 5.5128 1.9403
-13 -7 -11 5.2568 3.7502
-13 -7 -10 -2.6012 1.5853
-13 -7 -9 -4.6583 2.4870
-13 -7 -8 -1.1730 0.9012
-13 -7 -7 2.2842 4.6865
-13 -7 -6 4.6258 4.7588
-13 -7 -5 -6.5749 -1.5153
-13 -7 -4 -1.3598 5.1746
-13 -7 -3 -4.6603 -1.7299
-13 -7 -2 -9.0405 -5.7600
-13 -7 -1 -1.1819 3.3736
-13 -6 -29 -2.3713 4.7225
-13 -6 -28 -4.4490 -5.0586
-13 -6 -27 -4.9359 2.9524
-13 -6 -26 -4.2206 -1.7025
-13 -6 -25 -3.3078 5.7779
-13 -6 -24 6.4262 2.0161
-13 -6 -23 1.5297 -5.0840
-13 -6 -22 -0.3494 -0.5941
-13 -6 -21 -2.4569 3.0864
-13 -6 -20 -1.0974 -5.4020
-13 -6 -19 -5.1113 4.5915
-13 -6 -18 9.6233 -3.9358
-13 -6 -17 -7.0847 -1.3004
-13 -6 -16 11.1242 1.1212
-13 -6 -15 2.2933 -5.0689
-13 -6 -14 2.2621 1.3994
-13 -6 -13 2.4444 8.6352
-13 -6 -12 6.2234 1.7494
-13 -6 -11 3.2396 -1.0160
-13 -6 -10 8.8558 -5.1973
-13 -6 -9 -0.8319 -5.7770
-13 -6 -8 4.0098 6.2849
-13 -6 -7 4.8051 -2.1209
-13 -6 -6 -0.9072 11.7437
-13 -6 -5 -1.6535 -0.2766
-13 -6 -4 11.5639 -4.0028
-13 -6 -3 -4.7584 2.7910
-13 -6 -2 -0.5095 11.1739
-13 -6 -1 3.9859 4.3133
-13 -5 -30 4.6694 -5.3531
-13 -5 -29 -0.6767 0.2691
-13 -5 -28 8.1003 0.3882
-13 -5 -27 0.2290 -2.0378
-13 -5 -26 -0.9210 9.2884
-13 -5 -25 1.9368 7.4963
-13 -5 -24 5.0985 2.3868
-13 -5 -23 -3.7963 -0.5567
-13 -5 -22 5.9580 -5.0250
-13 -5 -21 -12.4625 -5.3773
-13 -5 -20 0.4003 9.2399
-13 -5 -19 -2.5760 -3.6650
-13 -5 -18 -1.9671 9.2058
-13 -5 -17 1.6847 1.3324
-13 -5 -16 -0.5076 -5.6175
-13 -5 -15 -7.2035 -3.3801
-13 -5 -14 1.1709 -5.0611
-13 -5 -13 -4.8112 -6.5804
-13 -5 -12 4.3212 0.4251
-13 -5 -11 9.3422 -8.3373
-13 -5 -10 3.8097 -6.2686
-13 -5 -9 7.3052 -5.9630
-13 -5 -8 -8.5004 -3.6136
-13 -5 -7 -3.5540 -6.9062
-13 -5 -6 7.6225 8.3275
-13 -5 -5 5.6980 -6.3814
-13 -5 -4 5.1256 0.4284
-13 -5 -3 9.4176 6.6366
-13 -5 -2 -3.8563 -2.4009
-13 -5 -1 5.7073 -0.6703
-13 -4 -31 -2.1281 3.3608
-13 -4 -30 -3.6337 1.7796
-13 -4 -29 1.7182 2.1275
-13 -4 -28 -5.7613 1.2582
-13 -4 -27 -3.4526 -2.9535
-13 -4 -26 3.0029 -0.6968
-13 -4 -25 0.1330 -8.0333
-13 -4 -24 6.3754 6.0898
-13 -4 -23 7.0798 -4.5677
-13 -4 -22 -2.6818 -1.0624
-13 -4 -21 2.0712 -3.2847
-13 -4 -20 -6.1368 0.3292
-13 -4 -19 -1.5873 6.6360
-13 -4 -18 9.8252 4.5007
-13 -4 -17 1.4254 -0.0732
-13 -4 -16 4.2894 5.0853
-13 -4 -15 4.0258 -1.9102
-13 -4 -14 -4.3582 1.9946
-13 -4 -13 -6.1268 2.2942
-13 -4 -12 -3.6367 1.4308
-13 -4 -11 -3.1957 0.4742
-13 -4 -10 -2.6218 -3.1671
-13 -4 -9 -1.9985 -11.1864
-13 -4 -8 -14.0953 -2.4036
-13 -4 -7 -2.6955 -10.0549
-13 -4 -6 -0.8054 1.0472
-13 -4 -5 -2.9052 6.5618
-13 -4 -4 2.8606 -9.7239
-13 -4 -3 6.9305 -8.2800
-13 -4 -2 1.3803 -8.0757
-13 -4 -1 6.8482 -3.1296
-13 -3 -32 5.5515 -1.4905
-13 -3 -31 1.0490 3.5517
-13 -3 -30 2.4816 -1.9373
-13 -3 -29 7.8451 -3.0684
-13 -3 -28 0.3604 4.2414
-13 -3 -27 6.2999 -3.7587
-13 -3 -26 2.2608 2.1830
-13 -3 -25 -3.1272 2.9037
-13 -3 -24 0.0329 -0.0363
-13 -3 -23 -1.0607 0.3373
-13 -3 -22 1.8215 -4.1272
-13 -3 -21 -2.5558 -4.8146
-13 -3 -20 -1.1007 7.9212
-13 -3 -19 -6.6294 -3.0735
-13 -3 -18 -3.4446 -0.8479
-13 -3 -17 0.6344 2.0057
-13 -3 -16 3.9002 -5.0360
-13 -3 -15 1.5044 -6.6222
-13 -3 -14 -1.8711 0.7013
-13 -3 -13 5.3693 -6.4175
-13 -3 -12 -4.1528 3.2585
-13 -3 -11 3.2863 5.1113
-13 -3 -10 -8.6369 2.8365
-13 -3 -9 4.6743 2.5806
-13 -3 -8 -2.5432 0.6110
-13 -3 -7 -9.6004 2.3408
-13 -3 -6 -1.4953 7.9129
-13 -3 -5 -6.4413 7.2061
-13 -3 -4 0.1470 -1.2431
-13 -3 -3 -0.7730 -0.1165
-13 -3 -2 -2.7689 -5.8994
-13 -3 -1 -11.3350 1.6674
-13 -2 -32 -1.3060 -1.8337
-13 -2 -31 5.5048 8.4819
-13 -2 -30 -1.5013 -7.0249
-13 -2 -29 6.2429 -5.9749
-13 -2 -28 0.1129 -0.1707
-13 -2 -27 -0.2585 -8.8026
-13 -2 -26 -3.7271 2.6247
-13 -2 -25 -3.4294 -3.6782
-13 -2 -24 -0.7123 -3.7381
-13 -2 -23 6.5514 -3.6886
-13 -2 -22 -2.6311 4.3057
-13 -2 -21 4.4064 -6.3697
-13 -2 -20 1.0100 -1.1044
-13 -2 -19 -6.1879 1.1660
-13 -2 -18 4.6558 8.8478
-13 -2 -17 2.0471 9.2779
-13 -2 -16 -7.4718 1.9060
-13 -2 -15 5.7442 9.1708
-13 -2 -14 -4.6005 -4.2461
-13 -2 -13 2.2199 6.5050
-13 -2 -12 -5.3373 -5.4488
-13 -2 -11 -6.3560 3.4277
-13 -2 -10 0.9519 2.3370
-13 -2 -9 4.5234 -0.0755
-13 -2 -8 1.2518 11.1359
-13 -2 -7 3.0322 -3.7731
-13 -2 -6 -1.3378 -0.2057
-13 -2 -5 2.5073 1.2980
-13 -2 -4 7.1948 5.8464
-13 -2 -3 -2.4732 -3.6112
-13 -2 -2 7.3141 3.9657
-13 -2 -1 -2.3142 -1.6903
-13 -1 -33 -5.4944 4.5463
-13 -1 -32 12.0785 0.3074
-13 -1 -31 7.4029 5.1215
-13 -1 -30 1.1792 -1.5045
-13 -1 -29 8.4372 -2.5641
-13 -1 -28 -7.4119 -6.6866
-13 -1 -27 -5.7009 -5.9284
-13 -1 -26 -0.4232 -5.4164
-13 -1 -25 4.6469 4.1545
-13 -1 -24 -3.5400 2.4410
-13 -1 -23 3.7845 6.6057
-13 -1 -22 -3.3794 3.6115
-13 -1 -21 -7.8893 -9.5375
-13 -1 -20 -1.9126 1.1038
-13 -1 -19 -5.9232 -0.9114
-13 -1 -18 2.1618 -3.1328
-13 -1 -17 -1.4732 8.0231
-13 -1 -16 16.1520 -3.8829
-13 -1 -15 5.0011 5.3058
-13 -1 -14 10.6998 -2.1417
-13 -1 -13 0.6652 -3.0025
-13 -1 -12 2.8381 0.5634
-13 -1 -11 10.6497 -0.8091
-13 -1 -10 -7.4415 -0.5464
-13 -1 -9 4.3351 12.7807
-13 -1 -8 5.4192 0.0708
-13 -1 -7 4.5277 -1.0802
-13 -1 -6 3.0924 -1.9851
-13 -1 -5 1.4696 -2.9430
-13 -1 -4 -4.2517 4.0323
-13 -1 -3 -1.5340 -3.7842
-13 -1 -2 5.0469 -4.2878
-13 -1 -1 -8.9014 1.4666
-12 -14 -5 3.5587 -3.0976
-12 -14 -4 -2.2942 2.2298
-12 -14 -3 4.9527 -4.6823
-12 -14 -2 -6.5017 0.4100
-12 -14 -1 4.9622 -2.3095
-12 -13 -14 -1.3098 -3.2211
-12 -13 -13 3.3330 -4.1026
-12 -13 -12 7.6327 0.4592
-12 -13 -11 1.1527 2.1647
-12 -13 -10 -0.4372 -3.2233
-12 -13 -9 -2.2226 0.4650
-12 -13 -8 -7.4018 -2.7105
-12 -13 -7 -5.1809 5.7706
-12 -13 -6 -4.0836 -0.6312
-12 -13 -5 6.6497 6.4074
-12 -13 -4 -4.9253 0.7350
-12 -13 -3 -4.9862 3.0871
-12 -13 -2 2.6518 -2.1091
-12 -13 -1 -2.6099 0.7245
-12 -12 -19 1.1217 1.7524
-12 -12 -18 0.9820 5.3069
-12 -12 -17 6.0644 0.6380
-12 -12 -16 0.1793 -6.3326
-12 -12 -15 3.1709 -3.0416
-12 -12 -14 -2.8217 3.4225
-12 -12 -13 -4.8658 2.2943
-12 -12 -12 -2.2413 -1.9516
-12 -12 -11 -2.5803 -4.9279
-12 -12 -10 4.4404 -4.6343
-12 -12 -9 -3.5697 -5.3094
-12 -12 -8 1.3260 -2.8451
-12 -12 -7 -2.0338 12.3467
-12 -12 -6 -1.8053 4.7486
-12 -12 -5 4.0323 2.9282
-12 -12 -4 6.2882 5.3260
-12 -12 -3 2.9505 -5.0437
-12 -12 -2 3.7969 -4.0317
-12 -12 -1 2.6970 9.0436
-12 -11 -22 -3.4860 1.4086
-12 -11 -21 6.5803 0.6972
-12 -11 -20 -1.9117 -0.5972
-12 -11 -19 -1.5180 6.9295
-12 -11 -18 0.7179 1.0293
-12 -11 -17 6.5146 5.8867
-12 -11 -16 5.3624 2.6249
-12 -11 -15 -1.1294 -0.9190
-12 -11 -14 -3.6659 -2.4111
-12 -11 -13 -0.5725 -2.3853
-12 -11 -12 -1.5124 4.2178
-12 -11 -11 3.3015 0.7581
-12 -11 -10 -1.3175 0.5658
-12 -11 -9 -8.3593 1.5247
-12 -11 -8 -1.2803 -4.8781
-12 -11 -7 -2.3493 1.2136
-12 -11 -6 -6.1014 -0.2217
-12 -11 -5 9.2910 -1.7310
-12 -11 -4 13.9982 1.8439
-12 -11 -3 -4.3532 -4.0190
-12 -11 -2 6.2080 -4.0576
-12 -11 -1 -4.9772 -7.5354
-12 -10 -24 -7.9576 -2.5777
-12 -10 -23 -2.8178 5.1246
-12 -10 -22 3.0246 1.7726
-12 -10 -21 -1.5873 6.2456
-12 -10 -20 2.3428 -1.0929
-12 -10 -19 -4.4316 -1.6016
-12 -10 -18 -1.6184 2.4916
-12 -10 -17 0.3526 1.3242
-12 -10 -16 6.6910 -1.7805
-12 -10 -15 7.2090 -5.3391
-12 -10 -14 3.9859 -9.9508
-12 -10 -13 -1.5298 4.4479
-12 -10 -12 3.7604 2.3774
-12 -10 -11 -6.2380 -0.0826
-12 -10 -10 4.0832 1.6269
-12 -10 -9 -1.3377 3.7896
-12 -10 -8 1.9533 -5.4271
-12 -10 -7 -1.6393 3.6214
-12 -10 -6 -5.2724 7.3753
-12 -10 -5 -2.6772 -3.8362
-12 -10 -4 -3.2756 6.6921
-12 -10 -3 0.5512 -7.9042
-12 -10 -2 -4.8123 -7.4859
-12 -10 -1 0.4805 -2.5588
-12 -9 -26 6.5335 -8.6915
-12 -9 -25 3.5591 -2.6244
-12 -9 -24 5.5109 1.8761
-12 -9 -23 -2.4710 2.5194
-12 -9 -22 -0.3150 3.8189
-12 -9 -21 2.1944 0.2072
-12 -9 -20 0.1765 3.0646
-12 -9 -19 4.6527 -5.5049
-12 -9 -18 -1.3881 0.2778
-12 -9 -17 -2.4231 4.3254
-12 -9 -16 6.5832 7.0673
-12 -9 -15 -2.1840 -3.6258
-12 -9 -14 -2.0795 1.8181
-12 -9 -13 -7.4752 -13.7014
-12 -9 -12 -5.8555 3.2509
-12 -9 -11 -5.7255 -0.9365
-12 -9 -10 9.0337 2.3975
-12 -9 -9 -1.9792 -3.2967
-12 -9 -8 0.1689 1.0898
-12 -9 -7 5.4790 -1.7430
-12 -9 -6 -6.2160 0.4372
-12 -9 -5 0.0823 -0.3442
-12 -9 -4 4.5239 5.5856
-12 -9 -3 3.0651 8.9179
-12 -9 -2 0.7298 2.9551
-12 -9 -1 -2.2781 1.0458
-12 -8 -28 5.4296 0.2320
-12 -8 -27 1.1660 -1.1304
-12 -8 -26 -0.3109 -1.4297
-12 -8 -25 -8.2385 -3.6660
-12 -8 -24 -2.7202 -1.4979
-12 -8 -23 -1.3405 0.0037
-12 -8 -22 -5.5243 -6.3562
-12 -8 -21 3.6768 3.0164
-12 -8 -20 3.6449 0.3029
-12 -8 -19 1.5100 1.5929
-12 -8 -18 -1.4618 2.7795
-12 -8 -17 -1.4687 -1.3480
-12 -8 -16 -5.6598 3.7420
-12 -8 -15 12.4947 2.0624
-12 -8 -14 0.4243 -2.2810
-12 -8 -13 0.5482 -5.9737
-12 -8 -12 -5.1384 11.3329
-12 -8 -11 1.9055 2.3012
-12 -8 -10 -2.1490 6.6152
-12 -8 -9 4.7597 4.9519
-12 -8 -8 -3.2024 -3.7024
-12 -8 -7 3.9588 -1.7181
-12 -8 -6 -8.4103 1.0040
-12 -8 -5 -3.0239 -4.0199
-12 -8 -4 -2.0726 6.1255
-12 -8 -3 3.8972 -1.9891
-12 -8 -2 1.1582 -8.2698
-12 -8 -1 6.6113 -2.4628
-12 -7 -30 -0.5569 3.0692
-12 -7 -29 -2.6239 2.5997
-12 -7 -28 0.1374 6.7861
-12 -7 -27 0.7079 -5.1031
-12 -7 -26 -0.6076 -1.1431
-12 -7 -25 -3.9531 -1.9744
-12 -7 -24 1.9502 1.2499
-12 -7 -23 0.3823 5.9336
-12 -7 -22 5.8825 5.3165
-12 -7 -21 -1.7799 -2.2233
-12 -7 -20 -1.9292 2.8697
-12 -7 -19 -0.3961 -2.1732
-12 -7 -18 2.5360 -5.6082
-12 -7 -17 1.8576 -0.0963
-12 -7 -16 4.3109 0.3364
-12 -7 -15 7.5356 4.1699
-12 -7 -14 -0.7629 -0.5909
-12 -7 -13 3.3445 -2.4243
-12 -7 -12 -2.4454 -5.5424
-12 -7 -11 -4.2335 5.8470
-12 -7 -10 6.1207 -0.0618
-12 -7 -9 3.6898 6.0994
-12 -7 -8 -1.4705 -9.9129
-12 -7 -7 7.8865 0.9300
-12 -7 -6 -8.3715 0.6714
-12 -7 -5 0.2757 5.7352
-12 -7 -4 0.6668 0.7940
-12 -7 -3 -3.5217 9.9000
-12 -7 -2 0.0316 4.9307
-12 -7 -1 0.8679 -0.7723
-12 -6 -32 -0.5987 -3.7962
-12 -6 -31 -0.3039 -6.5832
-12 -6 -30 -0.0381 -3.9532
-12 -6 -29 2.7431 -3.8102
-12 -6 -28 -1.5071 -1.0780
-12 -6 -27 3.4499 0.8828
-12 -6 -26 2.0022 0.6379
-12 -6 -25 -1.9342 0.3514
-12 -6 -24 -9.3570 3.6035
-12 -6 -23 1.3675 0.9226
-12 -6 -22 1.3649 1.8505
-12 -6 -21 6.2593 -7.3110
-12 -6 -20 -0.6252 -5.4222
-12 -6 -19 -0.1428 -0.7272
-12 -6 -18 -2.3515 3.7324
-12 -6 -17 -5.4506 2.2148
-12 -6 -16 -6.8417 -3.2525
-12 -6 -15 -3.4081 -4.5978
-12 -6 -14 4.7124 -0.5913
-12 -6 -13 -0.2672 -11.4209
-12 -6 -12 2.8375 2.1618
-12 -6 -11 -5.0688 2.2621
-12 -6 -10 5.1958 -0.9407
-12 -6 -9 0.2877 8.5911
-12 -6 -8 3.5750 -6.7740
-12 -6 -7 2.5063 1.2969
-12 -6 -6 0.8501 6.9548
-12 -6 -5 -5.9461 -1.5831
-12 -6 -4 1.9000 2.7941
-12 -6 -3 6.9816 11.3576
-12 -6 -2 7.6587 -4.7491
-12 -6 -1 0.8157 4.7773
-12 -5 -33 -1.0646 -2.0996
-12 -5 -32 -2.6547 6.2881
-12 -5 -31 -0.7522 1.4460
-12 -5 -30 -1.1278 0.5810
-12 -5 -29 -6.4882 0.8042
-12 -5 -28 -4.9367 2.4680
-12 -5 -27 -5.7130 4.1192
-12 -5 -26 1.8600 -1.0813
-12 -5 -25 3.0484 -1.1554
-12 -5 -24 -2.1976 -1.5275
-12 -5 -23 2.9966 4.3944
-12 -5 -22 5.1232 2.6164
-12 -5 -21 1.3709 2.5361
-12 -5 -20 -1.7900 -1.1851
-12 -5 -19 -4.4281 -5.7400
-12 -5 -18 -3.9993 -1.2271
-12 -5 -17 3.6335 1.1425
-12 -5 -16 -5.1195 7.6454
-12 -5 -15 9.1215 4.1213
-12 -5 -14 -4.7614 11.1085
-12 -5 -13 -2.8936 3.9691
-12 -5 -12 -0.0554 1.8759
-12 -5 -11 -8.7424 -4.0890
-12 -5 -10 2.4833 -3.3891
-12 -5 -9 7.9632 2.8028
-12 -5 -8 -2.3827 -0.5584
-12 -5 -7 5.7174 -4.9622
-12 -5 -6 2.9270 -3.3353
-12 -5 -5 -4.2613 -0.6022
-12 -5 -4 9.8977 -0.5242
-12 -5 -3 5.5790 -0.7894
-12 -5 -2 2.6392 -0.5665
-12 -5 -1 7.1247 1.3619
-12 -4 -34 -5.9610 -0.1851
-12 -4 -33 8.0875 0.0324
-12 -4 -32 2.8163 2.0088
-12 -4 -31 0.4373 0.3711
-12 -4 -30 -0.0907 1.8981
-12 -4 -29 3.6019 -2.9454
-12 -4 -28 0.7631 3.5792
-12 -4 -27 2.5654 4.9086
-12 -4 -26 5.1239 2.0966
-12 -4 -25 7.6965 1.2243
-12 -4 -24 5.4967 0.0596
-12 -4 -23 -2.3897 -5.1958
-12 -4 -22 -8.0186 -0.3914
-12 -4 -21 3.1553 0.4428
-12 -4 -20 0.2915 -4.5425
-12 -4 -19 0.2434 1.2413
-12 -4 -18 -3.9331 -4.2895
-12 -4 -17 -0.1526 6.5927
-12 -4 -16 -5.1446 -1.1223
-12 -4 -15 0.0846 -0.2553
-12 -4 -14 4.3177 5.0823
-12 -4 -13 7.6812 -1.7180
-12 -4 -12 11.8929 -5.4464
-12 -4 -11 5.4941 4.8214
-12 -4 -10 4.6727 -3.2170
-12 -4 -9 -1.5831 4.6312
-12 -4 -8 -5.8373 1.3296
-12 -4 -7 1.2959 -9.0657
-12 -4 -6 3.9659 -3.4600
-12 -4 -5 0.4739 5.3674
-12 -4 -4 -5.7643 -7.2501
-12 -4 -3 -3.0160 1.4948
-12 -4 -2 6.5214 -0.0060
-12 -4 -1 -4.4948 -9.0545
-12 -3 -35 0.1644 7.4751
-12 -3 -34 -1.0366 7.4059
-12 -3 -33 -0.1035 3.4378
-12 -3 -32 -0.2641 -0.5368
-12 -3 -31 2.2764 1.7756
-12 -3 -30 3.4562 -2.4104
-12 -3 -29 1.9616 0.8564
-12 -3 -28 2.0558 1.3174
-12 -3 -27 -0.4341 0.2488
-12 -3 -26 -2.3071 1.9861
-12 -3 -25 3.2647 -1.8454
-12 -3 -24 -1.3890 -11.6170
-12 -3 -23 -6.4249 -7.4438
-12 -3 -22 0.4488 -6.7844
-12 -3 -21 -2.4593 -0.3864
-12 -3 -20 0.4948 8.5454
-12 -3 -19 0.1307 5.9755
-12 -3 -18 -3.1234 0.9529
-12 -3 -17 3.2774 -1.5591
-12 -3 -16 -4.4299 5.2454
-12 -3 -15 -2.9387 2.0239
-12 -3 -14 8.5311 4.1298
-12 -3 -13 -0.2978 -1.4750
-12 -3 -12 7.2677 1.5411
-12 -3 -11 1.8968 -4.1950
-12 -3 -10 -8.3938 -16.2432
-12 -3 -9 -4.4659 -6.8730
-12 -3 -8 4.1968 -3.2491
-12 -3 -7 -7.4728 5.5126
-12 -3 -6 8.8540 -3.1616
-12 -3 -5 -7.0059 0.3064
-12 -3 -4 -2.9616 -3.3657
-12 -3 -3 4.5593 -5.4099
-12 -3 -2 1.6538 1.0374
-12 -3 -1 -1.6880 4.5368
-12 -2 -35 0.9336 -0.8276
-12 -2 -34 1.5557 -0.0214
-12 -2 -33 3.3106 -1.7668
-12 -2 -32 11.2287 6.0684
-12 -2 -31 8.5690 0.3338
-12 -2 -30 2.0200 1.3961
-12 -2 -29 4.3363 -1.9901
-12 -2 -28 3.2102 -9.0481
-12 -2 -27 2.0889 -3.3447
-12 -2 -26 3.8352 0.4287
-12 -2 -25 2.7671 -2.4153
-12 -2 -24 2.3334 7.1973
-12 -2 -23 4.8208 4.9785
-12 -2 -22 -12.4320 5.1113
-12 -2 -21 -9.8388 9.6027
-12 -2 -20 -10.3606 -5.8856
-12 -2 -19 6.0403 6.3306
-12 -2 -18 -1.5753 -3.8078
-12 -2 -17 6.4562 -2.1298
-12 -2 -16 0.0822 7.5279
-12 -2 -15 3.6790 -4.5343
-12 -2 -14 1.4663 0.5240
-12 -2 -13 -0.8029 5.8262
-12 -2 -12 7.3104 -9.3387
-12 -2 -11 -1.4100 -9.5439
-12 -2 -10 2.7190 -0.7054
-12 -2 -9 -6.2384 -10.2974
-12 -2 -8 -4.9430 16.1580
-12 -2 -7 -13.8761 3.2611
-12 -2 -6 0.6861 3.2627
-12 -2 -5 7.7803 0.5484
-12 -2 -4 -2.9049 1.7566
-12 -2 -3 -4.7461 -5.0420
-12 -2 -2 -2.2785 4.4954
-12 -2 -1 -2.6955 -7.1684
-12 -1 -35 6.9099 0.8612
-12 -1 -34 -7.1068 5.5334
-12 -1 -33 1.1625 4.7242
-12 -1 -32 -1.9167 -0.1287
-12 -1 -31 -2.8118 -3.4127
-12 -1 -30 9.8943 -5.5559
-12 -1 -29 5.0810 -9.8610
-12 -1 -28 -1.6757 -5.3177
-12 -1 -27 -0.5283 -6.3234
-12 -1 -26 -9.5614 -7.8395
-12 -1 -25 -3.5327 1.2404
-12 -1 -24 2.1631 -6.6532
-12 -1 -23 -0.7853 -2.1119
-12 -1 -22 16.0997 -9.7538
-12 -1 -21 1.9108 5.7170
-12 -1 -20 12.4748 -2.4360
-12 -1 -19 3.8862 15.1172
-12 -1 -18 -4.9023 8.3814
-12 -1 -17 2.7428 1.6100
-12 -1 -16 2.9008 3.4695
-12 -1 -15 -5.9005 -1.2624
-12 -1 -14 7.7830 5.8528
-12 -1 -13 -1.3538 -4.6272
-12 -1 -12 -5.7365 -4.0869
-12 -1 -11 6.0209 0.8876
-12 -1 -10 -15.4179 2.1067
-12 -1 -9 -3.6636 -8.8617
-12 -1 -8 -9.1917 -3.7648
-12 -1 -7 -2.0544 9.4359
-12 -1 -6 6.4180 -0.4187
-12 -1 -5 13.9404 9.3304
-12 -1 -4 -3.3387 -3.7080
-12 -1 -3 6.7067 -1.6564
-12 -1 -2 -6.2829 -2.0811
-12 -1 -1 4.7376 1.1132
-11 -15 -3 -3.0369 -4.5969
-11 -15 -2 0.9831 -4.8954
-11 -15 -1 1.8366 -1.4728
-11 -14 -14 -0.1340 -5.5709
-11 -14 -13 4.8902 -2.9713
-11 -14 -12 7.2301 2.8802
-11 -14 -11 -0.8760 1.4351
-11 -14 -10 1.9148 4.4086
-11 -14 -9 1.0984 0.3906
-11 -14 -8 -4.8680 0.3789
-11 -14 -7 -5.4397 -0.9455
-11 -14 -6 -1.6399 -2.2810
-11 -14 -5 -3.7525 -1.0928
-11 -14 -4 -3.3714 3.7278
-11 -14 -3 -0.6023 3.3065
-11 -14 -2 -4.0433 1.6904
-11 -14 -1 -8.0053 -1.1170
-11 -13 -18 4.4228 0.7574
-11 -13 -17 3.3367 9.3972
-11 -13 -16 7.9002 3.8712
-11 -13 -15 1.0335 -2.7131
-11 -13 -14 -1.3180 0.6580
-11 -13 -13 -0.5168 -4.6516
-11 -13 -12 -7.2834 -1.8722
-11 -13 -11 0.9235 -2.0120
-11 -13 -10 0.4664 -5.4671
-11 -13 -9 3.6483 -3.8049
-11 -13 -8 3.2482 3.9518
-11 -13 -7 -2.8334 -0.0138
-11 -13 -6 -5.3799 -3.4693
-11 -13 -5 -3.2619 10.5261
-11 -13 -4 -5.7596 5.9004
-11 -13 -3 -4.5685 0.0093
-11 -13 -2 6.1111 1.9932
-11 -13 -1 -0.0212 -0.1117
-11 -12 -20 2.9385 3.5822
-11 -12 -19 1.0482 0.8593
-11 -12 -18 -3.0838 7.8332
-11 -12 -17 1.6432 0.4405
-11 -12 -16 -3.8565 2.9061
-11 -12 -15 6.8660 0.4858
-11 -12 -14 5.3737 -2.9344
-11 -12 -13 -3.7106 1.3122
-11 -12 -12 -0.2618 -1.8153
-11 -12 -11 2.5445 1.9256
-11 -12 -10 -6.1626 3.5988
-11 -12 -9 -5.0467 -1.1313
-11 -12 -8 3.4697 -2.3939
-11 -12 -7 -6.7536 -0.6273
-11 -12 -6 2.7865 -1.0828
-11 -12 -5 2.2060 -0.4522
-11 -12 -4 -0.8291 10.2067
-11 -12 -3 4.8684 3.9598
-11 -12 -2 2.4201 8.4334
-11 -12 -1 1.3610 4.3072
-11 -11 -22 -7.4216 -1.6535
-11 -11 -21 -0.4755 4.2623
-11 -11 -20 -4.9361 0.5456
-11 -11 -19 6.2048 5.5077
-11 -11 -18 -3.0115 -9.7512
-11 -11 -17 4.0472 -0.8670
-11 -11 -16 1.4115 6.2323
-11 -11 -15 2.3452 0.9737
-11 -11 -14 5.6227 0.2480
-11 -11 -13 7.7039 -1.3286
-11 -11 -12 0.0922 -5.8875
-11 -11 -11 -0.9045 -1.3743
-11 -11 -10 -1.6898 6.0106
-11 -11 -9 -0.3038 -5.9973
-11 -11 -8 -1.0933 7.1584
-11 -11 -7 1.2787 6.4998
-11 -11 -6 -6.2578 -0.0428
-11 -11 -5 1.0091 -1.4028
-11 -11 -4 -1.1791 -2.5120
-11 -11 -3 -4.9187 0.7913
-11 -11 -2 5.0616 -0.3790
-11 -11 -1 5.1331 -4.0745
-11 -10 -24 2.6593 2.4299
-11 -10 -23 -4.6284 3.1330
-11 -10 -22 3.2851 -1.5220
-11 -10 -21 -7.2885 15.4238
-11 -10 -20 3.5211 2.2393
-11 -10 -19 1.2589 8.6474
-11 -10 -18 0.3237 0.9151
-11 -10 -17 -2.9664 -0.9725
-11 -10 -16 -6.8590 -2.7852
-11 -10 -15 -5.6126 4.7183
-11 -10 -14 6.2396 -3.7523
-11 -10 -13 5.8458 -4.8856
-11 -10 -12 -5.3367 -6.8990
-11 -10 -11 1.0352 -7.0437
-11 -10 -10 -5.6030 -3.0173
-11 -10 -9 -2.0808 3.9573
-11 -10 -8 1.3115 -0.9787
-11 -10 -7 3.4184 5.0225
-11 -10 -6 6.6975 2.8453
-11 -10 -5 5.1039 -3.5096
-11 -10 -4 -0.4521 5.8712
-11 -10 -3 3.2896 2.6775
-11 -10 -2 -6.5556 5.0946
-11 -10 -1 -0.5365 6.3472
-11 -9 -27 2.4711 0.2808
-11 -9 -26 -2.8367 3.7489
-11 -9 -25 1.4516 -6.3532
-11 -9 -24 6.5764 3.9141
-11 -9 -23 -9.0366 -2.4480
-11 -9 -22 2.8757 3.0657
-11 -9 -21 -1.0675 1.0456
-11 -9 -20 -0.6869 3.1650
-11 -9 -19 1.8869 0.3828
-11 -9 -18 7.9809 2.8334
-11 -9 -17 2.9806 -5.0373
-11 -9 -16 4.0926 1.5390
-11 -9 -15 -1.5245 7.1155
-11 -9 -14 -5.3355 6.0347
-11 -9 -13 4.4021 5.5849
-11 -9 -12 -1.9402 -4.3450
-11 -9 -11 -7.6369 -4.7663
-11 -9 -10 -6.6297 1.9622
-11 -9 -9 -7.0469 2.8753
-11 -9 -8 0.1346 2.2657
-11 -9 -7 3.4664 1.0154
-11 -9 -6 -3.8338 -3.5089
-11 -9 -5 3.3276 -1.8158
-11 -9 -4 4.7965 -12.0628
-11 -9 -3 -1.8768 -5.1485
-11 -9 -2 -0.0666 1.8894
-11 -9 -1 5.8565 -4.5656
-11 -8 -29 1.2608 6.0807
-11 -8 -28 -0.1716 -0.7055
-11 -8 -27 5.9644 4.3010
-11 -8 -26 1.1950 10.1194
-11 -8 -25 4.3375 -1.8387
-11 -8 -24 1.1757 1.3665
-11 -8 -23 -3.5755 5.1110
-11 -8 -22 -2.1737 1.8297
-11 -8 -21 5.6019 0.0300
-11 -8 -20 0.6191 2.7749
-11 -8 -19 3.2234 2.1589
-11 -8 -18 1.2135 4.2430
-11 -8 -17 3.1624 4.4474
-11 -8 -16 1.3091 -9.8344
-11 -8 -15 -3.6712 2.6197
-11 -8 -14 -2.0258 -0.4196
-11 -8 -13 6.2284 3.8903
-11 -8 -12 4.8959 2.4157
-11 -8 -11 3.1948 -0.1375
-11 -8 -10 -3.9180 4.8883
-11 -8 -9 -1.5020 5.1734
-11 -8 -8 -0.5523 2.1037
-11 -8 -7 -0.4856 4.6862
-11 -8 -6 -0.4667 3.7518
-11 -8 -5 1.2997 -2.3304
-11 -8 -4 -7.5567 1.7810
-11 -8 -3 -3.8283 -0.0207
-11 -8 -2 -7.7702 0.5540
-11 -8 -1 -7.2687 -5.6621
-11 -7 -30 6.3249 0.2615
-11 -7 -29 7.6413 -2.1783
-11 -7 -28 -0.8596 -1.8487
-11 -7 -27 1.0075 -1.8943
-11 -7 -26 4.9359 2.2239
-11 -7 -25 -0.2532 -5.8172
-11 -7 -24 3.2315 -4.3147
-11 -7 -23 5.6972 -1.9388
-11 -7 -22 -1.0967 3.8601
-11 -7 -21 5.6988 3.3559
-11 -7 -20 6.4484 1.5113
-11 -7 -19 -4.0604 -1.9974
-11 -7 -18 6.7305 -1.2138
-11 -7 -17 -1.4159 -0.6311
-11 -7 -16 6.8236 -3.6314
-11 -7 -15 4.9196 -3.4651
-11 -7 -14 -3.6428 -1.9018
-11 -7 -13 0.3349 6.5292
-11 -7 -12 2.8654 -0.4399
-11 -7 -11 7.4361 1.6300
-11 -7 -10 3.6025 -5.7841
-11 -7 -9 1.0601 3.4613
-11 -7 -8 0.5578 -3.2564
-11 -7 -7 5.0893 5.4943
-11 -7 -6 -2.5839 -2.0470
-11 -7 -5 0.1253 5.4692
-11 -7 -4 -0.6648 0.4005
-11 -7 -3 7.6246 2.1534
-11 -7 -2 0.1765 3.9924
-11 -7 -1 -8.5930 4.9230
-11 -6 -32 -9.1093 0.1806
-11 -6 -31 -2.1447 2.8675
-11 -6 -30 -5.3356 -2.6457
-11 -6 -29 1.7100 -3.2605
-11 -6 -28 -2.5718 0.4570
-11 -6 -27 1.7950 -9.9069
-11 -6 -26 -4.8800 -3.7720
-11 -6 -25 3.1755 8.7825
-11 -6 -24 -2.7240 -5.2582
-11 -6 -23 3.2579 -0.3115
-11 -6 -22 -5.9524 -1.3944
-11 -6 -21 -0.0301 -5.3820
-11 -6 -20 5.7669 0.8940
-11 -6 -19 8.1850 -8.7431
-11 -6 -18 2.1263 -4.4018
-11 -6 -17 1.6561 7.3676
-11 -6 -16 3.2105 -7.1116
-11 -6 -15 -2.6268 -2.3008
-11 -6 -14 -1.2467 -5.2223
-11 -6 -13 -10.3209 -0.9555
-11 -6 -12 4.6208 -1.0341
-11 -6 -11 -2.2200 1.5336
-11 -6 -10 6.3836 -4.0707
-11 -6 -9 -4.9977 -1.3538
-11 -6 -8 2.4055 -9.3242
-11 -6 -7 -3.4015 1.0662
-11 -6 -6 4.0344 1.1560
-11 -6 -5 -7.4129 7.7171
-11 -6 -4 5.9026 1.9880
-11 -6 -3 -0.0160 -2.2275
-11 -6 -2 1.1465 12.7055
-11 -6 -1 -1.4165 -8.9189
-11 -5 -34 0.8335 -7.2332
-11 -5 -33 -1.2706 0.6910
-11 -5 -32 3.2430 -6.3699
-11 -5 -31 4.1199 0.0809
-11 -5 -30 -5.1267 2.6673
-11 -5 -29 6.5644 5.5387
-11 -5 -28 2.7938 -2.3397
-11 -5 -27 -10.0323 0.3123
-11 -5 -26 0.5843 -5.6737
-11 -5 -25 -7.3415 8.1149
-11 -5 -24 1.2923 -0.3244
-11 -5 -23 6.6973 -3.6188
-11 -5 -22 0.9228 -4.9590
-11 -5 -21 0.1616 1.1950
-11 -5 -20 -2.2529 -1.5027
-11 -5 -19 -13.5648 -1.9300
-11 -5 -18 4.2048 -6.0035
-11 -5 -17 -6.1920 -8.4908
-11 -5 -16 -4.1960 -4.1275
-11 -5 -15 0.9133 -10.2856
-11 -5 -14 0.6093 0.4582
-11 -5 -13 -7.2134 -0.3928
-11 -5 -12 -3.5993 8.8562
-11 -5 -11 -5.6083 4.0822
-11 -5 -10 9.0532 3.1897
-11 -5 -9 -1.7536 -3.8667
-11 -5 -8 2.1857 10.4789
-11 -5 -7 -6.9831 -7.1527
-11 -5 -6 2.8188 8.9785
-11 -5 -5 1.1793 0.0383
-11 -5 -4 0.7455 4.0437
-11 -5 -3 12.7546 1.6000
-11 -5 -2 5.9102 7.4549
-11 -5 -1 4.6005 -5.3333
-11 -4 -36 4.9457 -2.0717
-11 -4 -35 -3.4450 -1.5934
-11 -4 -34 2.7012 -3.2490
-11 -4 -33 2.5017 3.4022
-11 -4 -32 -4.1788 -1.9178
-11 -4 -31 -1.9117 8.9012
-11 -4 -30 -5.1541 -0.4330
-11 -4 -29 -2.5077 -4.5611
-11 -4 -28 4.8662 7.0822
-11 -4 -27 -1.2389 -2.8078
-11 -4 -26 -3.8992 -2.3699
-11 -4 -25 -2.2213 4.6357
-11 -4 -24 -0.8864 6.0195
-11 -4 -23 1.8989 4.2604
-11 -4 -22 3.1093 -4.5151
-11 -4 -21 -5.4570 -15.3713
-11 -4 -20 -6.0778 0.6270
-11 -4 -19 -4.1870 3.5328
-11 -4 -18 -2.4568 -2.2760
-11 -4 -17 -3.1332 10.4991
-11 -4 -16 -5.5379 5.3705
-11 -4 -15 -5.9638 0.6201
-11 -4 -14 -5.1705 6.0452
-11 -4 -13 -9.5323 0.0954
-11 -4 -12 -2.9403 8.3778
-11 -4 -11 10.9446 -1.8118
-11 -4 -10 0.0432 10.3858
-11 -4 -9 13.1372 -4.2043
-11 -4 -8 -2.6492 4.0869
-11 -4 -7 1.4033 -13.7439
-11 -4 -6 7.1590 2.3878
-11 -4 -5 7.6167 2.7274
-11 -4 -4 -3.4814 -1.3232
-11 -4 -3 12.4472 -7.9662
-11 -4 -2 3.9345 -6.7841
-11 -4 -1 4.0272 0.0542
-11 -3 -37 -10.8215 -3.0998
-11 -3 -36 -2.9046 3.5412
-11 -3 -35 -6.4695 6.9792
-11 -3 -34 0.7384 -5.0939
-11 -3 -33 -10.1019 5.6818
-11 -3 -32 -1.4489 -2.8143
-11 -3 -31 3.6179 1.2184
-11 -3 -30 0.8670 3.2167
-11 -3 -29 7.5667 5.9372
-11 -3 -28 9.6776 0.9548
-11 -3 -27 5.2289 5.6131
-11 -3 -26 5.4051 -4.4686
-11 -3 -25 0.6828 1.2100
-11 -3 -24 -1.6385 7.3277
-11 -3 -23 3.1959 2.7875
-11 -3 -22 4.8315 2.1138
-11 -3 -21 -7.6296 -4.0939
-11 -3 -20 6.3803 2.4209
-11 -3 -19 -21.8690 -0.1673
-11 -3 -18 -5.7071 6.6582
-11 -3 -17 4.1948 2.8490
-11 -3 -16 -3.5388 10.2860
-11 -3 -15 2.9543 -0.5284
-11 -3 -14 0.4614 0.3981
-11 -3 -13 12.8392 5.8300
-11 -3 -12 2.6410 -1.0080
-11 -3 -11 11.3368 6.9254
-11 -3 -10 -6.6607 -0.9037
-11 -3 -9 18.5409 -12.7301
-11 -3 -8 -2.4365 -4.5619
-11 -3 -7 0.5470 -2.0734
-11 -3 -6 -3.7048 -5.9257
-11 -3 -5 -3.0184 4.7795
-11 -3 -4 -1.4047 -4.9908
-11 -3 -3 -4.9296 -11.3353
-11 -3 -2 4.9442 0.9606
-11 -3 -1 -8.2519 -5.4838
-11 -2 -37 -8.1827 -1.1619
-11 -2 -36 4.1355 9.9470
-11 -2 -35 -5.4581 6.8968
-11 -2 -34 4.3423 3.7317
-11 -2 -33 2.6547 4.6423
-11 -2 -32 1.5378 2.0151
-11 -2 -31 0.4923 8.7373
-11 -2 -30 7.0742 9.3144
-11 -2 -29 -3.2031 0.6326
-11 -2 -28 9.8578 -5.6279
-11 -2 -27 5.5211 -5.2242
-11 -2 -26 0.5502 -15.1426
-11 -2 -25 2.4915 -16.2708
-11 -2 -24 -5.2648 -4.0775
-11 -2 -23 5.9120 -11.9678
-11 -2 -22 1.5752 21.0393
-11 -2 -21 7.6260 -12.2111
-11 -2 -20 -0.4412 1.4572
-11 -2 -19 4.4570 7.9969
-11 -2 -18 -6.4302 0.0341
-11 -2 -17 1.8224 14.0629
-11 -2 -16 0.9928 5.4224
-11 -2 -15 3.5614 9.3080
-11 -2 -14 7.0493 3.9534
-11 -2 -13 3.0807 7.5842
-11 -2 -12 -7.1396 -13.7968
-11 -2 -11 2.0410 2.0572
-11 -2 -10 -4.5960 -18.6918
-11 -2 -9 -2.3117 -6.5604
-11 -2 -8 -3.7040 -0.4205
-11 -2 -7 -10.4394 -11.2126
-11 -2 -6 -10.1864 -3.7624
-11 -2 -5 7.9121 -3.8295
-11 -2 -4 -4.7378 12.4731
-11 -2 -3 2.5051 -1.7746
-11 -2 -2 1.0009 -1.4533
-11 -2 -1 -9.4434 3.8759
-11 -1 -38 -7.1682 5.3782
-11 -1 -37 -5.9719 -5.2740
-11 -1 -36 4.8681 -3.1205
-11 -1 -35 -0.7878 5.0947
-11 -1 -34 12.1049 0.7481
-11 -1 -33 7.8474 0.2280
-11 -1 -32 1.5892 3.8634
-11 -1 -31 -0.1989 -6.1651
-11 -1 -30 10.5727 2.4868
-11 -1 -29 2.5549 -1.6968
-11 -1 -28 13.8288 -5.4323
-11 -1 -27 7.3966 -0.9019
-11 -1 -26 -7.5020 -10.9083
-11 -1 -25 2.2945 -1.0271
-11 -1 -24 -29.8572 -1.2989
-11 -1 -23 -5.4652 2.5880
-11 -1 -22 -11.4963 0.2124
-11 -1 -21 -4.7005 2.7059
-11 -1 -20 13.8405 -7.2048
-11 -1 -19 -2.9879 -1.4278
-11 -1 -18 3.0158 -4.5367
-11 -1 -17 -1.1596 -0.8656
-11 -1 -16 7.0466 1.9820
-11 -1 -15 7.5787 7.3158
-11 -1 -14 13.5275 -2.2989
-11 -1 -13 -0.5895 1.5893
-11 -1 -12 18.7162 -4.0027
-11 -1 -11 5.5222 0.2563
-11 -1 -10 -13.4822 3.6288
-11 -1 -9 -4.5601 9.0246
-11 -1 -8 -14.5726 0.5401
-11 -1 -7 -0.2954 15.4531
-11 -1 -6 -13.6019 -0.5050
-11 -1 -5 -6.0781 11.5206
-11 -1 -4 -0.5756 5.6526
-11 -1 -3 -4.6355 -4.4359
-11 -1 -2 4.2115 -5.1548
-11 -1 -1 5.0198 5.4880
-10 -15 -12 3.8551 -1.7560
-10 -15 -11 -3.8871 -0.4742
-10 -15 -10 2.3225 5.6544
-10 -15 -9 -4.5706 2.4331
-10 -15 -8 -1.4779 1.1470
-10 -15 -7 -3.1233 9.3113
-10 -15 -6 4.8702 4.6343
-10 -15 -5 -12.8586 1.7044
-10 -15 -4 -5.1436 8.0449
-10 -15 -3 -0.8535 -6.6286
-10 -15 -2 -5.2209 0.6205
-10 -15 -1 0.7939 -4.2785
-10 -14 -15 -4.1940 4.7339
-10 -14 -14 2.1091 0.9047
-10 -14 -13 6.0540 -5.2691
-10 -14 -12 -1.9589 -3.7048
-10 -14 -11 1.7847 2.2895
-10 -14 -10 2.4801 0.5382
-10 -14 -9 -1.2804 -3.2852
-10 -14 -8 3.1583 11.2543
-10 -14 -7 3.2196 -6.2210
-10 -14 -6 -4.7225 3.8416
-10 -14 -5 8.3130 -3.1277
-10 -14 -4 -2.3731 -2.3468
-10 -14 -3 5.7711 -0.9844
-10 -14 -2 -7.2007 9.6276
-10 -14 -1 1.3620 -0.5108
-10 -13 -18 0.1567 4.1516
-10 -13 -17 -1.5000 3.0572
-10 -13 -16 2.1217 0.7808
-10 -13 -15 5.5042 6.0838
-10 -13 -14 11.9187 -2.1483
-10 -13 -13 -2.1039 1.3833
-10 -13 -12 -2.3142 0.9328
-10 -13 -11 -1.4142 -5.3569
-10 -13 -10 -8.0534 -4.8797
-10 -13 -9 12.1923 0.8970
-10 -13 -8 -5.2337 -6.6068
-10 -13 -7 3.1480 2.7534
-10 -13 -6 -0.0655 -4.6912
-10 -13 -5 7.7124 5.8662
-10 -13 -4 -7.7491 -1.9638
-10 -13 -3 -2.0300 3.2712
-10 -13 -2 -7.1774 -5.5194
-10 -13 -1 1.0036 1.6424
-10 -12 -20 1.9666 -0.2456
-10 -12 -19 1.1115 -0.8568
-10 -12 -18 9.6106 5.7534
-10 -12 -17 1.5340 2.3712
-10 -12 -16 5.3773 7.2418
-10 -12 -15 0.7403 -3.8903
-10 -12 -14 -0.9199 3.0343
-10 -12 -13 0.5094 -2.9968
-10 -12 -12 5.9331 -9.4254
-10 -12 -11 -2.7922 6.6603
-10 -12 -10 3.6390 0.3551
-10 -12 -9 -7.7552 7.3421
-10 -12 -8 -3.5253 -5.4893
-10 -12 -7 -6.9931 2.0834
-10 -12 -6 -4.2145 -4.7819
-10 -12 -5 -5.2932 1.3800
-10 -12 -4 6.1068 -3.6934
-10 -12 -3 1.8795 2.7179
-10 -12 -2 -0.0360 -3.3457
-10 -12 -1 1.1898 7.0824
-10 -11 -23 -2.6977 -8.8861
-10 -11 -22 -4.3053 -2.0749
-10 -11 -21 -2.3324 -1.3651
-10 -11 -20 -7.5158 6.0832
-10 -11 -19 -5.0480 2.4521
-10 -11 -18 -10.4676 2.1770
-10 -11 -17 4.4998 -1.8909
-10 -11 -16 -4.2488 -2.3855
-10 -11 -15 0.2183 -6.8435
-10 -11 -14 1.3553 -1.0372
-10 -11 -13 4.5053 -3.6930
-10 -11 -12 3.7777 6.3698
-10 -11 -11 -1.9814 -4.2254
-10 -11 -10 0.4370 -5.1563
-10 -11 -9 -0.6254 -1.4351
-10 -11 -8 8.5146 1.0936
-10 -11 -7 4.4351 2.4307
-10 -11 -6 -0.3241 8.2224
-10 -11 -5 -3.8016 5.8430
-10 -11 -4 5.0806 6.4223
-10 -11 -3 -3.8748 8.9141
-10 -11 -2 -2.1309 -12.3542
-10 -11 -1 -0.7628 -3.8384
-10 -10 -25 1.7891 -0.5533
-10 -10 -24 0.8339 2.4763
-10 -10 -23 -4.8535 -2.6278
-10 -10 -22 -0.6472 -0.1267
-10 -10 -21 -3.0029 4.9516
-10 -10 -20 -2.0037 -3.8343
-10 -10 -19 1.0429 6.9162
-10 -10 -18 0.8162 1.0852
-10 -10 -17 2.6300 9.9261
-10 -10 -16 3.8594 2.5449
-10 -10 -15 1.8593 7.8264
-10 -10 -14 -4.7728 -2.4845
-10 -10 -13 -3.2581 4.6636
-10 -10 -12 -0.2735 -3.2449
-10 -10 -11 -3.8408 -8.0694
-10 -10 -10 1.3832 -5.9130
-10 -10 -9 -2.4086 -0.7408
-10 -10 -8 -7.2913 -1.9116
-10 -10 -7 -1.2160 -4.3820
-10 -10 -6 1.3015 -6.3760
-10 -10 -5 -5.4013 -6.8055
-10 -10 -4 10.7221 -6.2853
-10 -10 -3 6.4185 -1.3448
-10 -10 -2 1.1466 3.8637
-10 -10 -1 11.9492 -2.0282
-10 -9 -27 1.4315 1.0026
-10 -9 -26 -7.2078 7.3235
-10 -9 -25 5.7115 -2.6735
-10 -9 -24 0.8088 8.1042
-10 -9 -23 -2.2183 1.2330
-10 -9 -22 2.0953 -0.9090
-10 -9 -21 -1.5913 2.3762
-10 -9 -20 3.8015 4.5629
-10 -9 -19 -2.2126 -2.9143
-10 -9 -18 2.2679 2.4677
-10 -9 -17 -7.8507 -3.2998
-10 -9 -16 8.9982 1.9784
-10 -9 -15 2.9799 -0.9341
-10 -9 -14 6.4772 -1.2137
-10 -9 -13 -0.8668 -10.0213
-10 -9 -12 0.6857 6.7003
-10 -9 -11 -1.6760 6.8652
-10 -9 -10 -3.7130 -2.6166
-10 -9 -9 -10.6453 4.1182
-10 -9 -8 -4.4061 4.0187
-10 -9 -7 -6.4824 -0.0337
-10 -9 -6 2.0073 6.8948
-10 -9 -5 -7.0574 1.3486
-10 -9 -4 -11.7809 -4.0189
-10 -9 -3 -3.3172 17.1547
-10 -9 -2 -9.1504 -7.7865
-10 -9 -1 -3.6287 -11.2140
-10 -8 -34 -2.1655 -0.1119
-10 -8 -29 2.0614 4.0745
-10 -8 -28 -4.9688 -6.5858
-10 -8 -27 5.1878 4.6293
-10 -8 -26 -4.9482 -3.6422
-10 -8 -25 -3.2211 -1.4099
-10 -8 -24 2.5934 -0.8482
-10 -8 -23 1.0933 1.9846
-10 -8 -22 -4.8557 -3.4506
-10 -8 -21 3.0192 0.2208
-10 -8 -20 -4.1503 6.6313
-10 -8 -19 5.9129 -4.8167
-10 -8 -18 -1.4275 -0.5274
-10 -8 -17 -3.1006 -1.1708
-10 -8 -16 -5.5963 6.1500
-10 -8 -15 9.4296 2.8629
-10 -8 -14 -3.5413 -1.2397
-10 -8 -13 -4.8113 -6.8487
-10 -8 -12 3.7923 -0.4317
-10 -8 -11 -10.2613 1.8827
-10 -8 -10 3.2854 6.9755
-10 -8 -9 6.9176 -2.7594
-10 -8 -8 2.3401 10.3586
-10 -8 -7 2.0146 5.2086
-10 -8 -6 9.0819 2.5413
-10 -8 -5 -10.4117 5.1608
-10 -8 -4 5.6310 0.7096
-10 -8 -3 5.7248 2.6053
-10 -8 -2 -6.5738 9.1839
-10 -8 -1 16.6590 4.2057
-10 -7 -35 -0.2249 3.7990
-10 -7 -31 -5.3161 1.7481
-10 -7 -30 -1.8619 -5.4478
-10 -7 -29 -7.4125 2.0268
-10 -7 -28 1.8104 2.2591
-10 -7 -27 1.1674 -1.4437
-10 -7 -26 2.9645 3.7559
-10 -7 -25 -9.2405 3.5606
-10 -7 -24 3.6727 -0.4750
-10 -7 -23 -2.6881 7.2102
-10 -7 -22 -2.5464 1.1952
-10 -7 -21 -0.2204 4.1529
-10 -7 -20 -1.2706 3.5690
-10 -7 -19 3.3980 3.7631
-10 -7 -18 5.4218 -0.0609
-10 -7 -17 -0.9235 6.1091
-10 -7 -16 -4.4438 -1.7766
-10 -7 -15 2.0853 2.1336
-10 -7 -14 6.7417 14.0772
-10 -7 -13 3.8919 -12.7779
-10 -7 -12 -6.0526 0.6938
-10 -7 -11 1.2977 4.5912
-10 -7 -10 -1.1071 4.4299
-10 -7 -9 5.4389 0.2895
-10 -7 -8 3.5409 2.7477
-10 -7 -7 1.1381 -11.7935
-10 -7 -6 2.6196 0.6417
-10 -7 -5 4.4400 -0.4545
-10 -7 -4 -4.8282 -12.2912
-10 -7 -3 4.9448 11.8521
-10 -7 -2 -5.1635 3.4296
-10 -7 -1 4.8029 -4.6905
-10 -6 -37 -2.1053 2.1663
-10 -6 -36 -1.4474 0.4302
-10 -6 -35 -1.0114 1.7706
-10 -6 -33 0.9069 3.9193
-10 -6 -32 3.9339 -2.0903
-10 -6 -31 3.4385 -2.3809
-10 -6 -30 1.8912 -2.6800
-10 -6 -29 5.5360 1.7804
-10 -6 -28 -2.4499 8.2450
-10 -6 -27 -2.6787 -2.6118
-10 -6 -26 5.7820 5.8332
-10 -6 -25 0.5041 -7.9790
-10 -6 -24 -2.6937 1.0593
-10 -6 -23 3.3216 5.9143
-10 -6 -22 5.6048 1.2638
-10 -6 -21 5.8422 -0.0367
-10 -6 -20 2.1911 -0.1902
-10 -6 -19 0.7286 2.9725
-10 -6 -18 8.0377 1.9148
-10 -6 -17 7.8801 -7.5389
-10 -6 -16 -7.3668 -2.8650
-10 -6 -15 13.1221 0.8661
-10 -6 -14 3.7134 0.2598
-10 -6 -13 0.7510 -1.7391
-10 -6 -12 5.2188 -6.8166
-10 -6 -11 1.7024 -2.3014
-10 -6 -10 -6.2186 4.3353
-10 -6 -9 4.9526 -1.2697
-10 -6 -8 -1.1621 -5.6326
-10 -6 -7 0.9378 -1.5698
-10 -6 -6 3.3629 -4.8964
-10 -6 -5 -11.2076 9.3873
-10 -6 -4 -4.0264 -9.9628
-10 -6 -3 2.7037 13.2211
-10 -6 -2 -4.8237 -4.1166
-10 -6 -1 -1.9338 9.8992
-10 -5 -37 -0.7586 -4.2394
-10 -5 -36 1.5274 -2.8862
-10 -5 -35 -7.0698 0.9328
-10 -5 -34 5.4993 1.7449
-10 -5 -33 -3.7403 1.2968
-10 -5 -32 6.5267 1.1499
-10 -5 -31 1.4655 5.9439
-10 -5 -30 -1.7099 0.9571
-10 -5 -29 -0.2204 -4.3197
-10 -5 -28 -10.1742 0.7944
-10 -5 -27 5.2123 0.3958
-10 -5 -26 3.8939 -4.7881
-10 -5 -25 0.5315 3.3325
-10 -5 -24 -0.5516 1.4880
-10 -5 -23 -7.1652 2.0462
-10 -5 -22 7.0502 0.3890
-10 -5 -21 6.4706 -0.7474
-10 -5 -20 -2.1494 -3.5456
-10 -5 -19 4.3894 -4.8400
-10 -5 -18 -2.0867 -8.1198
-10 -5 -17 5.9381 5.2632
-10 -5 -16 -0.4612 -2.8300
-10 -5 -15 -3.3141 -14.8691
-10 -5 -14 -2.8048 1.3924
-10 -5 -13 3.2604 0.7541
-10 -5 -12 -7.7453 -8.6214
-10 -5 -11 -2.2237 -0.5392
-10 -5 -10 -4.6857 -4.8865
-10 -5 -9 0.1460 2.1010
-10 -5 -8 2.9934 4.6043
-10 -5 -7 -14.1327 -2.3718
-10 -5 -6 5.4517 2.0405
-10 -5 -5 -15.5834 7.0254
-10 -5 -4 9.9528 -0.7286
-10 -5 -3 -2.6367 2.3734
-10 -5 -2 10.3192 6.7768
-10 -5 -1 -3.2881 8.0596
-10 -4 -38 1.3068 7.6653
-10 -4 -37 2.8386 -10.5987
-10 -4 -36 -1.1201 7.6223
-10 -4 -35 -3.5881 -5.7168
-10 -4 -34 -1.6442 6.1454
-10 -4 -33 -0.9633 0.7070
-10 -4 -32 -0.1937 1.8651
-10 -4 -31 1.0016 2.7175
-10 -4 -30 1.4255 -6.1217
-10 -4 -29 4.7740 -1.7672
-10 -4 -28 12.0790 -0.6658
-10 -4 -27 -2.6104 4.4570
-10 -4 -26 0.4546 9.6743
-10 -4 -25 5.9087 -5.1837
-10 -4 -24 4.0234 -0.4495
-10 -4 -23 -0.9792 0.3733
-10 -4 -22 0.5697 -2.3422
-10 -4 -21 8.7736 6.2195
-10 -4 -20 5.0032 -11.1824
-10 -4 -19 -4.8661 -2.3372
-10 -4 -18 -7.8633 -6.1406
-10 -4 -17 4.2011 0.6425
-10 -4 -16 -6.6316 -8.5338
-10 -4 -15 -6.1957 -0.2570
-10 -4 -14 2.1255 -8.4636
-10 -4 -13 -11.0317 7.2885
-10 -4 -12 -2.4029 -5.0058
-10 -4 -11 2.1388 4.6303
-10 -4 -10 0.1475 8.4810
-10 -4 -9 3.0999 -1.2030
-10 -4 -8 -4.8065 10.9801
-10 -4 -7 2.4241 -10.8197
-10 -4 -6 6.3838 9.1801
-10 -4 -5 5.6592 6.6756
-10 -4 -4 -5.5778 15.3493
-10 -4 -3 6.8570 -4.7413
-10 -4 -2 10.0960 8.2967
-10 -4 -1 -2.2807 -11.1536
-10 -3 -39 15.8877 -3.9982
-10 -3 -38 -0.8459 -3.7075
-10 -3 -37 12.5810 -2.4508
-10 -3 -36 1.6815 -1.4461
-10 -3 -35 -3.6598 -3.5116
-10 -3 -34 -2.0922 2.0248
-10 -3 -33 -1.4968 1.7090
-10 -3 -32 2.7251 1.8270
-10 -3 -31 1.9968 -0.4385
-10 -3 -30 1.9171 11.6687
-10 -3 -29 0.8057 -2.0768
-10 -3 -28 -5.5095 -1.6469
-10 -3 -27 -2.3482 -1.9176
-10 -3 -26 -0.5514 -8.1956
-10 -3 -25 5.5081 -6.3995
-10 -3 -24 11.2331 -9.5066
-10 -3 -23 -3.4824 -3.7608
-10 -3 -22 0.9048 -8.8276
-10 -3 -21 -4.8973 -3.9876
-10 -3 -20 3.9285 -1.9894
-10 -3 -19 -8.5932 -4.5128
-10 -3 -18 2.4772 -4.9790
-10 -3 -17 -10.0562 -6.6758
-10 -3 -16 2.7099 17.7455
-10 -3 -15 -15.3121 0.6930
-10 -3 -14 -1.5711 0.2469
-10 -3 -13 -9.1886 8.4179
-10 -3 -12 -3.4927 6.4966
-10 -3 -11 2.2532 10.2422
-10 -3 -10 -4.6575 -7.4176
-10 -3 -9 9.4332 0.2729
-10 -3 -8 3.9199 -8.8389
-10 -3 -7 4.9573 6.8163
-10 -3 -6 -5.1894 -17.1637
-10 -3 -5 7.3775 5.9944
-10 -3 -4 -6.9271 -3.4101
-10 -3 -3 19.3030 -4.8204
-10 -3 -2 8.1614 1.3023
-10 -3 -1 5.5485 -1.5218
-10 -2 -39 -9.4983 3.9907
-10 -2 -38 -13.1089 5.0410
-10 -2 -37 -1.1769 -9.7188
-10 -2 -36 -6.2628 -5.1473
-10 -2 -35 -1.0532 -7.3043
-10 -2 -34 -6.4772 -0.0683
-10 -2 -33 1.7747 5.4859
-10 -2 -32 -6.4099 2.7758
-10 -2 -31 5.1953 2.8183
-10 -2 -30 0.1306 3.1058
-10 -2 -29 1.8998 -0.1904
-10 -2 -28 14.5206 0.4111
-10 -2 -27 4.7678 2.0107
-10 -2 -26 3.6191 5.6273
-10 -2 -25 -7.8532 3.5546
-10 -2 -24 -2.3420 -3.9682
-10 -2 -23 -6.1886 -7.6022
-10 -2 -22 -17.9191 -4.4542
-10 -2 -21 -6.4502 -8.0748
-10 -2 -20 -15.1718 8.4410
-10 -2 -19 10.2350 -4.5394
-10 -2 -18 -19.1357 10.3671
-10 -2 -17 -3.2146 -5.3057
-10 -2 -16 -0.0999 3.9035
-10 -2 -15 -2.9946 -1.3016
-10 -2 -14 9.7422 5.4472
-10 -2 -13 6.1054 8.6100
-10 -2 -12 10.7167 9.0441
-10 -2 -11 0.3659 5.0127
-10 -2 -10 21.3730 1.6642
-10 -2 -9 -9.6058 2.3114
-10 -2 -8 14.3077 -5.5350
-10 -2 -7 -20.7930 4.1703
-10 -2 -6 -2.2833 -14.6253
-10 -2 -5 3.2425 4.6584
-10 -2 -4 -7.7759 2.2560
-10 -2 -3 -5.6357 0.6924
-10 -2 -2 4.6748 -1.2001
-10 -2 -1 3.6061 -9.9156
-10 -1 -39 6.1359 7.3947
-10 -1 -38 -7.8054 0.5677
-10 -1 -37 3.5299 14.9558
-10 -1 -36 2.1214 4.0071
-10 -1 -35 -3.2595 7.7756
-10 -1 -34 -2.7405 -2.8025
-10 -1 -33 -3.4375 6.0500
-10 -1 -32 0.6953 4.1136
-10 -1 -31 8.1921 0.7174
-10 -1 -30 5.2157 8.7914
-10 -1 -29 3.5862 -0.2201
-10 -1 -28 10.2953 3.0925
-10 -1 -27 -0.7268 -11.0722
-10 -1 -26 9.4538 -10.3003
-10 -1 -25 -1.0095 -4.6882
-10 -1 -24 4.9412 -8.9256
-10 -1 -23 1.1882 12.7948
-10 -1 -22 -7.7257 -6.7844
-10 -1 -21 -0.1515 22.8243
-10 -1 -20 -12.7704 -2.4742
-10 -1 -19 0.7128 16.1416
-10 -1 -18 -2.1495 12.5371
-10 -1 -17 1.4722 -2.1569
-10 -1 -16 1.1880 7.3692
-10 -1 -15 1.5285 10.6024
-10 -1 -14 -7.1366 2.6545
-10 -1 -13 3.4415 -12.1000
-10 -1 -12 1.5388 1.5614
-10 -1 -11 4.6014 -21.7857
-10 -1 -10 11.1896 8.3417
-10 -1 -9 -3.3242 -24.5406
-10 -1 -8 6.9078 -13.1781
-10 -1 -7 -3.1957 5.2928
-10 -1 -6 -4.0028 -0.8830
-10 -1 -5 3.1276 3.7506
-10 -1 -4 -5.9314 7.7161
-10 -1 -3 -3.0482 -1.5817
-10 -1 -2 9.6579 -1.1620
-10 -1 -1 1.5392 -0.7654
-9 -16 -10 6.6027 0.1835
-9 -16 -9 -0.5633 4.5237
-9 -16 -8 -1.9720 1.7761
-9 -16 -7 -2.6275 4.2670
-9 -16 -6 -2.5388 -7.4749
-9 -16 -5 7.4870 1.0407
-9 -16 -4 -0.7975 -2.4164
-9 -16 -3 11.9171 10.4252
-9 -16 -2 -3.7176 -12.6282
-9 -16 -1 3.6025 9.4977
-9 -15 -13 -1.9369 3.3175
-9 -15 -12 1.7976 1.1069
-9 -15 -11 -0.2125 -0.0315
-9 -15 -10 -1.5998 -1.4463
-9 -15 -9 -3.8387 -6.5122
-9 -15 -8 0.6305 -7.5212
-9 -15 -7 0.5885 0.4826
-9 -15 -6 5.1803 -3.1976
-9 -15 -5 -5.9192 13.1576
-9 -15 -4 8.3221 -6.7116
-9 -15 -3 -10.5616 -0.7946
-9 -15 -2 -1.8358 -1.5306
-9 -15 -1 4.4621 -4.5678
-9 -14 -16 -1.3095 7.5225
-9 -14 -15 2.7615 0.7576
-9 -14 -14 4.8292 2.3854
-9 -14 -13 4.0423 0.7655
-9 -14 -12 5.6062 -1.4898
-9 -14 -11 5.0889 -2.9427
-9 -14 -10 1.2931 -5.7703
-9 -14 -9 -1.5672 1.1685
-9 -14 -8 9.6445 1.5523
-9 -14 -7 -9.4750 -0.2185
-9 -14 -6 -0.1589 6.3356
-9 -14 -5 -3.6495 -5.6970
-9 -14 -4 0.9839 0.0359
-9 -14 -3 4.4417 3.9532
-9 -14 -2 3.8207 -4.0876
-9 -14 -1 -2.5174 0.1156
-9 -13 -18 -6.2164 1.3141
-9 -13 -17 -0.3927 4.9827
-9 -13 -16 -0.8037 4.5376
-9 -13 -15 0.4042 -0.9791
-9 -13 -14 3.2791 0.7662
-9 -13 -13 1.3990 4.9871
-9 -13 -12 1.1132 -2.2862
-9 -13 -11 -7.6347 -10.8271
-9 -13 -10 -0.3785 1.7195
-9 -13 -9 -5.4262 -5.6449
-9 -13 -8 -7.5389 -0.6451
-9 -13 -7 1.5317 -2.9296
-9 -13 -6 -1.4309 -9.1128
-9 -13 -5 0.2670 -3.2530
-9 -13 -4 -0.4629 5.5632
-9 -13 -3 -1.5383 0.2302
-9 -13 -2 4.4962 -3.5638
-9 -13 -1 -0.1213 1.3886
-9 -12 -21 -2.8600 0.5062
-9 -12 -20 -5.1152 -2.2899
-9 -12 -19 -4.0443 0.5040
-9 -12 -18 -1.0994 1.4443
-9 -12 -17 2.1906 -0.6579
-9 -12 -16 3.9434 3.2288
-9 -12 -15 -1.9089 2.1412
-9 -12 -14 1.2101 2.2617
-9 -12 -13 2.7828 -4.8046
-9 -12 -12 0.0314 1.3943
-9 -12 -11 5.0498 -2.0772
-9 -12 -10 3.3106 3.1343
-9 -12 -9 -11.2643 5.9114
-9 -12 -8 -0.3452 2.1089
-9 -12 -7 0.1327 9.5971
-9 -12 -6 -3.8041 3.2841
-9 -12 -5 -5.9665 -0.6857
-9 -12 -4 -2.0253 2.1821
-9 -12 -3 -9.3719 1.0858
-9 -12 -2 2.3478 1.0669
-9 -12 -1 -0.1427 3.0694
-9 -11 -31 -2.9798 -3.6878
-9 -11 -23 5.0396 -2.8045
-9 -11 -22 3.1241 -6.6445
-9 -11 -21 2.5932 -4.1296
-9 -11 -20 -0.1224 2.0442
-9 -11 -19 4.7042 4.1957
-9 -11 -18 3.1126 4.6009
-9 -11 -17 5.8331 -0.7345
-9 -11 -16 -1.8684 3.8671
-9 -11 -15 -2.8103 -1.4242
-9 -11 -14 -1.0559 -2.4706
-9 -11 -13 8.5664 -1.9793
-9 -11 -12 -2.7856 9.8897
-9 -11 -11 -0.4892 -5.2704
-9 -11 -10 1.2273 -1.9039
-9 -11 -9 -1.3299 -6.3079
-9 -11 -8 2.1416 -1.0986
-9 -11 -7 1.5469 1.6919
-9 -11 -6 5.0933 10.4383
-9 -11 -5 7.2277 -5.4257
-9 -11 -4 7.9470 2.6094
-9 -11 -3 -10.5527 5.2789
-9 -11 -2 4.3677 -0.1528
-9 -11 -1 0.3357 1.8310
-9 -10 -33 -4.4959 -0.6617
-9 -10 -32 8.5674 2.8887
-9 -10 -25 1.8457 -0.2020
-9 -10 -24 1.8686 -1.1592
-9 -10 -23 -0.5037 -1.1892
-9 -10 -22 1.1590 -3.7377
-9 -10 -21 -3.5356 -1.4759
-9 -10 -20 -5.0962 -1.7098
-9 -10 -19 0.2998 2.7158
-9 -10 -18 -0.7774 -2.7691
-9 -10 -17 2.8644 -7.6739
-9 -10 -16 1.9664 -9.7184
-9 -10 -15 5.6954 4.5628
-9 -10 -14 -3.2970 -4.8480
-9 -10 -13 4.7559 9.2800
-9 -10 -12 -0.9006 -0.0260
-9 -10 -11 0.0252 -3.4308
-9 -10 -10 5.3823 -2.2624
-9 -10 -9 5.7550 0.1563
-9 -10 -8 -10.6358 1.5306
-9 -10 -7 0.9573 -2.1412
-9 -10 -6 -2.1937 8.5539
-9 -10 -5 -1.1045 -7.5390
-9 -10 -4 9.1269 -1.2721
-9 -10 -3 0.1785 -9.9547
-9 -10 -2 0.3364 -1.7481
-9 -10 -1 -0.5170 3.8347
-9 -9 -34 0.5117 4.3991
-9 -9 -33 3.6468 -2.5005
-9 -9 -27 -1.3514 4.5680
-9 -9 -26 -1.9775 0.0348
-9 -9 -25 0.6332 -5.1693
-9 -9 -24 -2.8743 3.1795
-9 -9 -23 -2.8442 -2.1884
-9 -9 -22 -4.5945 -3.5614
-9 -9 -21 -1.0239 -1.1818
-9 -9 -20 -1.6475 -0.9129
-9 -9 -19 -1.0659 1.1831
-9 -9 -18 4.5257 3.6640
-9 -9 -17 -4.6280 1.2044
-9 -9 -16 10.7534 -5.4638
-9 -9 -15 -13.8549 0.4483
-9 -9 -14 -6.6429 0.9805
-9 -9 -13 1.9728 -9.8013
-9 -9 -12 8.6482 -3.0183
-9 -9 -11 1.6094 -2.4736
-9 -9 -10 -1.3981 -4.7572
-9 -9 -9 4.8377 3.6597
-9 -9 -8 -4.8722 -6.7574
-9 -9 -7 1.9917 -8.0707
-9 -9 -6 -1.5664 6.3622
-9 -9 -5 2.2056 -4.2685
-9 -9 -4 8.0643 1.5834
-9 -9 -3 -1.5357 -2.7912
-9 -9 -2 -12.2344 -2.9758
-9 -9 -1 -5.1253 -1.6403
-9 -8 -36 -0.8395 -0.2935
-9 -8 -35 4.9647 2.4463
-9 -8 -34 -5.8759 -4.2395
-9 -8 -33 -3.7915 -3.1319
-9 -8 -29 -4.2782 1.7721
-9 -8 -28 -1.4323 -3.3164
-9 -8 -27 0.5695 5.9276
-9 -8 -26 -4.0744 1.3429
-9 -8 -25 0.6762 4.0188
-9 -8 -24 -0.1571 -4.4357
-9 -8 -23 -5.0939 3.7419
-9 -8 -22 -2.5928 0.7930
-9 -8 -21 -0.0472 3.7522
-9 -8 -20 -4.2846 4.5408
-9 -8 -19 -7.2273 -3.5005
-9 -8 -18 -1.1914 12.2916
-9 -8 -17 2.1406 -6.1297
-9 -8 -16 -2.3137 -6.4444
-9 -8 -15 3.0520 -3.0289
-9 -8 -14 -9.1458 0.5615
-9 -8 -13 1.5262 -0.8613
-9 -8 -12 -0.5138 3.3251
-9 -8 -11 -11.1611 2.5233
-9 -8 -10 -10.0389 -7.4206
-9 -8 -9 -3.1109 -6.5305
-9 -8 -8 -5.0169 2.9363
-9 -8 -7 7.0324 -7.1484
-9 -8 -6 -9.6940 3.5826
-9 -8 -5 -4.5295 -0.3529
-9 -8 -4 -3.0128 -1.2591
-9 -8 -3 -6.4482 0.0224
-9 -8 -2 -0.5905 -3.2424
-9 -8 -1 1.8783 -4.1293
-9 -7 -37 -3.1839 4.0297
-9 -7 -36 1.5553 -3.5259
-9 -7 -35 -0.7639 -3.3753
-9 -7 -34 -2.2910 -5.1564
-9 -7 -33 4.2033 -0.1913
-9 -7 -31 -4.8960 2.2372
-9 -7 -30 4.1095 3.8117
-9 -7 -29 -2.3292 -3.8186
-9 -7 -28 3.4759 -1.5282
-9 -7 -27 -1.2175 1.3058
-9 -7 -26 5.3279 5.1440
-9 -7 -25 -1.8725 -1.3371
-9 -7 -24 5.0059 -0.3251
-9 -7 -23 -1.6273 -0.0750
-9 -7 -22 1.3168 8.1112
-9 -7 -21 -0.8447 1.7067
-9 -7 -20 -3.1740 3.4569
-9 -7 -19 4.7510 2.1561
-9 -7 -18 2.2022 2.5735
-9 -7 -17 -1.9518 13.6884
-9 -7 -16 2.3595 -0.8828
-9 -7 -15 4.5416 1.0988
-9 -7 -14 -9.8846 1.9334
-9 -7 -13 -11.6980 6.2040
-9 -7 -12 -4.1971 1.8160
-9 -7 -11 9.5089 2.1336
-9 -7 -10 -9.5268 -0.6320
-9 -7 -9 6.8952 17.7607
-9 -7 -8 -4.0140 4.4978
-9 -7 -7 -2.4511 5.5796
-9 -7 -6 -2.3294 -0.2947
-9 -7 -5 -8.4841 -5.3561
-9 -7 -4 1.2112 4.2238
-9 -7 -3 6.5548 7.1139
-9 -7 -2 2.1827 -0.3478
-9 -7 -1 -8.2597 7.3647
-9 -6 -38 -0.8100 -0.2309
-9 -6 -37 0.9311 -3.1253
-9 -6 -36 1.5894 -2.5305
-9 -6 -35 0.7254 4.4120
-9 -6 -34 -3.5641 3.4328
-9 -6 -33 -1.7190 -0.2848
-9 -6 -32 -8.5489 2.1286
-9 -6 -31 3.2763 -4.4348
-9 -6 -30 -0.3905 -1.6047
-9 -6 -29 5.3530 2.8974
-9 -6 -28 0.7042 5.8833
-9 -6 -27 0.4565 -2.4126
-9 -6 -26 -3.0086 0.8462
-9 -6 -25 6.8864 -4.6456
-9 -6 -24 -1.8412 7.6431
-9 -6 -23 3.8501 -9.0506
-9 -6 -22 -5.8168 2.3552
-9 -6 -21 1.8352 4.4745
-9 -6 -20 13.1857 1.2369
-9 -6 -19 3.0479 -1.0675
-9 -6 -18 2.3612 0.6355
-9 -6 -17 1.3227 8.8974
-9 -6 -16 8.4690 0.8494
-9 -6 -15 8.9450 -0.5252
-9 -6 -14 6.7371 -2.3098
-9 -6 -13 -2.7284 12.1494
-9 -6 -12 10.3461 -6.1839
-9 -6 -11 1.2381 18.5948
-9 -6 -10 6.9756 8.0223
-9 -6 -9 -2.8745 -3.9275
-9 -6 -8 2.0543 1.3096
-9 -6 -7 12.8249 -6.5300
-9 -6 -6 3.6545 0.9321
-9 -6 -5 -5.3969 0.6213
-9 -6 -4 0.5585 2.9957
-9 -6 -3 -7.6632 -0.8742
-9 -6 -2 2.4031 9.3244
-9 -6 -1 -1.9457 -10.5083
-9 -5 -39 2.8303 10.7298
-9 -5 -38 -2.6770 4.2855
-9 -5 -37 -7.8941 5.0607
-9 -5 -36 -5.6040 0.6564
-9 -5 -35 -4.5240 2.1510
-9 -5 -34 -2.1331 -6.2343
-9 -5 -33 0.0146 3.3890
-9 -5 -32 8.0355 -2.2423
-9 -5 -31 -0.1052 3.7582
-9 -5 -30 -2.2467 5.1042
-9 -5 -29 -2.0635 2.5140
-9 -5 -28 -2.1511 -3.5883
-9 -5 -27 8.6424 -1.5587
-9 -5 -26 -4.7899 -8.6123
-9 -5 -25 15.8409 3.8549
-9 -5 -24 -4.8727 -2.7910
-9 -5 -23 -1.5635 -7.4108
-9 -5 -22 6.7047 -0.1990
-9 -5 -21 -0.7462 -0.1657
-9 -5 -20 3.6509 3.3771
-9 -5 -19 0.3092 -6.6724
-9 -5 -18 5.2438 -11.2644
-9 -5 -17 1.9045 -4.7259
-9 -5 -16 -0.2059 1.1278
-9 -5 -15 1.2868 -9.3777
-9 -5 -14 23.3378 -5.7916
-9 -5 -13 -1.2183 -12.5738
-9 -5 -12 -4.6866 -1.0527
-9 -5 -11 11.7449 -5.2419
-9 -5 -10 1.5849 -11.3755
-9 -5 -9 12.6078 1.2060
-9 -5 -8 4.8919 -2.6646
-9 -5 -7 2.0786 -2.0554
-9 -5 -6 1.1672 3.1179
-9 -5 -5 -4.7104 -7.4957
-9 -5 -4 -11.8937 4.3840
-9 -5 -3 -2.8787 2.4798
-9 -5 -2 7.5419 11.5883
-9 -5 -1 -10.5557 -0.0297
-9 -4 -40 8.7697 1.5242
-9 -4 -39 0.1834 -4.2822
-9 -4 -38 1.7684 -4.3142
-9 -4 -37 4.5506 -3.8462
-9 -4 -36 10.6494 5.8910
-9 -4 -35 4.0385 2.4760
-9 -4 -34 3.4375 11.1172
-9 -4 -33 0.8959 3.4940
-9 -4 -32 -2.5150 6.8299
-9 -4 -31 -0.0999 2.2502
-9 -4 -30 -4.4030 -4.6768
-9 -4 -29 -1.7794 2.0452
-9 -4 -28 7.0227 -4.3114
-9 -4 -27 -0.0785 14.5257
-9 -4 -26 -4.5375 -6.0297
-9 -4 -25 -5.0011 -8.9244
-9 -4 -24 -5.8795 5.2369
-9 -4 -23 1.9768 -8.9581
-9 -4 -22 -4.6651 -5.0901
-9 -4 -21 -5.0361 -5.3365
-9 -4 -20 -2.7338 -0.6141
-9 -4 -19 0.8739 2.0270
-9 -4 -18 0.3267 -11.7534
-9 -4 -17 -3.4066 -4.8793
-9 -4 -16 -7.8228 7.3452
-9 -4 -15 -1.9536 -0.3609
-9 -4 -14 -2.0024 -8.1207
-9 -4 -13 -10.5731 4.4201
-9 -4 -12 -2.5906 -20.1765
-9 -4 -11 -13.6748 -5.5887
-9 -4 -10 3.1548 -0.7596
-9 -4 -9 -7.4348 -1.2236
-9 -4 -8 -10.5179 -1.3303
-9 -4 -7 0.7271 -10.1049
-9 -4 -6 2.5375 -5.5936
-9 -4 -5 3.9782 -1.3752
-9 -4 -4 -3.7481 6.3437
-9 -4 -3 4.9794 -8.0250
-9 -4 -2 -3.0434 23.1490
-9 -4 -1 15.3114 7.7511
-9 -3 -41 1.3119 -2.3853
-9 -3 -40 1.4493 -4.5773
-9 -3 -39 5.8356 -3.2204
-9 -3 -38 0.2423 -4.4654
-9 -3 -37 0.6723 -0.2804
-9 -3 -36 -6.1248 -1.8591
-9 -3 -35 -0.5845 -0.0482
-9 -3 -34 -0.4878 -7.4291
-9 -3 -33 1.1855 -4.9642
-9 -3 -32 5.7870 -5.9246
-9 -3 -31 5.6165 -0.6811
-9 -3 -30 9.6808 2.1559
-9 -3 -29 -2.0646 2.3207
-9 -3 -28 0.1693 9.0156
-9 -3 -27 8.9059 5.6572
-9 -3 -26 -6.3731 -0.5385
-9 -3 -25 8.2485 1.8235
-9 -3 -24 1.4317 4.3651
-9 -3 -23 -4.0128 7.0100
-9 -3 -22 0.4515 0.9750
-9 -3 -21 -8.6683 -1.5237
-9 -3 -20 1.6674 2.7779
-9 -3 -19 -10.8768 3.6158
-9 -3 -18 -3.5337 2.0266
-9 -3 -17 0.7227 -8.0206
-9 -3 -16 2.7750 4.2126
-9 -3 -15 -18.6177 -8.9839
-9 -3 -14 11.2062 6.6496
-9 -3 -13 7.9612 -7.3458
-9 -3 -12 1.6805 12.1766
-9 -3 -11 -4.7904 -0.0486
-9 -3 -10 -6.8581 4.8655
-9 -3 -9 -1.2079 -1.3013
-9 -3 -8 4.3502 3.7704
-9 -3 -7 -3.6788 2.5691
-9 -3 -6 -2.7785 3.3730
-9 -3 -5 7.4284 4.5007
-9 -3 -4 -9.8552 -12.7242
-9 -3 -3 0.2794 2.6649
-9 -3 -2 -0.6731 -8.6059
-9 -3 -1 15.2604 9.5274
-9 -2 -41 -0.5459 -8.5013
-9 -2 -40 7.0816 -1.3394
-9 -2 -39 -0.8107 -2.7068
-9 -2 -38 1.3886 -1.9635
-9 -2 -37 -11.5774 -5.2061
-9 -2 -36 -3.1737 -1.5897
-9 -2 -35 4.7365 -0.2525
-9 -2 -34 2.8637 2.1754
-9 -2 -33 0.3505 2.4843
-9 -2 -32 -2.6182 4.0307
-9 -2 -31 -0.5950 4.8064
-9 -2 -30 -7.7589 -5.0253
-9 -2 -29 -1.4736 5.4113
-9 -2 -28 -0.7267 -10.2566
-9 -2 -27 9.3201 5.0744
-9 -2 -26 12.4446 3.8556
-9 -2 -25 9.0740 -10.3626
-9 -2 -24 5.3090 -0.7184
-9 -2 -23 2.3458 -6.0696
-9 -2 -22 3.7235 4.7171
-9 -2 -21 2.0687 -7.0820
-9 -2 -20 -2.7964 -4.3818
-9 -2 -19 7.2641 5.8784
-9 -2 -18 -11.5755 10.6016
-9 -2 -17 10.8801 -7.2238
-9 -2 -16 -12.3721 5.1037
-9 -2 -15 -2.8123 2.2843
-9 -2 -14 -12.2170 -0.0073
-9 -2 -13 -1.5397 0.7500
-9 -2 -12 -10.9041 0.6043
-9 -2 -11 5.3960 -17.6788
-9 -2 -10 -3.9008 -0.2923
-9 -2 -9 6.0594 -12.7898
-9 -2 -8 -1.6600 3.1967
-9 -2 -7 -12.7618 -5.0516
-9 -2 -6 3.8973 -8.1560
-9 -2 -5 -4.3135 -3.9853
-9 -2 -4 4.4752 7.6913
-9 -2 -3 -4.7204 -2.4470
-9 -2 -2 -3.9721 -15.5606
-9 -2 -1 -0.3061 17.0717
-9 -1 -41 0.1852 -4.3911
-9 -1 -40 -11.1960 3.2707
-9 -1 -39 -6.4418 -8.6571
-9 -1 -38 -5.2164 -3.2862
-9 -1 -37 -2.0215 3.0838
-9 -1 -36 -4.4153 -2.5174
-9 -1 -35 -3.4722 10.5108
-9 -1 -34 -1.2159 3.2511
-9 -1 -33 -4.2755 -3.5480
-9 -1 -32 7.7607 -10.0821
-9 -1 -31 -4.1653 -0.5814
-9 -1 -30 12.3759 -3.0346
-9 -1 -29 6.7794 4.0935
-9 -1 -28 -2.5158 4.6170
-9 -1 -27 11.7145 4.5992
-9 -1 -26 1.8409 1.7224
-9 -1 -25 9.6862 -13.0621
-9 -1 -24 1.2434 -11.9148
-9 -1 -23 -6.7733 -11.5538
-9 -1 -22 0.1911 -5.0706
-9 -1 -21 -10.8852 5.6306
-9 -1 -20 -2.5286 -10.1565
-9 -1 -19 -2.0069 10.8401
-9 -1 -18 -6.8056 -8.1379
-9 -1 -17 -6.7078 1.6569
-9 -1 -16 7.3617 3.4477
-9 -1 -15 2.3361 5.3792
-9 -1 -14 -15.0507 2.9414
-9 -1 -13 10.2337 18.5792
-9 -1 -12 -9.1623 -0.0062
-9 -1 -11 13.6588 14.2471
-9 -1 -10 -18.6301 6.0910
-9 -1 -9 -7.4630 -5.0355
-9 -1 -8 -13.6070 6.7289
-9 -1 -7 0.2054 -3.8193
-9 -1 -6 -22.0716 2.0925
-9 -1 -5 -4.8137 14.4098
-9 -1 -4 1.4833 4.9937
-9 -1 -3 -11.0082 7.4407
-9 -1 -2 10.0893 -4.6858
-9 -1 -1 -9.9457 2.5998
-8 -17 -3 -1.8467 -3.1069
-8 -17 -2 5.4685 3.3678
-8 -17 -1 2.8769 8.0090
-8 -16 -11 10.1296 -4.4348
-8 -16 -10 -2.0771 -3.0772
-8 -16 -9 9.6314 2.7441
-8 -16 -8 1.1310 -3.1551
-8 -16 -7 -3.8174 -3.2534
-8 -16 -6 -1.5386 1.6670
-8 -16 -5 3.3963 -5.5456
-8 -16 -4 3.6973 4.6588
-8 -16 -3 2.3671 -1.2086
-8 -16 -2 2.4815 -6.4585
-8 -16 -1 5.9782 -1.4698
-8 -15 -13 2.2799 5.0621
-8 -15 -12 10.0546 -4.4220
-8 -15 -11 -1.0583 6.2107
-8 -15 -10 0.3684 4.3326
-8 -15 -9 -2.6910 -4.6447
-8 -15 -8 -7.0402 -2.6686
-8 -15 -7 5.6054 -5.0664
-8 -15 -6 -6.4174 -2.6409
-8 -15 -5 -2.1539 -1.0554
-8 -15 -4 1.9861 -2.7717
-8 -15 -3 -3.9378 7.4040
-8 -15 -2 4.2225 -4.8273
-8 -15 -1 -1.5032 -3.3912
-8 -14 -16 -3.5567 -3.7524
-8 -14 -15 -7.1899 2.8186
-8 -14 -14 2.1773 14.1741
-8 -14 -13 -0.5198 1.0794
-8 -14 -12 -8.1048 3.4460
-8 -14 -11 -1.0708 -1.1606
-8 -14 -10 -6.0881 -9.5837
-8 -14 -9 2.1610 -2.5642
-8 -14 -8 3.1494 -6.6120
-8 -14 -7 -4.5418 6.3491
-8 -14 -6 3.7365 4.3874
-8 -14 -5 -5.3801 -5.4228
-8 -14 -4 2.1288 4.8874
-8 -14 -3 -4.5993 3.9981
-8 -14 -2 -3.6177 -3.8647
-8 -14 -1 -0.9281 1.7956
-8 -13 -27 -10.3046 -11.1241
-8 -13 -18 4.4636 -1.8298
-8 -13 -17 4.1591 4.2328
-8 -13 -16 -8.1442 4.8481
-8 -13 -15 4.1502 8.1560
-8 -13 -14 1.9211 2.8841
-8 -13 -13 4.2563 9.0567
-8 -13 -12 3.6493 -3.5676
-8 -13 -11 4.1174 -0.6855
-8 -13 -10 8.2875 5.5384
-8 -13 -9 -6.0987 -1.5426
-8 -13 -8 -9.9084 7.2013
-8 -13 -7 -4.9767 -4.1991
-8 -13 -6 -6.7000 1.2492
-8 -13 -5 -0.4071 -1.1346
-8 -13 -4 4.2037 -2.7075
-8 -13 -3 -4.0344 -14.3229
-8 -13 -2 0.9845 8.4376
-8 -13 -1 6.5492 -4.0658
-8 -12 -30 0.5562 -0.8225
-8 -12 -29 12.2425 -14.2193
-8 -12 -21 4.8156 -3.8532
-8 -12 -20 6.7540 0.3418
-8 -12 -19 -5.9840 4.0108
-8 -12 -18 1.4996 -0.9082
-8 -12 -17 0.6674 6.4329
-8 -12 -16 6.6069 1.1545
-8 -12 -15 -1.0494 2.9789
-8 -12 -14 4.7560 -1.9011
-8 -12 -13 2.5344 -0.3571
-8 -12 -12 2.3947 0.6666
-8 -12 -11 7.1656 -2.4023
-8 -12 -10 -3.1121 -0.8929
-8 -12 -9 -1.6156 0.3442
-8 -12 -8 -0.2105 -5.5195
-8 -12 -7 -1.0688 0.8986
-8 -12 -6 -6.6718 13.1904
-8 -12 -5 3.3544 6.7415
-8 -12 -4 -8.7391 4.4545
-8 -12 -3 5.6807 8.0201
-8 -12 -2 -13.7483 0.7268
-8 -12 -1 -9.2585 0.6572
-8 -11 -32 -6.0335 -2.2201
-8 -11 -31 5.8528 9.7221
-8 -11 -30 0.2157 -7.9708
-8 -11 -23 1.8016 3.4913
-8 -11 -22 0.4788 4.7753
-8 -11 -21 1.5299 -3.7219
-8 -11 -20 -1.0566 -1.7065
-8 -11 -19 -4.7707 -7.0240
-8 -11 -18 0.2734 -0.9993
-8 -11 -17 2.0336 0.7903
-8 -11 -16 5.9657 7.3297
-8 -11 -15 0.9366 -5.5994
-8 -11 -14 2.9277 -6.6552
-8 -11 -13 4.2131 -0.1557
-8 -11 -12 2.0796 6.8292
-8 -11 -11 -4.6402 -4.0330
-8 -11 -10 0.5775 -0.4429
-8 -11 -9 5.7681 0.5469
-8 -11 -8 -0.5066 -0.4101
-8 -11 -7 2.1532 5.0324
-8 -11 -6 -0.6908 -1.9242
-8 -11 -5 0.0181 9.8725
-8 -11 -4 9.2923 8.7645
-8 -11 -3 9.5679 8.2617
-8 -11 -2 7.1109 -7.3717
-8 -11 -1 4.6676 10.5968
-8 -10 -34 7.0209 -6.3916
-8 -10 -33 -2.4296 -3.2100
-8 -10 -32 3.5139 -5.2308
-8 -10 -31 -6.5687 1.0093
-8 -10 -30 2.2486 0.5558
-8 -10 -25 -5.3914 4.8968
-8 -10 -24 -1.2317 1.3680
-8 -10 -23 -5.9551 3.5491
-8 -10 -22 -3.8367 -2.0778
-8 -10 -21 0.8187 0.5601
-8 -10 -20 5.5933 3.2133
-8 -10 -19 5.7215 1.5342
-8 -10 -18 -8.0228 5.9525
-8 -10 -17 0.0604 -0.3324
-8 -10 -16 -0.1168 0.6936
-8 -10 -15 6.8134 -3.2036
-8 -10 -14 -2.0169 -0.4590
-8 -10 -13 7.7397 -3.3826
-8 -10 -12 -6.5591 -2.5398
-8 -10 -11 -0.4626 -0.8588
-8 -10 -10 8.3462 -4.8346
-8 -10 -9 1.5206 2.2829
-8 -10 -8 0.0880 1.0747
-8 -10 -7 5.2860 -3.0296
-8 -10 -6 -0.9741 -3.6388
-8 -10 -5 4.6717 -0.3404
-8 -10 -4 1.2509 -3.5064
-8 -10 -3 6.5745 -4.9735
-8 -10 -2 13.4975 -2.4068
-8 -10 -1 6.4484 -10.1424
-8 -9 -36 -0.5883 3.8996
-8 -9 -35 -1.8725 6.5532
-8 -9 -34 5.0172 3.9343
-8 -9 -33 0.0761 -1.5014
-8 -9 -32 -4.7171 -1.4092
-8 -9 -31 -5.0509 -2.9170
-8 -9 -27 -5.1438 -0.9924
-8 -9 -26 -1.6894 8.9685
-8 -9 -25 0.1806 -0.3326
-8 -9 -24 7.2669 7.0529
-8 -9 -23 3.1166 0.8540
-8 -9 -22 -3.0558 4.8071
-8 -9 -21 3.4757 6.1516
-8 -9 -20 -4.9998 0.7973
-8 -9 -19 3.8681 5.4357
-8 -9 -18 -1.2711 -7.8771
-8 -9 -17 6.1859 -5.2013
-8 -9 -16 1.9730 -1.6442
-8 -9 -15 4.1351 13.7934
-8 -9 -14 -0.9521 -6.0995
-8 -9 -13 -4.9620 -10.3586
-8 -9 -12 2.2512 -1.1436
-8 -9 -11 1.9816 -0.7647
-8 -9 -10 -2.4256 -6.3234
-8 -9 -9 -3.3550 2.6039
-8 -9 -8 -1.1073 -9.5925
-8 -9 -7 -0.4667 9.1923
-8 -9 -6 5.6209 -13.6783
-8 -9 -5 -0.3016 -0.8699
-8 -9 -4 -2.0225 -4.4374
-8 -9 -3 -1.4153 3.5434
-8 -9 -2 -3.2175 -3.6011
-8 -9 -1 -4.8485 -7.9564
-8 -8 -38 2.9157 4.8766
-8 -8 -37 -1.2154 -2.6909
-8 -8 -36 8.7699 5.5383
-8 -8 -35 -0.1510 3.1804
-8 -8 -34 3.5348 0.7292
-8 -8 -33 9.9983 -2.1872
-8 -8 -32 -0.9735 -0.5384
-8 -8 -29 5.9576 -1.6069
-8 -8 -28 -1.4200 -1.2390
-8 -8 -27 12.6991 -0.8643
-8 -8 -26 2.1659 1.7419
-8 -8 -25 6.4065 4.1194
-8 -8 -24 1.4928 -2.9038
-8 -8 -23 6.0947 3.4510
-8 -8 -22 4.1089 -11.8091
-8 -8 -21 -1.6000 1.5339
-8 -8 -20 3.5857 -1.1857
-8 -8 -19 5.8677 9.8690
-8 -8 -18 4.6121 -0.8144
-8 -8 -17 -6.2112 4.3597
-8 -8 -16 -3.5761 3.0045
-8 -8 -15 -0.7735 -3.5763
-8 -8 -14 0.3188 -4.3791
-8 -8 -13 2.5390 -4.7253
-8 -8 -12 8.3073 -2.2345
-8 -8 -11 -14.3462 5.7370
-8 -8 -10 0.5688 -0.2704
-8 -8 -9 -14.3695 -7.5131
-8 -8 -8 10.7889 4.4050
-8 -8 -7 -11.7443 -2.5092
-8 -8 -6 5.3532 2.3679
-8 -8 -5 -0.1281 -6.0787
-8 -8 -4 -1.8517 -3.9123
-8 -8 -3 -6.7456 -2.0225
-8 -8 -2 -3.5827 -1.7754
-8 -8 -1 4.8875 4.1690
-8 -7 -39 3.8495 -6.0511
-8 -7 -38 0.4617 4.7364
-8 -7 -37 6.6936 -4.1842
-8 -7 -36 5.8106 -1.5864
-8 -7 -35 0.0944 1.9103
-8 -7 -34 -0.3759 -6.3587
-8 -7 -33 4.1187 4.4820
-8 -7 -32 -3.2164 -2.4532
-8 -7 -31 1.4160 2.2594
-8 -7 -30 -2.4508 -8.3492
-8 -7 -29 -1.5379 2.1719
-8 -7 -28 0.9874 -2.4711
-8 -7 -27 -2.6492 1.9510
-8 -7 -26 -1.4297 -1.0614
-8 -7 -25 -6.2297 1.0055
-8 -7 -24 5.5837 -8.9579
-8 -7 -23 1.3594 -2.6929
-8 -7 -22 6.3356 -1.6921
-8 -7 -21 -9.8147 -1.3879
-8 -7 -20 0.4738 -2.2073
-8 -7 -19 -0.2559 -0.0093
-8 -7 -18 5.1485 1.2800
-8 -7 -17 8.6663 -1.1058
-8 -7 -16 3.2667 -4.8075
-8 -7 -15 8.4497 0.5429
-8 -7 -14 11.9914 20.8614
-8 -7 -13 -5.2419 -6.6712
-8 -7 -12 -10.6130 0.3001
-8 -7 -11 -1.9644 -9.8137
-8 -7 -10 -8.8385 11.1648
-8 -7 -9 10.8987 -6.5077
-8 -7 -8 -5.1233 9.4324
-8 -7 -7 0.3056 5.7191
-8 -7 -6 -0.9936 4.8431
-8 -7 -5 -4.5097 -3.8101
-8 -7 -4 -3.2836 -4.5264
-8 -7 -3 -6.3356 -4.0626
-8 -7 -2 -3.1474 6.6037
-8 -7 -1 1.2581 1.1157
-8 -6 -40 -2.7489 0.3795
-8 -6 -39 1.6983 1.8556
-8 -6 -38 0.5409 1.7494
-8 -6 -37 -3.0091 -6.6535
-8 -6 -36 2.4598 -6.9928
-8 -6 -35 -0.9746 -6.1912
-8 -6 -34 -2.7365 -7.8351
-8 -6 -33 -3.9638 -0.2919
-8 -6 -32 1.4836 -0.4597
-8 -6 -31 -0.5175 1.3423
-8 -6 -30 5.3792 -1.7630
-8 -6 -29 5.4315 1.3011
-8 -6 -28 -3.0873 -1.6820
-8 -6 -27 -8.5757 3.5505
-8 -6 -26 7.8050 -1.2479
-8 -6 -25 2.1520 -0.8257
-8 -6 -24 4.2402 7.9726
-8 -6 -23 0.4393 -0.5678
-8 -6 -22 -1.0527 2.6787
-8 -6 -21 -1.0630 -8.5007
-8 -6 -20 -3.1972 -4.9191
-8 -6 -19 -1.5693 4.7618
-8 -6 -18 7.2799 -2.3164
-8 -6 -17 5.2112 -7.4915
-8 -6 -16 -10.8483 -3.4869
-8 -6 -15 5.2276 -6.7592
-8 -6 -14 -2.1343 -8.0919
-8 -6 -13 7.8406 -5.1831
-8 -6 -12 7.0847 -21.8803
-8 -6 -11 12.5951 11.2893
-8 -6 -10 -2.8468 8.4700
-8 -6 -9 -4.4691 8.7789
-8 -6 -8 0.7717 2.3876
-8 -6 -7 7.8224 -5.2148
-8 -6 -6 -1.9132 2.4742
-8 -6 -5 10.2704 -2.3110
-8 -6 -4 -4.1432 -0.9202
-8 -6 -3 6.9757 2.9467
-8 -6 -2 -10.7147 9.5611
-8 -6 -1 -7.3603 -2.6410
-8 -5 -41 -4.7395 -3.9953
-8 -5 -40 -4.8138 1.5040
-8 -5 -39 2.4149 1.7353
-8 -5 -38 -0.7110 1.3703
-8 -5 -37 0.6869 3.3909
-8 -5 -36 -1.4989 -4.6239
-8 -5 -35 -5.6892 -0.7631
-8 -5 -34 -8.2769 0.1054
-8 -5 -33 -11.2547 -1.2639
-8 -5 -32 -2.1026 1.5054
-8 -5 -31 -9.9727 9.9412
-8 -5 -30 6.2920 2.4897
-8 -5 -29 -5.9527 -2.9863
-8 -5 -28 1.6717 1.6233
-8 -5 -27 -0.4131 -5.7090
-8 -5 -26 -2.0686 1.5059
-8 -5 -25 2.9901 5.7496
-8 -5 -24 -7.7918 -1.4268
-8 -5 -23 1.3864 -3.4575
-8 -5 -22 5.7281 -7.1906
-8 -5 -21 6.4354 -3.0793
-8 -5 -20 -2.1084 5.9484
-8 -5 -19 -4.3560 -5.6711
-8 -5 -18 -5.3154 -0.1172
-8 -5 -17 -0.0115 4.0395
-8 -5 -16 -4.1782 -3.7912
-8 -5 -15 -15.8050 -8.2363
-8 -5 -14 6.7938 5.0010
-8 -5 -13 -6.0289 10.2068
-8 -5 -12 -5.6668 1.3603
-8 -5 -11 -8.5404 -14.3568
-8 -5 -10 -9.0936 -7.4188
-8 -5 -9 5.6180 -0.1336
-8 -5 -8 4.9268 -13.6748
-8 -5 -7 9.7184 7.0474
-8 -5 -6 -0.7992 -10.3731
-8 -5 -5 4.4929 11.2607
-8 -5 -4 -5.3671 -7.2095
-8 -5 -3 3.5163 -3.4998
-8 -5 -2 -9.3086 -5.3791
-8 -5 -1 -2.4952 13.4309
-8 -4 -41 2.8650 5.3551
-8 -4 -40 -0.3579 4.3437
-8 -4 -39 -9.1170 10.5239
-8 -4 -38 0.6946 4.6917
-8 -4 -37 -0.7191 0.5109
-8 -4 -36 -0.1858 -0.0054
-8 -4 -35 -0.3335 1.8252
-8 -4 -34 -1.8039 10.1375
-8 -4 -33 -6.3752 -4.9820
-8 -4 -32 1.3962 13.2828
-8 -4 -31 -1.7750 5.7895
-8 -4 -30 0.7111 10.4867
-8 -4 -29 9.6195 6.4488
-8 -4 -28 12.3247 -1.1626
-8 -4 -27 -0.2352 7.0345
-8 -4 -26 2.0755 -2.1810
-8 -4 -25 -0.1173 2.0285
-8 -4 -24 6.9295 -5.1822
-8 -4 -23 4.6898 8.5831
-8 -4 -22 -7.6813 1.9421
-8 -4 -21 14.1453 2.5183
-8 -4 -20 -8.3064 -8.4029
-8 -4 -19 -3.9745 -6.5980
-8 -4 -18 -8.6476 -0.5986
-8 -4 -17 7.5376 -1.0303
-8 -4 -16 -0.3609 5.3006
-8 -4 -15 -0.9974 0.2689
-8 -4 -14 -2.8255 5.8783
-8 -4 -13 5.3168 8.8496
-8 -4 -12 -0.5755 -1.8920
-8 -4 -11 5.5923 -4.4672
-8 -4 -10 15.7474 0.5365
-8 -4 -9 -12.9293 10.3210
-8 -4 -8 3.5120 -4.3016
-8 -4 -7 -10.0111 -0.2804
-8 -4 -6 -0.4649 -7.7117
-8 -4 -5 -2.7103 1.8419
-8 -4 -4 -1.8204 -7.0623
-8 -4 -3 -2.7056 -4.9181
-8 -4 -2 21.7106 -3.4994
-8 -4 -1 -15.2248 10.0244
-8 -3 -42 5.0938 1.0356
-8 -3 -41 -1.1131 -5.7800
-8 -3 -40 1.9371 -6.7701
-8 -3 -39 6.1343 -5.9545
-8 -3 -38 6.2963 0.4746
-8 -3 -37 7.8132 6.4524
-8 -3 -36 4.5065 2.9734
-8 -3 -35 10.2037 0.1627
-8 -3 -34 0.5325 5.7582
-8 -3 -33 6.9789 0.8794
-8 -3 -32 7.2250 6.4502
-8 -3 -31 -1.8676 0.2868
-8 -3 -30 6.2856 8.5879
-8 -3 -29 2.8845 -3.2074
-8 -3 -28 13.8841 -1.2189
-8 -3 -27 1.5822 -10.3434
-8 -3 -26 8.5885 -6.7957
-8 -3 -25 -1.8219 -2.4568
-8 -3 -24 6.9846 -13.4529
-8 -3 -23 -5.9691 9.0939
-8 -3 -22 -2.7240 -15.3661
-8 -3 -21 3.6079 -2.9902
-8 -3 -20 8.4767 -8.5897
-8 -3 -19 -3.4397 1.5824
-8 -3 -18 -3.6765 -3.9456
-8 -3 -17 -5.8101 6.3002
-8 -3 -16 -4.3200 14.8880
-8 -3 -15 -1.4569 2.2017
-8 -3 -14 -4.8740 -11.6148
-8 -3 -13 7.1280 -1.7760
-8 -3 -12 2.3762 11.3824
-8 -3 -11 -2.1293 -5.2024
-8 -3 -10 0.3768 -2.1815
-8 -3 -9 -5.1923 -8.8923
-8 -3 -8 -1.9399 -7.9917
-8 -3 -7 0.7789 0.1091
-8 -3 -6 -1.9085 -11.0824
-8 -3 -5 -7.8996 -5.4082
-8 -3 -4 -2.4908 16.8663
-8 -3 -3 -8.3098 -8.2429
-8 -3 -2 3.4915 0.2560
-8 -3 -1 -11.0668 -2.6206
-8 -2 -42 7.6595 3.6039
-8 -2 -41 6.7719 0.9954
-8 -2 -40 1.1595 -8.2526
-8 -2 -39 -5.6797 -5.8076
-8 -2 -38 -7.6918 1.9555
-8 -2 -37 -7.9470 -2.4433
-8 -2 -36 -3.5593 -6.0657
-8 -2 -35 4.0267 -7.8269
-8 -2 -34 -5.8852 -0.9533
-8 -2 -33 9.8388 -10.6041
-8 -2 -32 -3.0975 -7.9388
-8 -2 -31 8.9333 -11.9918
-8 -2 -30 2.5354 0.6308
-8 -2 -29 4.3391 -2.0339
-8 -2 -28 4.0078 2.3241
-8 -2 -27 -2.8147 -3.8448
-8 -2 -26 1.7627 -1.3562
-8 -2 -25 -14.1480 -5.4390
-8 -2 -24 4.0104 -4.5731
-8 -2 -23 1.0124 -5.0248
-8 -2 -22 -7.2307 4.6660
-8 -2 -21 -10.5779 -2.3133
-8 -2 -20 -4.0019 10.0541
-8 -2 -19 -1.5418 -3.8432
-8 -2 -18 -16.9462 -10.5970
-8 -2 -17 0.1091 3.7860
-8 -2 -16 6.2924 -6.6052
-8 -2 -15 11.9750 11.5722
-8 -2 -14 8.4028 -1.7389
-8 -2 -13 3.8113 3.6332
-8 -2 -12 2.0201 3.8058
-8 -2 -11 -4.7674 -0.3633
-8 -2 -10 12.7757 -6.7959
-8 -2 -9 1.1757 6.8451
-8 -2 -8 4.9756 5.4556
-8 -2 -7 -4.7314 -1.1235
-8 -2 -6 -13.3406 1.5328
-8 -2 -5 1.9264 -3.6620
-8 -2 -4 -13.9223 15.9720
-8 -2 -3 -14.1873 3.7727
-8 -2 -2 2.6382 10.3940
-8 -2 -1 16.2928 2.9463
-8 -1 -43 1.3211 -0.3080
-8 -1 -42 7.4210 -3.4685
-8 -1 -41 9.9061 -0.1631
-8 -1 -40 -0.9079 -5.1924
-8 -1 -39 2.1820 -6.9254
-8 -1 -38 -8.4564 -1.0642
-8 -1 -37 -2.0556 8.3475
-8 -1 -36 -3.8204 2.0404
-8 -1 -35 4.3214 18.7701
-8 -1 -34 -1.6746 -2.2471
-8 -1 -33 -2.2650 10.1834
-8 -1 -32 -1.2475 4.0544
-8 -1 -31 -5.3261 -2.5374
-8 -1 -30 -10.4243 0.5043
-8 -1 -29 -14.2640 -3.3106
-8 -1 -28 0.0782 0.2180
-8 -1 -27 3.9154 -5.0521
-8 -1 -26 2.6017 -2.8691
-8 -1 -25 6.2204 9.0770
-8 -1 -24 -2.2145 -2.5368
-8 -1 -23 8.0591 2.0162
-8 -1 -22 -9.1959 -6.8738
-8 -1 -21 -1.1959 3.5340
-8 -1 -20 9.0793 -5.1059
-8 -1 -19 -2.8378 15.9965
-8 -1 -18 13.7900 6.2546
-8 -1 -17 -13.0747 3.7211
-8 -1 -16 -0.7280 2.8984
-8 -1 -15 -9.5499 -0.3014
-8 -1 -14 -2.4942 4.4951
-8 -1 -13 0.4810 -26.8360
-8 -1 -12 4.8513 -4.1707
-8 -1 -11 -2.8723 -6.2585
-8 -1 -10 0.7745 -2.0934
-8 -1 -9 3.1613 -8.2138
-8 -1 -8 -7.0501 -17.3329
-8 -1 -7 8.1473 -3.6663
-8 -1 -6 -4.5695 -1.8003
-8 -1 -5 8.5540 -11.1729
-8 -1 -4 -8.8440 2.7850
-8 -1 -3 5.0269 16.5540
-8 -1 -2 12.1567 3.8093
-8 -1 -1 12.7090 17.8335
-7 -17 -8 3.0508 1.2230
-7 -17 -7 -7.8748 2.0344
-7 -17 -6 -5.6181 -3.6794
-7 -17 -5 -3.4888 -4.2403
-7 -17 -4 -9.6336 1.3320
-7 -17 -3 -9.9352 6.0489
-7 -17 -2 5.0697 1.5106
-7 -17 -1 -1.7099 1.0690
-7 -16 -11 -5.1011 -2.5820
-7 -16 -10 -0.9206 -1.3082
-7 -16 -9 -1.6909 1.8274
-7 -16 -8 0.2922 -8.6953
-7 -16 -7 4.0488 4.2090
-7 -16 -6 5.1353 -7.5546
-7 -16 -5 1.1767 2.3898
-7 -16 -4 1.2724 12.3412
-7 -16 -3 -8.7609 2.7079
-7 -16 -2 4.9861 0.4227
-7 -16 -1 4.3727 9.2224
-7 -15 -23 1.1583 -0.7296
-7 -15 -22 -1.9661 9.4772
-7 -15 -14 -12.2229 2.4069
-7 -15 -13 -11.2043 -4.3511
-7 -15 -12 -0.4396 -3.7024
-7 -15 -11 -8.5304 1.2530
-7 -15 -10 9.1453 -3.6003
-7 -15 -9 -10.8013 -1.0192
-7 -15 -8 10.4267 2.7681
-7 -15 -7 -1.3619 0.4206
-7 -15 -6 -9.1850 5.7117
-7 -15 -5 -2.1046 -10.1981
-7 -15 -4 2.9050 -1.9946
-7 -15 -3 -1.9153 -6.5212
-7 -15 -2 8.0371 -0.3355
-7 -15 -1 0.3453 6.6689
-7 -14 -26 5.2696 -5.5241
-7 -14 -25 1.5850 -6.0089
-7 -14 -24 -1.6146 1.8504
-7 -14 -16 -2.3616 -1.6442
-7 -14 -15 2.9429 -7.5750
-7 -14 -14 3.2306 4.6035
-7 -14 -13 -4.0284 4.0011
-7 -14 -12 6.0848 26.1934
-7 -14 -11 0.4706 -0.3226
-7 -14 -10 -7.7510 10.2020
-7 -14 -9 -0.4321 -3.4928
-7 -14 -8 -6.2332 -5.2074
-7 -14 -7 1.2030 -3.1006
-7 -14 -6 -4.1089 -6.4844
-7 -14 -5 4.2586 -8.2158
-7 -14 -4 6.4532 9.3944
-7 -14 -3 -1.6715 4.6553
-7 -14 -2 -12.1807 -2.0104
-7 -14 -1 -2.5946 -5.8045
-7 -13 -29 -2.2311 -0.0614
-7 -13 -28 5.3975 4.3038
-7 -13 -27 2.2190 -12.2612
-7 -13 -26 1.4311 -5.8380
-7 -13 -18 -0.0391 -7.4273
-7 -13 -17 5.7452 2.9277
-7 -13 -16 5.3982 2.6971
-7 -13 -15 10.6985 -2.3719
-7 -13 -14 -8.1821 5.8606
-7 -13 -13 0.4506 6.3181
-7 -13 -12 -10.2349 -3.5832
-7 -13 -11 11.2668 0.8204
-7 -13 -10 13.4765 -1.9513
-7 -13 -9 5.4171 3.4471
-7 -13 -8 0.4522 3.9592
-7 -13 -7 4.8830 1.0933
-7 -13 -6 -8.5553 6.1579
-7 -13 -5 -10.5736 6.2684
-7 -13 -4 -10.4968 -4.1231
-7 -13 -3 -10.1883 1.5761
-7 -13 -2 11.2960 -4.6812
-7 -13 -1 -4.5474 -8.2723
-7 -12 -32 -2.2860 9.9393
-7 -12 -31 -5.0896 1.7719
-7 -12 -30 -13.0552 7.5212
-7 -12 -29 6.2055 -3.1600
-7 -12 -28 -1.8445 -4.8099
-7 -12 -27 5.4535 -0.8335
-7 -12 -21 0.1456 0.8076
-7 -12 -20 2.2692 4.8259
-7 -12 -19 -5.2793 -0.4727
-7 -12 -18 -2.4581 -3.2304
-7 -12 -17 -5.3517 2.2731
-7 -12 -16 -1.3793 1.5813
-7 -12 -15 -3.9090 4.6189
-7 -12 -14 4.0204 -12.2974
-7 -12 -13 0.5548 -1.6332
-7 -12 -12 3.5663 -1.7356
-7 -12 -11 6.0337 3.8282
-7 -12 -10 -1.0916 2.3720
-7 -12 -9 2.9710 0.6537
-7 -12 -8 -0.4034 -12.3273
-7 -12 -7 2.5925 -3.8166
-7 -12 -6 8.5575 1.6805
-7 -12 -5 -2.3815 -9.3525
-7 -12 -4 4.3809 6.0096
-7 -12 -3 11.5443 5.9334
-7 -12 -2 -2.9281 20.1714
-7 -12 -1 -4.3254 5.5118
-7 -11 -34 -1.4283 -0.6738
-7 -11 -33 5.7496 0.7203
-7 -11 -32 7.5634 -7.0205
-7 -11 -31 8.8071 2.2817
-7 -11 -30 7.8067 -4.1708
-7 -11 -29 7.7914 7.4281
-7 -11 -28 2.0680 -3.2562
-7 -11 -23 8.4581 0.1977
-7 -11 -22 -4.8057 1.1434
-7 -11 -21 -0.2652 0.9287
-7 -11 -20 -4.0294 7.2988
-7 -11 -19 0.6935 0.0059
-7 -11 -18 3.5260 5.4952
-7 -11 -17 2.0222 2.5051
-7 -11 -16 1.6848 8.2466
-7 -11 -15 -6.5500 2.6246
-7 -11 -14 7.4229 -1.1574
-7 -11 -13 8.2572 3.7877
-7 -11 -12 -3.6949 0.2883
-7 -11 -11 -10.4410 3.1985
-7 -11 -10 1.3088 -3.9908
-7 -11 -9 3.1306 -5.7164
-7 -11 -8 -5.0858 2.3024
-7 -11 -7 -1.9376 -1.3043
-7 -11 -6 -3.3991 -5.8323
-7 -11 -5 -1.6638 0.9455
-7 -11 -4 -6.5617 -5.8741
-7 -11 -3 -8.1843 -4.2623
-7 -11 -2 -1.2441 0.5686
-7 -11 -1 9.5206 -9.6827
-7 -10 -36 -0.8050 4.0404
-7 -10 -35 -4.5789 -4.9707
-7 -10 -34 -0.7760 5.7181
-7 -10 -33 0.1294 4.0248
-7 -10 -32 5.6556 2.4062
-7 -10 -31 -2.2435 -3.5373
-7 -10 -30 -0.1040 -10.7959
-7 -10 -29 -7.2721 -4.3270
-7 -10 -25 -1.6048 4.2032
-7 -10 -24 2.3240 -4.7637
-7 -10 -23 -0.5414 7.4185
-7 -10 -22 -0.3207 -7.8086
-7 -10 -21 -0.3193 -4.7274
-7 -10 -20 -1.8814 -2.1221
-7 -10 -19 -2.4138 7.5713
-7 -10 -18 1.1475 6.5338
-7 -10 -17 4.2581 -2.3599
-7 -10 -16 6.2336 -5.0722
-7 -10 -15 5.4896 2.9404
-7 -10 -14 6.0915 -0.6458
-7 -10 -13 1.7095 2.0566
-7 -10 -12 -0.0628 -2.0497
-7 -10 -11 5.7775 -3.5273
-7 -10 -10 1.9661 -4.9259
-7 -10 -9 0.7870 5.8129
-7 -10 -8 6.3793 9.0625
-7 -10 -7 -7.8832 -4.0373
-7 -10 -6 2.6307 7.7258
-7 -10 -5 1.7649 8.9161
-7 -10 -4 -5.8960 4.3263
-7 -10 -3 1.4583 0.6251
-7 -10 -2 -1.3356 6.4579
-7 -10 -1 -6.3668 9.5238
-7 -9 -38 -9.9724 3.2018
-7 -9 -37 5.9580 2.7265
-7 -9 -36 -4.4700 3.6367
-7 -9 -35 2.4954 2.6455
-7 -9 -34 -1.1092 -0.0568
-7 -9 -33 -2.3584 0.7732
-7 -9 -32 2.3098 -2.0289
-7 -9 -31 3.1824 -7.6843
-7 -9 -30 6.2086 -2.9931
-7 -9 -29 -8.8709 -3.0422
-7 -9 -27 -9.8315 -0.2286
-7 -9 -26 0.5166 3.9425
-7 -9 -25 -12.4399 -3.9894
-7 -9 -24 2.5084 7.6677
-7 -9 -23 -4.1354 1.6114
-7 -9 -22 3.1471 4.7055
-7 -9 -21 3.0150 -7.1745
-7 -9 -20 1.1730 3.2955
-7 -9 -19 -9.2355 3.4487
-7 -9 -18 -0.6360 1.3443
-7 -9 -17 -1.7148 4.9196
-7 -9 -16 13.3278 0.0086
-7 -9 -15 -1.1540 0.7587
-7 -9 -14 -8.1725 -5.3774
-7 -9 -13 -0.8765 -3.0250
-7 -9 -12 12.8657 -8.3374
-7 -9 -11 3.0582 -4.9538
-7 -9 -10 -8.6005 4.5147
-7 -9 -9 8.5145 -7.8331
-7 -9 -8 -3.2825 -1.2141
-7 -9 -7 1.6522 -2.1003
-7 -9 -6 3.5936 -5.6657
-7 -9 -5 7.3084 0.9815
-7 -9 -4 12.5417 -3.7215
-7 -9 -3 5.8857 -2.0964
-7 -9 -2 6.2385 -0.1715
-7 -9 -1 3.1203 3.1177
-7 -8 -39 1.0959 7.9053
-7 -8 -38 -2.8792 -5.5862
-7 -8 -37 -2.9036 1.7791
-7 -8 -36 4.6582 6.9075
-7 -8 -35 0.5876 4.6251
-7 -8 -34 2.6707 -2.0002
-7 -8 -33 -0.7847 0.5314
-7 -8 -32 -2.1976 5.0505
-7 -8 -31 -3.9086 1.4405
-7 -8 -30 -6.9672 7.8550
-7 -8 -29 -5.5101 -2.6524
-7 -8 -28 -10.2259 -1.0924
-7 -8 -27 2.7602 -5.6641
-7 -8 -26 -7.2285 8.2884
-7 -8 -25 2.5547 -0.2664
-7 -8 -24 -6.6798 2.2105
-7 -8 -23 5.6102 3.9150
-7 -8 -22 -1.4692 4.3514
-7 -8 -21 4.9341 -5.4712
-7 -8 -20 7.0811 -0.7936
-7 -8 -19 -5.4286 -11.1622
-7 -8 -18 1.8733 5.0389
-7 -8 -17 0.2897 9.4506
-7 -8 -16 5.1936 1.4141
-7 -8 -15 -0.0915 1.8656
-7 -8 -14 3.2544 0.9465
-7 -8 -13 3.9484 -1.9684
-7 -8 -12 1.6875 -0.8657
-7 -8 -11 -3.3650 8.3490
-7 -8 -10 -9.3355 -15.6141
-7 -8 -9 -6.1081 -6.3080
-7 -8 -8 2.0477 1.2306
-7 -8 -7 -2.8790 -3.5299
-7 -8 -6 0.3545 3.9464
-7 -8 -5 -4.5403 -13.3793
-7 -8 -4 -0.0978 4.8043
-7 -8 -3 -8.7410 -11.3402
-7 -8 -2 -1.2971 -6.5572
-7 -8 -1 -7.0558 -11.1163
-7 -7 -40 -0.5286 -3.6399
-7 -7 -39 -1.4376 -4.1825
-7 -7 -38 -2.6380 -1.1859
-7 -7 -37 -2.9386 -2.6043
-7 -7 -36 5.8329 1.9389
-7 -7 -35 4.0116 1.6957
-7 -7 -34 8.7741 -1.5987
-7 -7 -33 4.8748 -5.7062
-7 -7 -32 -0.0182 0.6998
-7 -7 -31 -3.1300 2.1876
-7 -7 -30 6.0714 1.5931
-7 -7 -29 6.8872 9.5380
-7 -7 -28 3.0840 0.7147
-7 -7 -27 3.8356 10.3997
-7 -7 -26 -2.0735 3.6685
-7 -7 -25 -7.7218 5.1152
-7 -7 -24 -1.4941 -0.4916
-7 -7 -23 5.3444 3.1872
-7 -7 -22 -5.1244 6.6828
-7 -7 -21 -3.4927 0.1816
-7 -7 -20 -0.6858 -1.6547
-7 -7 -19 -6.8356 -6.2873
-7 -7 -18 -0.5930 0.0645
-7 -7 -17 -12.9085 0.2700
-7 -7 -16 0.2882 -2.8762
-7 -7 -15 13.7417 -3.7113
-7 -7 -14 9.6263 2.2835
-7 -7 -13 -7.3628 0.5221
-7 -7 -12 9.7250 -1.6491
-7 -7 -11 4.8332 -8.1935
-7 -7 -10 -5.4119 -1.9695
-7 -7 -9 1.6049 -0.1603
-7 -7 -8 -18.1152 8.0579
-7 -7 -7 13.1167 3.1759
-7 -7 -6 -14.0467 3.7222
-7 -7 -5 2.6536 -2.1209
-7 -7 -4 -3.4310 5.0925
-7 -7 -3 1.1870 -4.0384
-7 -7 -2 -8.6571 5.9401
-7 -7 -1 -6.4028 -2.8801
-7 -6 -41 -1.9801 -4.0426
-7 -6 -40 -2.0055 -2.9068
-7 -6 -39 -4.0791 -4.8164
-7 -6 -38 0.2731 7.1044
-7 -6 -37 -4.4480 0.1480
-7 -6 -36 -1.2541 4.1869
-7 -6 -35 2.3079 -1.6215
-7 -6 -34 -5.1415 -0.0566
-7 -6 -33 4.6189 -13.3545
-7 -6 -32 -0.6470 0.2064
-7 -6 -31 -7.5186 -7.5873
-7 -6 -30 0.8555 -0.1139
-7 -6 -29 -1.4470 4.5183
-7 -6 -28 2.2211 5.4970
-7 -6 -27 5.0130 -5.4255
-7 -6 -26 1.1570 -3.4686
-7 -6 -25 3.8417 4.1428
-7 -6 -24 9.3728 5.8497
-7 -6 -23 -3.0346 2.2165
-7 -6 -22 1.4414 10.2224
-7 -6 -21 2.1763 2.1058
-7 -6 -20 4.3782 16.1481
-7 -6 -19 3.2171 4.2809
-7 -6 -18 0.5447 5.7243
-7 -6 -17 -4.6182 8.9428
-7 -6 -16 4.5326 11.4021
-7 -6 -15 -1.6866 -1.6845
-7 -6 -14 -6.4511 7.7495
-7 -6 -13 -6.4427 -3.8108
-7 -6 -12 -1.2945 -15.5346
-7 -6 -11 10.1284 8.9586
-7 -6 -10 -0.1922 -15.9561
-7 -6 -9 -9.1815 12.0198
-7 -6 -8 0.3196 -9.9764
-7 -6 -7 0.8034 11.7421
-7 -6 -6 -5.3789 3.2976
-7 -6 -5 7.7324 4.6903
-7 -6 -4 -5.1076 -10.5437
-7 -6 -3 16.0484 6.5178
-7 -6 -2 -6.5377 5.2090
-7 -6 -1 4.0673 -4.7553
-7 -5 -42 -0.6157 5.2471
-7 -5 -41 7.7818 -1.9269
-7 -5 -40 -3.2112 6.6888
-7 -5 -39 0.4034 0.4908
-7 -5 -38 -5.0604 3.7148
-7 -5 -37 -2.0223 4.5123
-7 -5 -36 -4.4019 -7.2229
-7 -5 -35 8.7730 5.9641
-7 -5 -34 -7.7839 0.0517
-7 -5 -33 3.1579 -2.7934
-7 -5 -32 -4.1335 2.5861
-7 -5 -31 -3.1366 -3.6075
-7 -5 -30 -6.9885 -3.7788
-7 -5 -29 -2.2885 7.3549
-7 -5 -28 0.3730 2.7078
-7 -5 -27 7.0163 -1.1773
-7 -5 -26 9.9180 9.4249
-7 -5 -25 10.2368 -8.2764
-7 -5 -24 -2.0703 4.5757
-7 -5 -23 7.8280 -5.2726
-7 -5 -22 6.6865 -6.3680
-7 -5 -21 11.7866 4.4344
-7 -5 -20 8.9231 7.5660
-7 -5 -19 15.0968 -10.0034
-7 -5 -18 12.9531 4.6182
-7 -5 -17 20.1709 -9.5638
-7 -5 -16 -6.6269 4.8089
-7 -5 -15 7.7556 -6.8202
-7 -5 -14 21.3066 -8.1096
-7 -5 -13 -6.2712 7.1798
-7 -5 -12 8.8593 11.2767
-7 -5 -11 -8.8436 -1.6959
-7 -5 -10 7.4578 8.7658
-7 -5 -9 -4.9521 -7.4073
-7 -5 -8 -0.3495 -10.8339
-7 -5 -7 -10.3005 11.0202
-7 -5 -6 20.6595 -13.5372
-7 -5 -5 -4.3842 12.5198
-7 -5 -4 1.8269 -0.8415
-7 -5 -3 2.9106 4.8088
-7 -5 -2 4.6824 -1.9554
-7 -5 -1 -9.0599 -8.6639
-7 -4 -43 0.3011 1.1018
-7 -4 -42 -5.5161 0.8385
-7 -4 -41 3.8625 1.8224
-7 -4 -40 7.5671 -2.4718
-7 -4 -39 2.4248 -3.7611
-7 -4 -38 7.1872 -6.4762
-7 -4 -37 -2.9359 3.7793
-7 -4 -36 5.4638 -2.1595
-7 -4 -35 3.5133 8.0359
-7 -4 -34 -8.6622 0.9118
-7 -4 -33 -3.3298 4.0021
-7 -4 -32 4.4175 1.6410
-7 -4 -31 -2.7475 5.6847
-7 -4 -30 -4.6952 0.7524
-7 -4 -29 -1.3807 0.5031
-7 -4 -28 -10.7709 7.2429
-7 -4 -27 8.9172 7.5339
-7 -4 -26 -0.1220 -2.1756
-7 -4 -25 1.1125 -11.5490
-7 -4 -24 11.0249 -9.5552
-7 -4 -23 -0.4788 -6.7086
-7 -4 -22 -3.9229 -13.4555
-7 -4 -21 7.1117 -6.5866
-7 -4 -20 -11.4558 -12.9980
-7 -4 -19 18.7232 2.3279
-7 -4 -18 -2.5799 -30.2542
-7 -4 -17 2.8738 -8.5449
-7 -4 -16 -3.8239 -7.5909
-7 -4 -15 -2.4808 -8.9792
-7 -4 -14 -4.7444 1.5210
-7 -4 -13 3.0709 -1.9093
-7 -4 -12 -18.5459 -2.5943
-7 -4 -11 4.5783 -2.7313
-7 -4 -10 15.5755 7.7863
-7 -4 -9 -11.0522 -10.6257
-7 -4 -8 10.1804 16.2996
-7 -4 -7 -8.8563 -11.7510
-7 -4 -6 -1.1600 5.7147
-7 -4 -5 -5.2048 7.9261
-7 -4 -4 -13.2281 -3.1017
-7 -4 -3 0.5240 -19.6662
-7 -4 -2 12.7696 7.5198
-7 -4 -1 -0.3021 -2.1114
-7 -3 -43 2.9307 0.3377
-7 -3 -42 0.4448 9.1914
-7 -3 -41 -2.9033 5.0184
-7 -3 -40 4.3733 3.3190
-7 -3 -39 -0.2008 -5.8919
-7 -3 -38 -1.1034 -3.8418
-7 -3 -37 -8.7888 -2.1704
-7 -3 -36 -7.8311 -7.0431
-7 -3 -35 -8.5362 -1.0407
-7 -3 -34 6.0754 1.0093
-7 -3 -33 -2.7881 -0.2356
-7 -3 -32 3.6749 5.3244
-7 -3 -31 8.0787 11.4607
-7 -3 -30 1.4064 -1.2803
-7 -3 -29 6.9325 -1.5086
-7 -3 -28 -1.5527 8.4633
-7 -3 -27 7.2941 -0.2046
-7 -3 -26 5.6253 13.5591
-7 -3 -25 4.1536 -5.4976
-7 -3 -24 7.3451 -0.6733
-7 -3 -23 -9.1780 5.5710
-7 -3 -22 0.0024 -16.5158
-7 -3 -21 -20.7975 3.2958
-7 -3 -20 6.0960 -6.8258
-7 -3 -19 -27.1639 2.1510
-7 -3 -18 -0.3745 -10.5776
-7 -3 -17 -8.8587 -7.6071
-7 -3 -16 -3.0220 -9.8772
-7 -3 -15 -17.7097 8.4202
-7 -3 -14 1.1302 -5.8960
-7 -3 -13 14.1659 2.3273
-7 -3 -12 2.0417 10.2514
-7 -3 -11 16.8448 -5.4664
-7 -3 -10 -3.7566 11.7351
-7 -3 -9 23.3685 5.8438
-7 -3 -8 12.6881 -2.3786
-7 -3 -7 -3.0964 8.5230
-7 -3 -6 7.7443 -2.3040
-7 -3 -5 17.9166 4.7892
-7 -3 -4 1.0341 0.1029
-7 -3 -3 4.3205 11.6858
-7 -3 -2 -6.7880 6.5901
-7 -3 -1 -4.6178 19.0394
-7 -2 -44 -4.0668 -1.8867
-7 -2 -43 -0.0004 -9.9535
-7 -2 -42 1.5171 3.7363
-7 -2 -41 1.6687 -2.5631
-7 -2 -40 8.6574 1.1087
-7 -2 -39 7.9012 -1.2480
-7 -2 -38 9.4090 -3.7547
-7 -2 -37 -4.1759 -7.3640
-7 -2 -36 -2.8307 14.6886
-7 -2 -35 0.4565 2.8111
-7 -2 -34 -0.2705 16.5253
-7 -2 -33 -6.9202 14.4516
-7 -2 -32 -3.8042 -3.0964
-7 -2 -31 13.5691 9.7053
-7 -2 -30 -1.8284 -5.7524
-7 -2 -29 17.9031 -2.9096
-7 -2 -28 -6.8848 -4.8157
-7 -2 -27 4.9257 -3.8443
-7 -2 -26 -0.8027 3.9984
-7 -2 -25 -0.6904 -9.7465
-7 -2 -24 9.7462 -3.3643
-7 -2 -23 1.0097 -18.3695
-7 -2 -22 4.5811 12.1329
-7 -2 -21 0.7669 -21.1248
-7 -2 -20 -2.2574 10.4813
-7 -2 -19 -11.8829 2.0518
-7 -2 -18 -0.5132 24.6240
-7 -2 -17 -7.4750 -1.8938
-7 -2 -16 -7.6706 4.1677
-7 -2 -15 -10.5145 10.1459
-7 -2 -14 -11.5482 -10.0743
-7 -2 -13 6.6941 8.9883
-7 -2 -12 2.6843 -15.3898
-7 -2 -11 -11.0453 -14.3119
-7 -2 -10 15.7699 -13.8396
-7 -2 -9 -2.1994 -29.5804
-7 -2 -8 11.3480 -13.7385
-7 -2 -7 0.1691 -22.4877
-7 -2 -6 16.5341 -27.5804
-7 -2 -5 2.4235 -14.6172
-7 -2 -4 17.0886 -8.0986
-7 -2 -3 -16.6118 -16.4118
-7 -2 -2 6.2374 -15.8114
-7 -2 -1 20.5720 3.9389
-7 -1 -44 -9.2958 0.5835
-7 -1 -43 2.4350 -5.7651
-7 -1 -42 -6.4441 3.1545
-7 -1 -41 -1.0476 -3.8724
-7 -1 -40 -1.8496 2.9593
-7 -1 -39 4.4085 -7.4737
-7 -1 -38 -9.8351 -6.5217
-7 -1 -37 6.1667 -9.3579
-7 -1 -36 -11.9989 -5.4970
-7 -1 -35 -8.0882 -4.1374
-7 -1 -34 14.9821 -2.4294
-7 -1 -33 4.0186 8.1197
-7 -1 -32 20.6234 -9.8662
-7 -1 -31 12.7937 17.2620
-7 -1 -30 9.9782 -0.1675
-7 -1 -29 6.0219 -3.6999
-7 -1 -28 -3.9635 -9.0070
-7 -1 -27 -4.4662 -6.7178
-7 -1 -26 -3.2387 4.3681
-7 -1 -25 10.3997 2.2809
-7 -1 -24 -12.6213 0.7953
-7 -1 -23 6.0146 5.2281
-7 -1 -22 -15.9316 -2.3295
-7 -1 -21 -5.8699 -11.1997
-7 -1 -20 -14.2999 -8.1750
-7 -1 -19 4.4951 -1.5161
-7 -1 -18 -2.3772 0.6899
-7 -1 -17 -2.4337 8.9109
-7 -1 -16 27.1503 -0.3711
-7 -1 -15 -4.2488 5.3226
-7 -1 -14 0.3377 10.6389
-7 -1 -13 -1.2942 -5.3552
-7 -1 -12 -8.3997 22.1011
-7 -1 -11 9.7885 -11.1777
-7 -1 -10 -24.8081 3.3684
-7 -1 -9 -17.4268 -4.6356
-7 -1 -8 -15.1905 1.6036
-7 -1 -7 -17.2324 -16.2939
-7 -1 -6 -35.7977 6.1013
-7 -1 -5 -24.2223 -16.5180
-7 -1 -4 -26.5727 -1.2259
-7 -1 -3 -10.5653 -6.7923
-7 -1 -2 -22.4741 -21.4306
-7 -1 -1 -3.2310 17.7067
-6 -17 -10 5.2615 2.0272
-6 -17 -9 2.9921 -4.1242
-6 -17 -8 3.5416 12.8617
-6 -17 -7 -6.2555 2.9007
-6 -17 -6 1.7206 0.2415
-6 -17 -5 2.9494 0.5891
-6 -17 -4 3.3462 5.6495
-6 -17 -3 3.8322 1.3083
-6 -17 -2 -4.9290 1.4538
-6 -17 -1 -3.1508 5.7911
-6 -16 -20 4.9250 3.9485
-6 -16 -19 -1.2788 8.1329
-6 -16 -18 -3.2889 9.4322
-6 -16 -11 11.3510 -1.7822
-6 -16 -10 -3.7957 9.2010
-6 -16 -9 -0.4916 -5.5808
-6 -16 -8 -4.5875 3.8764
-6 -16 -7 3.3513 -4.5749
-6 -16 -6 5.4435 -1.1309
-6 -16 -5 10.8054 6.5860
-6 -16 -4 0.2085 5.9211
-6 -16 -3 -3.0906 -2.0304
-6 -16 -2 6.5228 -0.7624
-6 -16 -1 1.5021 -2.5148
-6 -15 -24 1.4794 -5.1359
-6 -15 -23 9.0389 0.2552
-6 -15 -22 7.2876 4.3960
-6 -15 -21 1.4442 6.2328
-6 -15 -20 -0.8745 -1.5798
-6 -15 -14 -6.1548 -10.4240
-6 -15 -13 7.2081 -2.1234
-6 -15 -12 -10.8626 -4.2686
-6 -15 -11 3.8581 0.9412
-6 -15 -10 -5.5376 -7.8925
-6 -15 -9 7.9983 -7.5179
-6 -15 -8 9.1040 -7.3075
-6 -15 -7 3.5647 5.4824
-6 -15 -6 -0.8632 2.2817
-6 -15 -5 1.1201 -6.6619
-6 -15 -4 0.0744 -4.6629
-6 -15 -3 9.1038 -8.2695
-6 -15 -2 6.6077 1.1964
-6 -15 -1 8.9529 -11.5371
-6 -14 -28 1.2948 11.0223
-6 -14 -27 -3.8743 -0.3302
-6 -14 -26 0.5111 -1.2353
-6 -14 -25 4.8008 0.8680
-6 -14 -24 7.1372 0.0308
-6 -14 -23 -5.8286 -1.0805
-6 -14 -22 -3.3991 0.0962
-6 -14 -16 -6.2116 -5.8638
-6 -14 -15 -4.2827 4.2787
-6 -14 -14 -1.4964 -13.1706
-6 -14 -13 -3.4153 -6.6943
-6 -14 -12 -1.6498 -10.1558
-6 -14 -11 -7.2770 5.9880
-6 -14 -10 -1.0393 9.9666
-6 -14 -9 -0.4675 2.3632
-6 -14 -8 -7.2511 2.2804
-6 -14 -7 -8.9762 -0.3306
-6 -14 -6 -9.5248 -9.5069
-6 -14 -5 3.2435 -8.5415
-6 -14 -4 6.6478 -3.1123
-6 -14 -3 0.9114 3.5833
-6 -14 -2 -19.7432 -0.0571
-6 -14 -1 4.8837 -13.0088
-6 -13 -31 -3.9621 5.5294
-6 -13 -30 -8.5083 -2.3088
-6 -13 -29 -4.8425 3.1709
-6 -13 -28 0.7402 -4.2138
-6 -13 -27 -1.9241 -2.6599
-6 -13 -26 7.0579 2.9277
-6 -13 -25 1.1334 -4.0352
-6 -13 -24 -7.9777 8.4116
-6 -13 -23 0.6668 -3.5255
-6 -13 -18 -3.4781 0.2727
-6 -13 -17 -7.3236 -3.5116
-6 -13 -16 -3.6216 -5.4160
-6 -13 -15 1.0657 -1.4265
-6 -13 -14 8.3550 11.6174
-6 -13 -13 -1.3243 6.5038
-6 -13 -12 -11.3539 -2.2476
-6 -13 -11 -3.0671 2.2284
-6 -13 -10 -4.7114 0.5776
-6 -13 -9 4.0906 6.2075
-6 -13 -8 7.9953 -4.0868
-6 -13 -7 9.4539 -5.2183
-6 -13 -6 3.7876 13.0578
-6 -13 -5 5.3716 10.2227
-6 -13 -4 -8.4892 -2.6482
-6 -13 -3 -0.3986 4.1195
-6 -13 -2 -10.5033 -11.7351
-6 -13 -1 5.4861 1.8221
-6 -12 -33 -4.4844 -5.1421
-6 -12 -32 3.8125 1.2122
-6 -12 -31 -4.0644 -1.4593
-6 -12 -30 2.9714 8.3946
-6 -12 -29 0.2428 -0.0116
-6 -12 -28 1.3710 12.9441
-6 -12 -27 11.4053 4.5653
-6 -12 -26 -7.4984 -2.3109
-6 -12 -25 1.5446 3.7955
-6 -12 -21 9.2674 3.0474
-6 -12 -20 -2.2357 0.5404
-6 -12 -19 -0.4949 3.4636
-6 -12 -18 3.2412 0.9664
-6 -12 -17 11.1870 3.6999
-6 -12 -16 0.1467 7.0129
-6 -12 -15 -10.2195 7.1435
-6 -12 -14 -2.8528 1.5006
-6 -12 -13 -6.0030 4.4898
-6 -12 -12 10.8667 -8.5859
-6 -12 -11 -0.3084 4.2399
-6 -12 -10 0.3328 2.7313
-6 -12 -9 1.6597 6.7356
-6 -12 -8 -6.4023 -5.1065
-6 -12 -7 3.9383 2.7889
-6 -12 -6 -1.9035 -11.2856
-6 -12 -5 -14.3497 -2.8797
-6 -12 -4 9.2916 -12.7522
-6 -12 -3 14.6400 -7.9883
-6 -12 -2 -2.5393 4.4590
-6 -12 -1 -4.1564 -3.4562
-6 -11 -35 4.9366 2.9173
-6 -11 -34 -2.8417 2.9208
-6 -11 -33 4.9653 -0.9696
-6 -11 -32 -6.0243 5.4698
-6 -11 -31 3.0659 4.4411
-6 -11 -30 -3.1501 1.7298
-6 -11 -29 3.6189 5.5161
-6 -11 -28 5.3480 -4.9665
-6 -11 -27 4.1140 -0.2379
-6 -11 -26 6.2505 -6.6717
-6 -11 -23 2.7780 8.9078
-6 -11 -22 5.1809 -3.2719
-6 -11 -21 8.0284 -0.1677
-6 -11 -20 -1.3730 -8.3467
-6 -11 -19 -0.5459 -3.5534
-6 -11 -18 0.3569 0.8924
-6 -11 -17 1.6978 0.3054
-6 -11 -16 1.5062 9.4571
-6 -11 -15 -5.6575 -10.8368
-6 -11 -14 9.2067 2.9877
-6 -11 -13 0.4565 3.4205
-6 -11 -12 10.9051 16.2129
-6 -11 -11 -4.4022 5.6601
-6 -11 -10 3.9767 -8.1669
-6 -11 -9 -3.7377 5.5287
-6 -11 -8 7.4420 9.5341
-6 -11 -7 -2.2598 -7.5881
-6 -11 -6 -1.3904 0.3726
-6 -11 -5 0.8797 11.4967
-6 -11 -4 -6.8069 0.3765
-6 -11 -3 -3.4064 10.3277
-6 -11 -2 -13.3130 -2.6379
-6 -11 -1 -5.1415 -10.4454
-6 -10 -37 -3.2669 -1.7000
-6 -10 -36 -3.1438 -5.4191
-6 -10 -35 -1.2700 3.2404
-6 -10 -34 3.3330 -2.6481
-6 -10 -33 2.9173 -3.2548
-6 -10 -32 2.4602 -2.6298
-6 -10 -31 2.0840 -3.7105
-6 -10 -30 4.1540 -2.8255
-6 -10 -29 7.8000 -5.1588
-6 -10 -28 5.0238 -2.9338
-6 -10 -27 2.8175 2.0658
-6 -10 -25 -9.1899 -6.5474
-6 -10 -24 1.0627 -11.0387
-6 -10 -23 -12.2329 2.8299
-6 -10 -22 -3.5102 -12.0455
-6 -10 -21 2.5470 1.7480
-6 -10 -20 2.4124 -2.7342
-6 -10 -19 2.5325 -0.7849
-6 -10 -18 -12.7765 2.5143
-6 -10 -17 -1.5886 -3.2769
-6 -10 -16 -0.0879 6.3381
-6 -10 -15 13.1848 -3.4883
-6 -10 -14 2.1728 10.8330
-6 -10 -13 1.8989 -0.4556
-6 -10 -12 4.8804 5.9633
-6 -10 -11 5.8217 -7.1402
-6 -10 -10 8.7497 -2.0763
-6 -10 -9 15.1911 -2.2669
-6 -10 -8 2.8454 -1.7820
-6 -10 -7 -3.8737 1.8880
-6 -10 -6 16.8193 0.7364
-6 -10 -5 -1.9370 -2.4953
-6 -10 -4 -6.6409 1.3548
-6 -10 -3 10.1331 4.6647
-6 -10 -2 5.5989 -2.4990
-6 -10 -1 9.3608 13.7111
-6 -9 -39 -2.4894 1.8421
-6 -9 -38 1.0742 2.1429
-6 -9 -37 -4.0990 -1.0159
-6 -9 -36 -9.8996 2.2818
-6 -9 -35 -4.3847 6.3673
-6 -9 -34 -7.6938 7.7310
-6 -9 -33 2.9286 5.2007
-6 -9 -32 -3.8916 -6.5120
-6 -9 -31 -2.7314 0.7051
-6 -9 -30 -7.2756 -1.4868
-6 -9 -29 -8.5574 -0.2006
-6 -9 -28 -7.4857 -4.0851
-6 -9 -27 -7.1857 -10.0316
-6 -9 -26 1.7835 2.4286
-6 -9 -25 -7.6122 -8.9428
-6 -9 -24 9.3303 1.7743
-6 -9 -23 -14.5057 7.4032
-6 -9 -22 -5.8787 2.3031
-6 -9 -21 -3.3710 3.9491
-6 -9 -20 -0.8059 5.5066
-6 -9 -19 7.8559 0.4821
-6 -9 -18 -0.9522 -4.8081
-6 -9 -17 6.2780 -2.2816
-6 -9 -16 -0.3616 3.5643
-6 -9 -15 1.4288 9.6508
-6 -9 -14 -4.1307 -0.1456
-6 -9 -13 6.9238 -14.3684
-6 -9 -12 5.6133 -8.7446
-6 -9 -11 7.5403 1.9157
-6 -9 -10 7.5677 -4.5234
-6 -9 -9 -1.0208 -17.7858
-6 -9 -8 -7.3244 -1.4809
-6 -9 -7 6.7908 -3.5233
-6 -9 -6 -7.2829 -12.5155
-6 -9 -5 4.7307 -0.6991
-6 -9 -4 3.8789 -6.1265
-6 -9 -3 -3.4428 1.0738
-6 -9 -2 6.1317 -1.4046
-6 -9 -1 -3.0242 -5.2490
-6 -8 -40 2.7754 6.1509
-6 -8 -39 -0.5473 3.2352
-6 -8 -38 0.5420 -3.0942
-6 -8 -37 -0.2114 -0.1181
-6 -8 -36 2.3859 -5.4613
-6 -8 -35 -2.6991 7.7089
-6 -8 -34 6.2578 3.8698
-6 -8 -33 6.0718 7.9783
-6 -8 -32 9.0930 -0.2774
-6 -8 -31 2.3569 1.9690
-6 -8 -30 0.1814 -0.3217
-6 -8 -29 1.0145 4.6950
-6 -8 -28 -5.1784 9.2896
-6 -8 -27 7.4616 4.4765
-6 -8 -26 -3.0841 15.3252
-6 -8 -25 -10.2265 -1.6111
-6 -8 -24 -2.9141 5.4122
-6 -8 -23 3.5108 -1.5309
-6 -8 -22 -4.8118 -2.1525
-6 -8 -21 5.0492 5.7208
-6 -8 -20 -2.4983 1.7195
-6 -8 -19 2.7532 1.4324
-6 -8 -18 2.6372 -3.4862
-6 -8 -17 -0.6408 -13.8684
-6 -8 -16 -8.7174 -7.0142
-6 -8 -15 -1.3049 0.6127
-6 -8 -14 0.9682 -4.0307
-6 -8 -13 6.3703 1.3041
-6 -8 -12 1.1803 5.5927
-6 -8 -11 -2.7424 1.8976
-6 -8 -10 -8.6391 -11.7322
-6 -8 -9 -7.5132 0.0916
-6 -8 -8 3.9429 -20.0042
-6 -8 -7 -11.6684 7.8343
-6 -8 -6 -6.4727 -3.6335
-6 -8 -5 4.3090 0.9700
-6 -8 -4 -0.8433 1.0240
-6 -8 -3 -2.3642 -3.6145
-6 -8 -2 -6.2205 -3.4076
-6 -8 -1 5.3938 -1.1275
-6 -7 -41 3.8157 1.7086
-6 -7 -40 1.5266 -0.5992
-6 -7 -39 2.3348 -5.8149
-6 -7 -38 2.3751 3.0579
-6 -7 -37 -2.8007 -1.0317
-6 -7 -36 0.7192 0.5201
-6 -7 -35 -5.3170 1.3135
-6 -7 -34 -1.4035 0.9507
-6 -7 -33 -2.9583 0.1216
-6 -7 -32 7.1860 -0.0690
-6 -7 -31 0.3379 -4.1351
-6 -7 -30 0.6332 -6.2768
-6 -7 -29 -1.5564 1.3639
-6 -7 -28 -1.8265 -1.1635
-6 -7 -27 6.6761 -2.9304
-6 -7 -26 -0.1203 2.5115
-6 -7 -25 6.9238 2.8983
-6 -7 -24 5.8749 -6.8518
-6 -7 -23 6.4460 10.7091
-6 -7 -22 1.6223 6.6168
-6 -7 -21 -2.4794 0.6157
-6 -7 -20 -11.7214 -4.6469
-6 -7 -19 5.8792 5.8282
-6 -7 -18 -4.5620 6.2544
-6 -7 -17 -6.2078 4.7971
-6 -7 -16 -7.4689 -4.1833
-6 -7 -15 -9.9934 4.8738
-6 -7 -14 -6.4566 12.6339
-6 -7 -13 -7.1631 6.2357
-6 -7 -12 5.6857 -3.6677
-6 -7 -11 -5.4392 -8.2763
-6 -7 -10 17.7539 7.4754
-6 -7 -9 -9.6658 0.7060
-6 -7 -8 6.7999 -4.7919
-6 -7 -7 -14.9558 6.7842
-6 -7 -6 -4.7615 1.3634
-6 -7 -5 -6.5521 4.4570
-6 -7 -4 1.2090 -10.1876
-6 -7 -3 -5.2595 5.7777
-6 -7 -2 1.5800 -1.1480
-6 -7 -1 -0.4670 -6.7168
-6 -6 -42 -0.3271 -5.2304
-6 -6 -41 3.9530 4.6626
-6 -6 -40 -1.0708 0.5523
-6 -6 -39 1.7659 -0.7577
-6 -6 -38 -0.4909 0.0990
-6 -6 -37 -3.4408 -0.1561
-6 -6 -36 2.6140 4.7453
-6 -6 -35 2.2284 -1.0830
-6 -6 -34 -0.3233 3.5863
-6 -6 -33 3.1087 -2.5286
-6 -6 -32 0.0875 7.0965
-6 -6 -31 1.4500 0.5984
-6 -6 -30 1.5415 -1.9213
-6 -6 -29 5.0788 -2.3508
-6 -6 -28 -3.5516 -3.4254
-6 -6 -27 -3.5259 4.5311
-6 -6 -26 5.1686 -0.7710
-6 -6 -25 3.5617 2.2679
-6 -6 -24 -3.5499 -2.6888
-6 -6 -23 -0.2269 2.3530
-6 -6 -22 4.7837 -13.5516
-6 -6 -21 4.8384 -0.0120
-6 -6 -20 5.2155 -3.8143
-6 -6 -19 1.5705 12.2593
-6 -6 -18 0.3217 9.4611
-6 -6 -17 6.5172 5.3912
-6 -6 -16 6.6127 2.3956
-6 -6 -15 4.1567 3.8469
-6 -6 -14 6.1949 19.2881
-6 -6 -13 6.6786 -1.0084
-6 -6 -12 8.4417 12.1037
-6 -6 -11 3.1870 -8.3448
-6 -6 -10 3.5431 13.0439
-6 -6 -9 -5.5357 -16.6010
-6 -6 -8 8.6694 0.1563
-6 -6 -7 -1.2144 -5.7809
-6 -6 -6 11.1828 10.6895
-6 -6 -5 -17.1350 -1.8680
-6 -6 -4 -1.2793 6.4149
-6 -6 -3 10.0183 4.7410
-6 -6 -2 -12.7787 9.3976
-6 -6 -1 3.1132 0.4481
-6 -5 -43 -3.8112 -2.2226
-6 -5 -42 -0.9136 -6.0353
-6 -5 -41 -2.7810 -4.4697
-6 -5 -40 4.0162 -2.0168
-6 -5 -39 7.0958 -3.6400
-6 -5 -38 -0.5450 -0.4065
-6 -5 -37 3.5288 -0.3993
-6 -5 -36 -0.3713 -2.1809
-6 -5 -35 7.1773 0.3006
-6 -5 -34 0.3057 -2.3480
-6 -5 -33 0.2081 -1.3067
-6 -5 -32 -3.4356 -5.2999
-6 -5 -31 -1.6149 2.8545
-6 -5 -30 1.5936 -1.7807
-6 -5 -29 0.5325 0.9971
-6 -5 -28 -4.7991 -4.3973
-6 -5 -27 -8.7486 1.6055
-6 -5 -26 -1.4062 -3.6836
-6 -5 -25 -4.4119 4.3491
-6 -5 -24 4.8085 -2.6946
-6 -5 -23 -2.8270 -7.5932
-6 -5 -22 3.3695 -1.2640
-6 -5 -21 -6.9394 8.4751
-6 -5 -20 -4.5536 -4.7223
-6 -5 -19 -7.3018 -7.2913
-6 -5 -18 12.5438 -2.1231
-6 -5 -17 17.2942 -1.0650
-6 -5 -16 1.1744 6.5550
-6 -5 -15 10.2098 -12.9518
-6 -5 -14 -6.8040 1.4592
-6 -5 -13 16.3289 -1.8982
-6 -5 -12 -3.2247 -0.3740
-6 -5 -11 17.1824 -14.7848
-6 -5 -10 -4.1000 0.8245
-6 -5 -9 2.6196 -3.6545
-6 -5 -8 -14.0678 16.6866
-6 -5 -7 -2.5567 -21.5054
-6 -5 -6 -8.9729 -9.8928
-6 -5 -5 -0.2039 10.1816
-6 -5 -4 5.6684 -16.3776
-6 -5 -3 1.2344 9.4937
-6 -5 -2 -0.8383 6.3488
-6 -5 -1 0.1142 6.2220
-6 -4 -44 0.0679 0.2891
-6 -4 -43 5.0693 -1.8794
-6 -4 -42 -2.9619 4.3102
-6 -4 -41 -5.5416 3.4921
-6 -4 -40 -6.1588 -0.0154
-6 -4 -39 -5.3239 6.3016
-6 -4 -38 -4.6778 -4.3184
-6 -4 -37 -2.8618 -7.3039
-6 -4 -36 -7.0201 -4.8668
-6 -4 -35 -3.2273 -1.5406
-6 -4 -34 -2.1689 -0.6022
-6 -4 -33 -5.5966 -6.0741
-6 -4 -32 2.2315 -6.1510
-6 -4 -31 -7.9926 10.2765
-6 -4 -30 -2.5227 2.0191
-6 -4 -29 -1.9561 5.4435
-6 -4 -28 7.5401 1.9264
-6 -4 -27 -0.8848 3.9412
-6 -4 -26 -0.1288 7.4464
-6 -4 -25 4.8037 9.7293
-6 -4 -24 7.9776 8.1767
-6 -4 -23 -4.6442 2.6237
-6 -4 -22 -5.4308 7.8240
-6 -4 -21 -0.7569 -4.2000
-6 -4 -20 -0.1693 6.6811
-6 -4 -19 6.9370 3.0301
-6 -4 -18 -9.1321 -0.5141
-6 -4 -17 9.3209 3.5257
-6 -4 -16 -5.7537 -26.8357
-6 -4 -15 2.4376 -8.5120
-6 -4 -14 -0.3714 -18.1658
-6 -4 -13 7.1679 12.4880
-6 -4 -12 0.8887 -1.2047
-6 -4 -11 13.0504 -2.9108
-6 -4 -10 -10.7594 -7.7973
-6 -4 -9 8.1258 1.2285
-6 -4 -8 1.4448 -4.0322
-6 -4 -7 -6.2183 -1.3727
-6 -4 -6 22.8038 28.7410
-6 -4 -5 -9.6366 13.7284
-6 -4 -4 -17.5989 15.1617
-6 -4 -3 -6.2195 -4.7339
-6 -4 -2 5.6991 -6.0307
-6 -4 -1 -8.9100 10.4462
-6 -3 -44 -2.1365 -0.1187
-6 -3 -43 4.9222 2.1135
-6 -3 -42 3.3766 1.0773
-6 -3 -41 -0.7933 3.7937
-6 -3 -40 2.5825 0.1972
-6 -3 -39 10.0772 9.4501
-6 -3 -38 6.8548 0.1050
-6 -3 -37 6.1897 9.5870
-6 -3 -36 -5.3868 2.0033
-6 -3 -35 -2.8887 2.1510
-6 -3 -34 -0.6614 13.9492
-6 -3 -33 -12.3021 6.4637
-6 -3 -32 8.6278 4.9226
-6 -3 -31 -11.7707 3.6576
-6 -3 -30 -2.0909 5.2899
-6 -3 -29 0.7439 6.6062
-6 -3 -28 12.6338 5.7720
-6 -3 -27 2.0311 -1.6310
-6 -3 -26 2.0119 -2.2544
-6 -3 -25 7.6424 -3.3414
-6 -3 -24 2.8034 -8.5387
-6 -3 -23 13.7294 -4.5246
-6 -3 -22 5.9485 -9.8412
-6 -3 -21 13.8264 0.9031
-6 -3 -20 9.9124 4.5946
-6 -3 -19 -4.6802 10.6234
-6 -3 -18 6.6664 -8.2129
-6 -3 -17 -10.2152 -4.0501
-6 -3 -16 8.9339 4.2804
-6 -3 -15 -21.5895 -1.7412
-6 -3 -14 -17.9613 -6.7480
-6 -3 -13 -18.7088 4.0118
-6 -3 -12 -14.5454 -3.3386
-6 -3 -11 1.4766 -1.2970
-6 -3 -10 1.8011 -16.7458
-6 -3 -9 14.3171 -22.8808
-6 -3 -8 -19.8197 8.9493
-6 -3 -7 10.6848 -0.1289
-6 -3 -6 -10.7217 -15.1727
-6 -3 -5 7.4677 -11.0392
-6 -3 -4 34.6428 1.8099
-6 -3 -3 19.3580 -7.6768
-6 -3 -2 32.0478 4.4340
-6 -3 -1 -5.0901 19.6306
-6 -2 -45 2.4030 3.7670
-6 -2 -44 5.0282 -6.4087
-6 -2 -43 -0.9061 -1.2872
-6 -2 -42 10.4268 -7.4860
-6 -2 -41 -1.9527 0.2534
-6 -2 -40 8.4769 -2.7631
-6 -2 -39 -2.0944 -2.8147
-6 -2 -38 6.4617 -8.6526
-6 -2 -37 6.7185 -6.2367
-6 -2 -36 -1.0787 -12.1172
-6 -2 -35 1.4099 -16.7160
-6 -2 -34 2.3282 15.7562
-6 -2 -33 0.2328 -6.9906
-6 -2 -32 9.7208 6.3627
-6 -2 -31 10.9300 -0.4246
-6 -2 -30 4.5984 8.9222
-6 -2 -29 4.3958 5.0338
-6 -2 -28 8.8162 3.0358
-6 -2 -27 5.9124 3.5643
-6 -2 -26 8.6652 -10.8034
-6 -2 -25 -5.0079 0.0865
-6 -2 -24 -1.8448 -1.2249
-6 -2 -23 5.2921 0.4971
-6 -2 -22 -14.0738 -4.8870
-6 -2 -21 -12.9825 -12.8745
-6 -2 -20 -4.1792 -7.7341
-6 -2 -19 7.8947 -21.8743
-6 -2 -18 -2.2157 -0.1629
-6 -2 -17 10.2011 -6.9816
-6 -2 -16 0.6784 18.2727
-6 -2 -15 -0.1060 6.0464
-6 -2 -14 -0.4174 -3.2192
-6 -2 -13 -3.7484 21.4321
-6 -2 -12 4.1574 15.1048
-6 -2 -11 7.9785 39.5591
-6 -2 -10 -0.3996 -2.7160
-6 -2 -9 -7.6391 25.0429
-6 -2 -8 -7.0230 -6.2870
-6 -2 -7 -14.6257 -10.8855
-6 -2 -6 -12.0531 6.6122
-6 -2 -5 14.0460 -6.5777
-6 -2 -4 -7.6181 16.8516
-6 -2 -3 -29.8017 -8.3878
-6 -2 -2 6.5155 -40.2125
-6 -2 -1 -5.7320 -36.0563
-6 -1 -45 -4.5906 -6.9123
-6 -1 -44 5.2207 2.3735
-6 -1 -43 -5.0079 -9.8270
-6 -1 -42 -5.5875 -1.0835
-6 -1 -41 0.9911 -5.5796
-6 -1 -40 -3.9166 -4.7611
-6 -1 -39 -4.9545 -2.2301
-6 -1 -38 1.1905 -6.4718
-6 -1 -37 2.4220 -1.2718
-6 -1 -36 -20.9618 1.6763
-6 -1 -35 1.7069 -7.2479
-6 -1 -34 -19.7256 -1.0673
-6 -1 -33 -5.5739 7.5788
-6 -1 -32 0.1461 6.3336
-6 -1 -31 2.5090 -2.0502
-6 -1 -30 4.8918 0.0987
-6 -1 -29 -4.5334 -7.7467
-6 -1 -28 12.8783 -0.9373
-6 -1 -27 7.2822 -5.6235
-6 -1 -26 1.7121 -12.2137
-6 -1 -25 -1.3549 4.2540
-6 -1 -24 0.3616 -11.0060
-6 -1 -23 4.1473 3.3164
-6 -1 -22 -0.4675 -1.8904
-6 -1 -21 2.5264 6.1504
-6 -1 -20 -8.4067 -3.3837
-6 -1 -19 -1.6737 20.4143
-6 -1 -18 -23.9466 2.4170
-6 -1 -17 -8.3374 -5.8055
-6 -1 -16 1.1699 -7.9190
-6 -1 -15 -0.9965 -6.3149
-6 -1 -14 25.9909 2.9882
-6 -1 -13 -6.7057 -9.4620
-6 -1 -12 19.1465 -0.7091
-6 -1 -11 -5.7147 -2.4474
-6 -1 -10 24.1785 2.3220
-6 -1 -9 34.7993 -17.4052
-6 -1 -8 12.8074 -19.7541
-6 -1 -7 20.0002 13.1976
-6 -1 -6 6.4432 4.8239
-6 -1 -5 -16.4472 -9.0787
-6 -1 -4 3.3186 9.7660
-6 -1 -3 -1.1143 -8.2121
-6 -1 -2 -8.2552 18.1970
-6 -1 -1 27.3106 3.8183
-5 -18 -8 1.8878 -4.4035
-5 -18 -7 2.2098 -2.2149
-5 -18 -6 -1.5630 10.1486
-5 -18 -5 -5.5088 3.1757
-5 -18 -4 -5.9561 0.1201
-5 -18 -3 3.2371 4.0445
-5 -18 -2 1.9102 1.5980
-5 -18 -1 15.8717 5.1279
-5 -17 -17 3.1163 4.8792
-5 -17 -16 -0.0418 11.5076
-5 -17 -15 2.2223 3.2671
-5 -17 -14 5.2085 0.9635
-5 -17 -13 0.1385 9.0986
-5 -17 -12 1.0676 -4.9426
-5 -17 -11 -4.5713 4.3380
-5 -17 -10 1.1210 0.3093
-5 -17 -9 3.8507 3.5360
-5 -17 -8 -9.5901 5.0559
-5 -17 -7 -8.6707 3.5614
-5 -17 -6 -5.2534 -5.0740
-5 -17 -5 -0.2793 -1.0402
-5 -17 -4 3.1102 -2.8230
-5 -17 -3 2.1578 15.2465
-5 -17 -2 -0.7471 -0.9280
-5 -17 -1 3.7996 8.1577
-5 -16 -22 -7.0415 -11.7371
-5 -16 -21 3.7219 1.4433
-5 -16 -20 2.3620 -5.3824
-5 -16 -19 0.4815 -7.9240
-5 -16 -18 -7.6655 -6.2404
-5 -16 -17 5.4292 -5.3623
-5 -16 -16 8.6483 -2.7815
-5 -16 -15 -2.2164 3.6971
-5 -16 -12 4.2280 -3.1243
-5 -16 -11 0.1258 0.2285
-5 -16 -10 -0.3643 -1.3312
-5 -16 -9 -0.3581 3.2727
-5 -16 -8 5.4453 -0.0998
-5 -16 -7 3.3967 -0.0799
-5 -16 -6 11.0935 2.1370
-5 -16 -5 0.7018 11.6327
-5 -16 -4 3.5558 10.6757
-5 -16 -3 -7.0865 3.6264
-5 -16 -2 0.9491 -3.4264
-5 -16 -1 11.8959 2.9115
-5 -15 -26 -3.2382 10.8635
-5 -15 -25 -14.3832 8.9072
-5 -15 -24 -5.5679 -3.4794
-5 -15 -23 -10.6479 2.7151
-5 -15 -22 -6.4429 2.2082
-5 -15 -21 -1.3371 3.4778
-5 -15 -20 -8.7947 -7.6701
-5 -15 -19 -2.6156 3.2583
-5 -15 -18 -2.0182 3.4683
-5 -15 -17 -13.5312 -4.7567
-5 -15 -13 1.9333 -6.1277
-5 -15 -12 4.3870 -7.1382
-5 -15 -11 -1.5299 -6.9244
-5 -15 -10 -4.3028 -1.8118
-5 -15 -9 -2.8909 -0.7926
-5 -15 -8 5.2689 3.2632
-5 -15 -7 2.7584 -0.6680
-5 -15 -6 -5.3358 -0.7818
-5 -15 -5 -0.3000 -4.5294
-5 -15 -4 6.8546 -10.6733
-5 -15 -3 7.0662 1.4583
-5 -15 -2 7.9450 -7.5044
-5 -15 -1 9.8608 6.7969
-5 -14 -29 5.9286 -4.2183
-5 -14 -28 -5.3588 9.0015
-5 -14 -27 -0.9834 5.4674
-5 -14 -26 -2.7018 -0.9397
-5 -14 -25 4.6135 1.5610
-5 -14 -24 4.8802 4.0525
-5 -14 -23 4.1875 15.2524
-5 -14 -22 6.3607 3.3630
-5 -14 -21 -5.0321 12.1606
-5 -14 -20 -3.2525 8.9784
-5 -14 -19 -1.7168 -3.4515
-5 -14 -16 7.1797 5.1586
-5 -14 -15 0.4025 0.3815
-5 -14 -14 -2.4137 3.0060
-5 -14 -13 -0.7195 0.4220
-5 -14 -12 0.1971 -2.8012
-5 -14 -11 -7.5320 -5.0370
-5 -14 -10 -8.6864 -5.3261
-5 -14 -9 -5.5027 0.7272
-5 -14 -8 0.3249 1.7084
-5 -14 -7 -2.0936 6.8979
-5 -14 -6 2.8836 -2.7662
-5 -14 -5 -5.6601 -6.6133
-5 -14 -4 9.0379 3.0659
-5 -14 -3 -5.5724 9.4482
-5 -14 -2 -2.1302 -10.8798
-5 -14 -1 -4.7939 -7.5455
-5 -13 -32 5.6348 -2.4193
-5 -13 -31 6.8392 -1.0498
-5 -13 -30 -3.6616 -5.9297
-5 -13 -29 -10.6816 5.0384
-5 -13 -28 -0.0889 -10.9948
-5 -13 -27 -1.0719 2.4304
-5 -13 -26 8.6158 -4.8776
-5 -13 -25 -1.1931 6.4078
-5 -13 -24 5.7480 6.1482
-5 -13 -23 -9.1467 -4.1815
-5 -13 -22 0.5568 -2.6261
-5 -13 -21 8.9944 -0.8323
-5 -13 -18 -0.2714 13.7013
-5 -13 -17 1.4440 7.8088
-5 -13 -16 -5.9819 3.9678
-5 -13 -15 2.7210 -1.7130
-5 -13 -14 2.2257 0.4195
-5 -13 -13 -5.4962 -3.7758
-5 -13 -12 -3.2976 4.1083
-5 -13 -11 -0.3118 -0.3453
-5 -13 -10 0.8329 3.7719
-5 -13 -9 -11.7056 6.4296
-5 -13 -8 -6.2097 8.8887
-5 -13 -7 4.6980 2.5405
-5 -13 -6 7.5589 6.1216
-5 -13 -5 -1.4403 -2.9346
-5 -13 -4 -0.1735 7.2374
-5 -13 -3 2.2866 -1.7080
-5 -13 -2 -2.9205 2.9192
-5 -13 -1 5.2309 -6.2583
-5 -12 -34 -2.0545 4.3621
-5 -12 -33 -0.7781 1.1111
-5 -12 -32 -1.4241 -1.3411
-5 -12 -31 -11.0913 -10.2323
-5 -12 -30 2.8173 -1.6864
-5 -12 -29 -12.1713 -4.6242
-5 -12 -28 3.3550 4.7303
-5 -12 -27 -7.2541 2.0344
-5 -12 -26 -6.2532 8.6374
-5 -12 -25 -0.2500 -10.3582
-5 -12 -24 0.3764 -0.0333
-5 -12 -23 -3.7826 1.1695
-5 -12 -22 7.4083 3.3709
-5 -12 -20 -5.3580 3.6526
-5 -12 -19 -1.3572 2.8248
-5 -12 -18 -6.1099 -12.2241
-5 -12 -17 0.2524 1.0956
-5 -12 -16 5.0425 5.5396
-5 -12 -15 11.6524 4.6388
-5 -12 -14 -3.4494 -0.3236
-5 -12 -13 -1.2231 -0.7080
-5 -12 -12 -3.2570 4.6806
-5 -12 -11 -2.6462 3.8860
-5 -12 -10 3.6277 5.1180
-5 -12 -9 -3.7817 1.7335
-5 -12 -8 2.1366 1.7158
-5 -12 -7 9.6875 5.4917
-5 -12 -6 3.1451 6.1590
-5 -12 -5 9.1228 2.8928
-5 -12 -4 0.4288 -20.2571
-5 -12 -3 4.4525 4.5420
-5 -12 -2 1.3696 0.8004
-5 -12 -1 5.8424 0.2146
-5 -11 -36 -4.0049 -4.6553
-5 -11 -35 0.6095 -1.8619
-5 -11 -34 -3.1713 -4.7066
-5 -11 -33 9.2462 -2.0729
-5 -11 -32 3.4958 6.5361
-5 -11 -31 2.6038 -2.0140
-5 -11 -30 -2.6429 5.0632
-5 -11 -29 -1.2626 5.4557
-5 -11 -28 -7.6164 5.5176
-5 -11 -27 6.4354 8.0071
-5 -11 -26 -5.0577 9.3755
-5 -11 -25 2.8905 -1.0845
-5 -11 -24 4.6780 12.5461
-5 -11 -23 -3.8663 -2.2141
-5 -11 -22 2.3891 -1.6021
-5 -11 -21 -0.4805 4.5885
-5 -11 -20 11.1321 -1.8755
-5 -11 -19 4.3965 -2.3288
-5 -11 -18 6.9283 -2.0608
-5 -11 -17 0.0611 6.9288
-5 -11 -16 -2.5497 1.9983
-5 -11 -15 -2.9300 4.2739
-5 -11 -14 3.5770 -2.0250
-5 -11 -13 7.3783 -4.9700
-5 -11 -12 -3.1043 11.9974
-5 -11 -11 -4.5323 -0.7226
-5 -11 -10 5.4089 8.7197
-5 -11 -9 7.6935 1.2730
-5 -11 -8 1.0206 1.4085
-5 -11 -7 -10.0845 6.3155
-5 -11 -6 12.1775 1.2532
-5 -11 -5 1.9416 -5.5603
-5 -11 -4 5.5032 -8.7443
-5 -11 -3 -5.4388 -0.7130
-5 -11 -2 1.3851 -8.1084
-5 -11 -1 -13.5371 5.1851
-5 -10 -38 3.4986 -4.6262
-5 -10 -37 0.1231 1.6021
-5 -10 -36 5.0917 -5.2210
-5 -10 -35 -2.6363 7.4346
-5 -10 -34 -6.0061 3.5831
-5 -10 -33 -7.7481 5.0226
-5 -10 -32 2.3714 2.2490
-5 -10 -31 -4.7688 0.9170
-5 -10 -30 5.1948 -7.9178
-5 -10 -29 3.5659 2.5343
-5 -10 -28 -1.2018 -7.7755
-5 -10 -27 11.2994 2.7715
-5 -10 -26 -1.4663 3.0395
-5 -10 -25 13.5110 -7.0760
-5 -10 -24 9.5922 4.3614
-5 -10 -23 2.1934 -2.5148
-5 -10 -22 2.1195 -2.4323
-5 -10 -21 -1.0968 -5.7971
-5 -10 -20 1.6584 -0.9164
-5 -10 -19 -1.5975 0.3777
-5 -10 -18 1.9949 -2.4075
-5 -10 -17 -2.5560 -5.8782
-5 -10 -16 -4.6375 -5.2262
-5 -10 -15 5.1878 2.9852
-5 -10 -14 -6.0124 3.3379
-5 -10 -13 10.2449 4.4307
-5 -10 -12 -5.9253 2.7652
-5 -10 -11 8.5607 1.9585
-5 -10 -10 4.2297 5.4748
-5 -10 -9 9.7249 -2.6470
-5 -10 -8 3.6095 2.5459
-5 -10 -7 5.6746 -3.8357
-5 -10 -6 5.1375 2.0523
-5 -10 -5 -1.8315 8.3490
-5 -10 -4 12.8169 9.2113
-5 -10 -3 -7.7147 -21.3980
-5 -10 -2 -5.3566 3.2777
-5 -10 -1 -6.4863 -2.9062
-5 -9 -40 -0.3403 -0.0357
-5 -9 -39 -1.1090 -1.1432
-5 -9 -38 5.8130 2.2912
-5 -9 -37 -7.4267 -2.7024
-5 -9 -36 0.3867 -0.3964
-5 -9 -35 -2.3201 -8.0655
-5 -9 -34 -0.0695 3.1731
-5 -9 -33 -1.3103 -9.1446
-5 -9 -32 10.9169 8.0404
-5 -9 -31 2.5848 4.6402
-5 -9 -30 10.2068 -5.0008
-5 -9 -29 -3.9512 2.5732
-5 -9 -28 -4.3066 -6.8502
-5 -9 -27 3.8453 -1.0828
-5 -9 -26 -10.1850 -2.5639
-5 -9 -25 -2.9721 -7.4545
-5 -9 -24 0.4739 -3.1669
-5 -9 -23 -3.5207 -5.0008
-5 -9 -22 -5.5961 -3.4039
-5 -9 -21 -6.1614 -6.3919
-5 -9 -20 0.7446 3.3331
-5 -9 -19 -7.6498 5.1260
-5 -9 -18 -2.2396 -2.9827
-5 -9 -17 5.5437 6.3761
-5 -9 -16 7.7185 -4.9870
-5 -9 -15 -2.6221 11.0417
-5 -9 -14 -3.1118 -1.5845
-5 -9 -13 1.3478 10.3253
-5 -9 -12 6.9664 -2.5034
-5 -9 -11 13.9157 8.0692
-5 -9 -10 3.8774 -3.9302
-5 -9 -9 6.0339 -1.2516
-5 -9 -8 16.6231 -3.7426
-5 -9 -7 -2.1102 -13.9448
-5 -9 -6 -11.2641 1.6134
-5 -9 -5 15.7683 -6.3584
-5 -9 -4 1.1218 -1.2847
-5 -9 -3 12.7334 -2.6585
-5 -9 -2 3.7111 1.5518
-5 -9 -1 -5.0171 -6.9953
-5 -8 -41 -2.9072 0.8979
-5 -8 -40 -3.9064 10.7950
-5 -8 -39 0.0813 -0.5829
-5 -8 -38 -3.8726 5.7497
-5 -8 -37 -0.8613 -3.7505
-5 -8 -36 -7.5223 1.1624
-5 -8 -35 4.1984 -2.6510
-5 -8 -34 -6.5725 8.1046
-5 -8 -33 -5.1867 -4.3023
-5 -8 -32 -3.3106 5.5448
-5 -8 -31 -8.8306 -5.8547
-5 -8 -30 -2.9035 -6.6418
-5 -8 -29 1.1175 1.1130
-5 -8 -28 -3.9272 -8.6604
-5 -8 -27 0.2700 0.2563
-5 -8 -26 -4.9709 6.4189
-5 -8 -25 -4.0827 3.9739
-5 -8 -24 -6.2670 0.4905
-5 -8 -23 -0.2165 1.7949
-5 -8 -22 -3.2014 13.8827
-5 -8 -21 0.5336 1.7029
-5 -8 -20 6.8942 6.5222
-5 -8 -19 -7.0361 8.7387
-5 -8 -18 5.3463 2.0256
-5 -8 -17 0.3928 -0.0339
-5 -8 -16 9.3049 2.2185
-5 -8 -15 -1.4508 -11.9352
-5 -8 -14 6.2441 -12.0841
-5 -8 -13 -3.0112 1.8350
-5 -8 -12 14.3626 -0.7634
-5 -8 -11 5.5273 -5.1920
-5 -8 -10 3.1876 2.1657
-5 -8 -9 11.0326 -16.4290
-5 -8 -8 -0.0690 -13.6857
-5 -8 -7 -1.3121 -1.7063
-5 -8 -6 -1.5011 -17.7367
-5 -8 -5 -8.3914 -5.7967
-5 -8 -4 -5.8089 5.5645
-5 -8 -3 5.3424 -3.2373
-5 -8 -2 -8.4604 -10.4761
-5 -8 -1 4.3825 -11.8218
-5 -7 -42 -2.6302 1.3053
-5 -7 -41 2.9216 4.1513
-5 -7 -40 -5.8824 1.4182
-5 -7 -39 6.7464 3.6691
-5 -7 -38 2.0728 -1.0130
-5 -7 -37 5.5066 1.9158
-5 -7 -36 -7.8190 0.6649
-5 -7 -35 6.0653 5.6598
-5 -7 -34 -6.3154 5.9881
-5 -7 -33 1.1443 -1.7415
-5 -7 -32 3.6324 -3.8499
-5 -7 -31 -4.0851 9.5938
-5 -7 -30 1.9574 5.3396
-5 -7 -29 -4.3004 10.1794
-5 -7 -28 -3.2203 3.9065
-5 -7 -27 -2.5767 2.2668
-5 -7 -26 3.4794 0.2789
-5 -7 -25 -0.9182 3.7803
-5 -7 -24 -1.7164 -1.8927
-5 -7 -23 14.1518 4.8878
-5 -7 -22 1.7832 8.2971
-5 -7 -21 -5.3698 -5.0783
-5 -7 -20 12.4489 -4.1362
-5 -7 -19 14.3836 -7.4534
-5 -7 -18 -2.2163 -1.8288
-5 -7 -17 2.5650 -1.6844
-5 -7 -16 0.8752 -0.0509
-5 -7 -15 0.2368 -13.2490
-5 -7 -14 -4.9761 1.6965
-5 -7 -13 -10.4519 -6.1229
-5 -7 -12 -18.9678 -3.5209
-5 -7 -11 8.3139 1.9685
-5 -7 -10 1.6964 -6.8326
-5 -7 -9 -7.7730 -13.2119
-5 -7 -8 -1.9620 0.5785
-5 -7 -7 3.9475 -9.2621
-5 -7 -6 -10.9143 1.9010
-5 -7 -5 -16.9940 3.3902
-5 -7 -4 -4.6293 0.6015
-5 -7 -3 -10.2038 10.9088
-5 -7 -2 3.3514 0.3761
-5 -7 -1 -14.1079 6.7288
-5 -6 -43 -2.3459 2.2303
-5 -6 -42 2.0538 -7.3760
-5 -6 -41 0.8268 -2.9083
-5 -6 -40 4.8907 -4.0814
-5 -6 -39 0.9613 2.7010
-5 -6 -38 4.1306 -8.0722
-5 -6 -37 4.3435 5.3989
-5 -6 -36 -3.5530 -5.3253
-5 -6 -35 -1.4364 1.6351
-5 -6 -34 6.6954 7.0171
-5 -6 -33 -1.2340 0.2103
-5 -6 -32 5.9743 5.8225
-5 -6 -31 -6.0186 0.2772
-5 -6 -30 -5.5011 2.4615
-5 -6 -29 3.3105 0.2136
-5 -6 -28 6.6710 9.5372
-5 -6 -27 -0.2878 -1.4394
-5 -6 -26 6.1833 -2.5275
-5 -6 -25 -3.2602 8.2982
-5 -6 -24 0.1689 3.8004
-5 -6 -23 0.7958 -8.3714
-5 -6 -22 -0.8539 -5.5615
-5 -6 -21 -3.0833 -3.0153
-5 -6 -20 3.6023 -9.4267
-5 -6 -19 -5.2201 3.1960
-5 -6 -18 -13.1033 -6.2069
-5 -6 -17 -1.7145 -2.1874
-5 -6 -16 -8.2392 -1.8775
-5 -6 -15 2.3609 9.8749
-5 -6 -14 -3.2024 -9.0589
-5 -6 -13 -15.7197 10.2828
-5 -6 -12 -8.2572 8.7029
-5 -6 -11 7.2908 11.0155
-5 -6 -10 -10.7829 6.1442
-5 -6 -9 4.3335 3.1825
-5 -6 -8 -6.5727 -8.1089
-5 -6 -7 2.4471 -9.4221
-5 -6 -6 -5.2269 14.2580
-5 -6 -5 -0.9576 -13.8800
-5 -6 -4 6.2713 3.5953
-5 -6 -3 14.6362 2.6477
-5 -6 -2 -0.7379 20.6040
-5 -6 -1 19.7251 -1.0036
-5 -5 -44 -0.0536 1.0594
-5 -5 -43 3.0764 -1.5391
-5 -5 -42 -1.0668 5.7769
-5 -5 -41 -5.9795 -4.8630
-5 -5 -40 0.1994 -3.2500
-5 -5 -39 -11.6126 2.5278
-5 -5 -38 -0.2881 -5.1635
-5 -5 -37 -1.0874 -2.4733
-5 -5 -36 -4.6001 -1.7995
-5 -5 -35 3.8419 -7.6284
-5 -5 -34 -0.4691 5.5567
-5 -5 -33 3.7679 -0.0252
-5 -5 -32 3.9752 -4.5482
-5 -5 -31 9.8464 -0.6927
-5 -5 -30 2.0668 1.2267
-5 -5 -29 6.3601 -0.4109
-5 -5 -28 3.4620 13.7806
-5 -5 -27 6.4122 -3.2867
-5 -5 -26 3.4894 5.1863
-5 -5 -25 3.0642 4.0479
-5 -5 -24 2.8262 6.0268
-5 -5 -23 2.8352 -5.3348
-5 -5 -22 14.4605 8.3214
-5 -5 -21 -8.8491 1.6921
-5 -5 -20 -16.1886 0.0618
-5 -5 -19 -14.0034 7.7773
-5 -5 -18 6.8353 -2.8744
-5 -5 -17 -9.8388 6.4685
-5 -5 -16 11.2771 16.4868
-5 -5 -15 -1.9458 -3.2824
-5 -5 -14 8.5553 -1.2610
-5 -5 -13 6.1156 9.4606
-5 -5 -12 -8.7402 -5.4248
-5 -5 -11 3.9556 13.8186
-5 -5 -10 20.5028 7.1713
-5 -5 -9 26.9014 8.6245
-5 -5 -8 -15.0828 -5.6721
-5 -5 -7 4.0611 3.3144
-5 -5 -6 -8.7999 -11.3010
-5 -5 -5 -2.3395 2.7826
-5 -5 -4 -14.8149 -15.4981
-5 -5 -3 -0.1879 11.9392
-5 -5 -2 1.0156 -25.9321
-5 -5 -1 -0.0721 -2.8964
-5 -4 -45 1.3661 8.7261
-5 -4 -44 -3.2364 0.1745
-5 -4 -43 5.3461 3.4848
-5 -4 -42 5.4720 8.6711
-5 -4 -41 -3.0327 -4.3444
-5 -4 -40 6.3990 0.9656
-5 -4 -39 -2.2899 3.7935
-5 -4 -38 -3.5160 2.6255
-5 -4 -37 2.2684 6.9532
-5 -4 -36 0.7906 -1.1094
-5 -4 -35 -3.8863 -0.9815
-5 -4 -34 -5.3001 -3.0572
-5 -4 -33 -4.8286 -1.5725
-5 -4 -32 0.4047 -2.2648
-5 -4 -31 6.5522 0.6706
-5 -4 -30 -12.5136 -8.8713
-5 -4 -29 2.5721 -4.5310
-5 -4 -28 -3.2112 -6.0222
-5 -4 -27 2.7033 -3.6692
-5 -4 -26 4.1760 -4.2205
-5 -4 -25 14.2757 -14.0610
-5 -4 -24 0.7249 1.3798
-5 -4 -23 11.8385 2.1086
-5 -4 -22 8.7937 -10.2161
-5 -4 -21 -2.4748 -13.2682
-5 -4 -20 5.7088 5.1772
-5 -4 -19 10.5432 1.0432
-5 -4 -18 -8.8660 27.1211
-5 -4 -17 7.3780 9.5845
-5 -4 -16 -6.9286 4.5529
-5 -4 -15 -1.9712 6.3766
-5 -4 -14 15.0292 -19.0356
-5 -4 -13 -1.4761 -6.7373
-5 -4 -12 -13.0288 -6.5679
-5 -4 -11 -4.7321 12.6164
-5 -4 -10 1.8350 -6.8044
-5 -4 -9 -7.2950 1.5944
-5 -4 -8 9.6040 -25.2606
-5 -4 -7 0.2091 -25.2657
-5 -4 -6 9.1119 -12.3180
-5 -4 -5 -19.3203 13.8092
-5 -4 -4 -8.7625 18.5096
-5 -4 -3 -29.0974 -6.9697
-5 -4 -2 23.0766 17.1142
-5 -4 -1 -30.3523 12.4490
-5 -3 -45 4.3553 0.0280
-5 -3 -44 0.8143 6.8402
-5 -3 -43 9.2236 -8.3432
-5 -3 -42 7.3767 4.0892
-5 -3 -41 4.3494 0.7001
-5 -3 -40 2.7346 -5.6939
-5 -3 -39 -1.9404 -3.0141
-5 -3 -38 0.1292 5.5478
-5 -3 -37 -3.2080 -3.5785
-5 -3 -36 1.9021 -2.3376
-5 -3 -35 2.3784 -2.2712
-5 -3 -34 -1.8502 -4.6042
-5 -3 -33 -10.1180 8.1066
-5 -3 -32 -6.0122 -2.4074
-5 -3 -31 -5.3865 7.2052
-5 -3 -30 1.2029 0.5199
-5 -3 -29 0.0185 -5.2831
-5 -3 -28 -4.9155 5.6009
-5 -3 -27 -0.5121 11.4883
-5 -3 -26 2.7098 -4.1904
-5 -3 -25 -8.5969 0.2270
-5 -3 -24 -1.6427 -2.3743
-5 -3 -23 -9.9328 -9.6790
-5 -3 -22 -5.1499 -11.4387
-5 -3 -21 8.3325 -0.1589
-5 -3 -20 -2.8252 -16.9177
-5 -3 -19 -9.6318 5.9434
-5 -3 -18 4.7335 -11.4028
-5 -3 -17 9.5303 -4.4452
-5 -3 -16 27.5075 7.1118
-5 -3 -15 7.2501 15.2907
-5 -3 -14 11.7124 2.8536
-5 -3 -13 -0.4164 12.3835
-5 -3 -12 -0.4649 -1.2918
-5 -3 -11 -23.0286 1.8802
-5 -3 -10 -6.4983 15.3613
-5 -3 -9 17.9605 23.3324
-5 -3 -8 11.3751 12.1242
-5 -3 -7 -12.4586 19.8111
-5 -3 -6 -40.7652 5.4592
-5 -3 -5 -6.7768 -8.4963
-5 -3 -4 -25.3026 23.1238
-5 -3 -3 -1.1440 -10.8055
-5 -3 -2 19.4987 40.8174
-5 -3 -1 17.4151 13.9797
-5 -2 -45 7.1394 2.7291
-5 -2 -44 -5.6019 0.4970
-5 -2 -43 -9.4194 -7.3727
-5 -2 -42 3.7222 -7.5918
-5 -2 -41 -0.2944 -4.5941
-5 -2 -40 -4.1773 -3.8934
-5 -2 -39 7.5687 -9.8430
-5 -2 -38 0.7348 1.7732
-5 -2 -37 -1.9586 2.2514
-5 -2 -36 7.4117 6.4660
-5 -2 -35 -5.5136 3.2793
-5 -2 -34 0.3631 -0.5495
-5 -2 -33 -8.7085 2.0141
-5 -2 -32 -11.1476 2.6093
-5 -2 -31 9.6226 10.3899
-5 -2 -30 -4.0471 16.0030
-5 -2 -29 -3.5741 0.6150
-5 -2 -28 3.9254 5.4363
-5 -2 -27 -3.8624 -7.8747
-5 -2 -26 -0.2277 6.6126
-5 -2 -25 6.7407 -10.5693
-5 -2 -24 7.1543 -6.0991
-5 -2 -23 -10.7692 -1.5964
-5 -2 -22 6.8983 20.1860
-5 -2 -21 -7.0463 -4.4660
-5 -2 -20 -5.1928 -0.8440
-5 -2 -19 -7.7894 -7.3615
-5 -2 -18 -1.0781 -5.0068
-5 -2 -17 -5.1675 -3.6006
-5 -2 -16 4.9229 -3.9279
-5 -2 -15 -11.0212 -9.8105
-5 -2 -14 12.6016 -5.9841
-5 -2 -13 21.1061 -21.0045
-5 -2 -12 23.6775 -16.7455
-5 -2 -11 -6.3889 1.6004
-5 -2 -10 29.0723 1.5540
-5 -2 -9 -9.2336 19.4646
-5 -2 -8 28.6993 -2.5420
-5 -2 -7 20.8093 5.3538
-5 -2 -6 22.7666 -24.2869
-5 -2 -5 51.5522 2.5834
-5 -2 -4 3.0275 39.0835
-5 -2 -3 6.8027 30.8767
-5 -2 -2 -8.8773 -3.0128
-5 -2 -1 34.8559 20.7771
-5 -1 -46 -2.7742 4.6091
-5 -1 -45 6.7023 -3.3090
-5 -1 -44 3.9285 8.7336
-5 -1 -43 0.8369 -2.8112
-5 -1 -42 -0.7239 1.5038
-5 -1 -41 1.6409 9.3491
-5 -1 -40 -11.9964 3.0280
-5 -1 -39 -0.8468 -5.1845
-5 -1 -38 -5.3191 -0.3979
-5 -1 -37 -5.3997 -6.9719
-5 -1 -36 2.2994 0.1380
-5 -1 -35 -7.0716 -4.8891
-5 -1 -34 10.9091 -12.9442
-5 -1 -33 7.4952 10.8113
-5 -1 -32 -10.5303 -2.5036
-5 -1 -31 5.6181 9.1670
-5 -1 -30 -1.1231 17.7413
-5 -1 -29 15.2010 -1.6499
-5 -1 -28 6.5437 -1.3638
-5 -1 -27 10.9554 7.7610
-5 -1 -26 -4.2210 10.4853
-5 -1 -25 7.5944 -3.5162
-5 -1 -24 -19.5006 4.6692
-5 -1 -23 3.3496 0.4694
-5 -1 -22 -11.1708 -8.6067
-5 -1 -21 -5.3356 -0.3404
-5 -1 -20 19.0450 -3.4271
-5 -1 -19 -1.0886 -2.2598
-5 -1 -18 -9.8539 8.6502
-5 -1 -17 -15.2438 -4.0583
-5 -1 -16 -11.0184 -5.8880
-5 -1 -15 5.0771 -4.7653
-5 -1 -14 -2.9651 2.8108
-5 -1 -13 -5.0643 -20.5243
-5 -1 -12 7.7855 23.2526
-5 -1 -11 -14.6291 -48.0999
-5 -1 -10 -17.1139 -0.5999
-5 -1 -9 -18.4268 -19.7711
-5 -1 -8 15.2337 -6.1094
-5 -1 -7 30.8684 -1.7351
-5 -1 -6 -4.3081 -15.8262
-5 -1 -5 -16.7640 -16.6601
-5 -1 -4 14.3378 -44.5229
-5 -1 -3 -24.1191 -20.7554
-5 -1 -2 26.1529 -42.3811
-5 -1 -1 24.3600 24.1485
-4 -18 -11 1.1628 0.8328
-4 -18 -10 -0.3189 -6.4408
-4 -18 -9 0.2523 -3.9433
-4 -18 -8 1.9484 -8.8561
-4 -18 -7 -2.0698 -2.9194
-4 -18 -6 6.5845 3.6681
-4 -18 -5 -11.5300 -8.6272
-4 -18 -4 -7.9279 8.7682
-4 -18 -3 -11.7273 -9.5727
-4 -18 -2 0.4228 0.0191
-4 -18 -1 -10.5984 1.1927
-4 -17 -18 -1.7863 -9.2191
-4 -17 -17 4.2099 1.0372
-4 -17 -16 -1.4715 2.8064
-4 -17 -15 -5.0085 1.7388
-4 -17 -14 4.1139 -3.5723
-4 -17 -13 -1.7844 -1.0566
-4 -17 -12 1.1876 -5.4537
-4 -17 -11 4.5995 0.7742
-4 -17 -10 2.9485 -1.3926
-4 -17 -9 -2.4281 -6.5556
-4 -17 -8 -8.1604 9.0424
-4 -17 -7 -1.8959 -1.9864
-4 -17 -6 -17.5973 -3.9881
-4 -17 -5 -1.3555 -0.9924
-4 -17 -4 1.5820 4.2142
-4 -17 -3 2.2285 -3.6344
-4 -17 -2 -3.2299 13.0011
-4 -17 -1 2.9182 14.6966
-4 -16 -23 -8.6241 -0.0260
-4 -16 -22 5.8480 5.3564
-4 -16 -21 -4.6891 -0.5919
-4 -16 -20 0.9695 -0.2487
-4 -16 -19 -1.4488 4.6788
-4 -16 -18 -2.0081 -5.5064
-4 -16 -17 -3.8908 -9.6703
-4 -16 -16 -6.0011 11.0750
-4 -16 -15 -2.4581 0.5730
-4 -16 -14 8.1066 -4.6646
-4 -16 -13 2.7383 8.1824
-4 -16 -12 -0.7269 4.9951
-4 -16 -11 0.8399 3.0452
-4 -16 -10 -9.4909 -0.4616
-4 -16 -9 -4.0899 2.2597
-4 -16 -8 2.6550 -4.2405
-4 -16 -7 -9.0640 1.5397
-4 -16 -6 -0.0529 7.1202
-4 -16 -5 7.0218 7.0403
-4 -16 -4 -3.3411 9.8984
-4 -16 -3 -10.7078 11.0767
-4 -16 -2 6.9286 -3.6391
-4 -16 -1 -4.4611 -5.6552
-4 -15 -27 8.7577 2.7663
-4 -15 -26 0.4874 -1.4220
-4 -15 -25 -2.2160 -2.5273
-4 -15 -24 0.5567 7.4309
-4 -15 -23 6.2244 3.3982
-4 -15 -22 5.7580 4.2799
-4 -15 -21 -4.7892 2.1567
-4 -15 -20 2.7456 -1.2353
-4 -15 -19 12.9820 0.8346
-4 -15 -18 -9.6144 -2.5777
-4 -15 -17 0.4454 -0.1013
-4 -15 -16 3.5249 -0.0141
-4 -15 -15 -6.9670 6.9487
-4 -15 -14 3.3668 6.0839
-4 -15 -13 2.9365 3.2626
-4 -15 -12 1.4351 -8.7119
-4 -15 -11 3.6439 -8.4347
-4 -15 -10 6.3908 7.4347
-4 -15 -9 8.0811 -5.2556
-4 -15 -8 -0.9042 4.5034
-4 -15 -7 1.6482 7.3780
-4 -15 -6 -2.2802 7.7810
-4 -15 -5 -3.0209 -7.6191
-4 -15 -4 1.9352 10.0325
-4 -15 -3 10.2501 -2.3738
-4 -15 -2 6.9285 1.4357
-4 -15 -1 8.0948 4.2444
-4 -14 -30 8.9227 -0.3946
-4 -14 -29 -3.4562 -1.1760
-4 -14 -28 4.0780 4.0343
-4 -14 -27 -4.9355 -5.4893
-4 -14 -26 -5.0163 -7.0500
-4 -14 -25 0.3864 -5.7433
-4 -14 -24 -3.5367 -2.5452
-4 -14 -23 -4.7671 -3.5364
-4 -14 -22 5.1838 -1.8256
-4 -14 -21 6.9843 3.4097
-4 -14 -20 7.6616 -12.2609
-4 -14 -19 -5.4187 5.6435
-4 -14 -18 2.4927 -0.2332
-4 -14 -17 -6.8718 -9.5505
-4 -14 -16 -0.8008 -0.4094
-4 -14 -15 -6.2092 2.9196
-4 -14 -14 6.6250 -1.4201
-4 -14 -13 12.8021 -3.0210
-4 -14 -12 1.9912 -3.5520
-4 -14 -11 3.5080 4.1022
-4 -14 -10 -4.4205 -4.8604
-4 -14 -9 -4.9283 -5.6175
-4 -14 -8 -4.7766 -4.3532
-4 -14 -7 10.6498 -2.4095
-4 -14 -6 -8.7112 -1.3638
-4 -14 -5 4.8451 7.6709
-4 -14 -4 8.4960 0.8801
-4 -14 -3 -1.3161 8.7715
-4 -14 -2 -5.0736 1.7534
-4 -14 -1 5.6043 -8.5297
-4 -13 -33 -1.3144 -2.0835
-4 -13 -32 2.9692 2.4926
-4 -13 -31 10.0409 -10.7636
-4 -13 -30 1.2942 2.0472
-4 -13 -29 -0.5837 -9.8356
-4 -13 -28 -1.9048 -6.6159
-4 -13 -27 -2.2076 -0.6228
-4 -13 -26 4.5265 -4.5552
-4 -13 -25 -1.1719 -2.7966
-4 -13 -24 -5.9909 1.2913
-4 -13 -23 -11.4137 1.6019
-4 -13 -22 4.0197 8.9686
-4 -13 -21 -13.4964 -2.3278
-4 -13 -20 -2.9160 1.3942
-4 -13 -19 -2.4932 -15.3261
-4 -13 -18 -0.9529 -0.8623
-4 -13 -17 -3.3601 -6.8639
-4 -13 -16 -2.7504 8.7620
-4 -13 -15 -4.0340 4.3183
-4 -13 -14 -1.2639 4.4394
-4 -13 -13 -5.5752 -1.2013
-4 -13 -12 -4.3628 -6.0344
-4 -13 -11 -1.5695 -17.3273
-4 -13 -10 -6.4091 -6.7084
-4 -13 -9 2.3477 6.2932
-4 -13 -8 -1.0795 -7.1351
-4 -13 -7 -10.6297 0.4651
-4 -13 -6 0.1811 5.7929
-4 -13 -5 -2.0598 3.7093
-4 -13 -4 7.3105 -6.6464
-4 -13 -3 9.5138 5.3066
-4 -13 -2 7.2635 0.4163
-4 -13 -1 7.8614 -5.7348
-4 -12 -35 -5.4469 -6.1971
-4 -12 -34 -6.4188 -6.0610
-4 -12 -33 6.2799 -2.7355
-4 -12 -32 -1.5681 -1.0218
-4 -12 -31 2.3333 -5.8699
-4 -12 -30 -0.9303 1.3300
-4 -12 -29 -5.7193 -7.4864
-4 -12 -28 -0.8419 1.3454
-4 -12 -27 -10.3451 1.0790
-4 -12 -26 -9.5637 6.2845
-4 -12 -25 -6.2819 -4.2662
-4 -12 -24 -8.9356 5.8103
-4 -12 -23 -3.8888 -9.7257
-4 -12 -22 -7.9214 8.4774
-4 -12 -21 7.6660 3.0303
-4 -12 -20 -0.9199 9.5491
-4 -12 -19 6.9581 6.2251
-4 -12 -18 -11.6878 9.4994
-4 -12 -17 -1.3318 3.3722
-4 -12 -16 -9.2373 1.4309
-4 -12 -15 -0.2815 3.2641
-4 -12 -14 -3.9904 -0.3405
-4 -12 -13 13.5938 7.9147
-4 -12 -12 -2.2411 -4.8899
-4 -12 -11 -4.2836 12.1957
-4 -12 -10 -9.5114 6.8581
-4 -12 -9 -10.3298 3.4878
-4 -12 -8 -4.9437 3.6897
-4 -12 -7 -7.3587 -1.1220
-4 -12 -6 3.7002 3.5236
-4 -12 -5 -11.6811 6.6243
-4 -12 -4 7.0386 5.3282
-4 -12 -3 11.8570 0.9183
-4 -12 -2 -1.5630 -10.2422
-4 -12 -1 -3.1818 -5.5620
-4 -11 -37 -0.5864 3.3507
-4 -11 -36 -2.1335 -0.4872
-4 -11 -35 -1.8027 6.1712
-4 -11 -34 -3.9519 5.5014
-4 -11 -33 7.8320 1.8701
-4 -11 -32 -11.8688 6.8517
-4 -11 -31 -2.9075 -0.1416
-4 -11 -30 -3.9737 3.9335
-4 -11 -29 4.0269 -4.6655
-4 -11 -28 -5.2933 1.0280
-4 -11 -27 5.0935 0.7965
-4 -11 -26 -6.4947 4.3025
-4 -11 -25 11.5236 8.4812
-4 -11 -24 -4.2724 10.8183
-4 -11 -23 4.7528 12.8898
-4 -11 -22 -5.4146 3.1145
-4 -11 -21 3.1591 7.7480
-4 -11 -20 -4.1386 1.4328
-4 -11 -19 4.3830 5.9828
-4 -11 -18 8.3635 -4.1686
-4 -11 -17 3.3016 4.0214
-4 -11 -16 11.3126 -4.9403
-4 -11 -15 -4.1139 7.7809
-4 -11 -14 7.9503 -5.2250
-4 -11 -13 -7.9671 9.5364
-4 -11 -12 2.6722 -3.1064
-4 -11 -11 -5.3070 -1.4368
-4 -11 -10 0.7253 0.0907
-4 -11 -9 5.0571 0.2555
-4 -11 -8 11.1229 17.9507
-4 -11 -7 4.5693 -5.7907
-4 -11 -6 -0.7358 5.4721
-4 -11 -5 -2.0584 5.9996
-4 -11 -4 1.1521 8.5582
-4 -11 -3 3.5791 -4.4527
-4 -11 -2 12.9043 -3.5485
-4 -11 -1 4.5678 -8.2095
-4 -10 -39 -5.2604 -2.8551
-4 -10 -38 1.0420 -0.6084
-4 -10 -37 3.5043 -4.9829
-4 -10 -36 4.3674 -6.7319
-4 -10 -35 10.6507 7.0734
-4 -10 -34 -5.0261 -5.6817
-4 -10 -33 3.8331 0.1832
-4 -10 -32 1.5257 -5.6069
-4 -10 -31 8.0101 0.5833
-4 -10 -30 2.8155 -3.1912
-4 -10 -29 5.1313 12.5990
-4 -10 -28 0.6767 -2.0919
-4 -10 -27 2.0093 6.1668
-4 -10 -26 -6.2560 -10.5023
-4 -10 -25 -0.8952 4.1343
-4 -10 -24 8.6190 -6.7819
-4 -10 -23 10.6923 4.6748
-4 -10 -22 4.0453 -7.0084
-4 -10 -21 8.9423 0.8587
-4 -10 -20 3.0538 3.1963
-4 -10 -19 -3.4348 -5.0393
-4 -10 -18 8.0493 5.8012
-4 -10 -17 1.4652 -3.7060
-4 -10 -16 8.3398 3.4573
-4 -10 -15 -7.2339 -7.6714
-4 -10 -14 -0.3881 5.2188
-4 -10 -13 -10.5896 -5.2116
-4 -10 -12 -0.4363 6.4701
-4 -10 -11 5.0200 5.5239
-4 -10 -10 -9.4727 11.8829
-4 -10 -9 4.2944 7.0623
-4 -10 -8 -4.8252 3.6270
-4 -10 -7 6.9203 -0.8171
-4 -10 -6 1.0812 -10.9579
-4 -10 -5 4.7855 -4.9283
-4 -10 -4 -9.4512 0.5687
-4 -10 -3 4.9395 8.4446
-4 -10 -2 2.4890 8.8682
-4 -10 -1 2.2636 -12.3075
-4 -9 -41 0.3426 -4.8702
-4 -9 -40 -6.1901 -5.9261
-4 -9 -39 -0.9225 -1.3763
-4 -9 -38 -4.0026 1.1352
-4 -9 -37 -3.3612 8.6964
-4 -9 -36 -0.3504 -7.4000
-4 -9 -35 -8.9449 -1.0966
-4 -9 -34 -6.2450 -5.5161
-4 -9 -33 -1.0880 -0.9610
-4 -9 -32 7.0580 0.2384
-4 -9 -31 -8.0288 2.5262
-4 -9 -30 -4.1770 -3.8719
-4 -9 -29 -10.0463 -3.2657
-4 -9 -28 9.2595 -10.7425
-4 -9 -27 -1.9246 -2.5385
-4 -9 -26 10.3326 2.9968
-4 -9 -25 -4.6971 0.4908
-4 -9 -24 1.9646 -9.0593
-4 -9 -23 -4.2757 9.8688
-4 -9 -22 -6.4505 -9.6033
-4 -9 -21 4.6250 -14.0538
-4 -9 -20 -3.3563 1.2748
-4 -9 -19 -3.4128 0.5552
-4 -9 -18 -3.4670 3.0521
-4 -9 -17 2.6086 -3.4210
-4 -9 -16 -4.1733 1.4475
-4 -9 -15 10.6073 -8.9502
-4 -9 -14 1.1170 0.4754
-4 -9 -13 3.1592 2.4671
-4 -9 -12 3.0322 6.8443
-4 -9 -11 3.1436 15.0677
-4 -9 -10 6.6289 0.8462
-4 -9 -9 9.7163 3.3769
-4 -9 -8 17.7724 3.2651
-4 -9 -7 7.2852 15.3876
-4 -9 -6 9.7672 -3.5550
-4 -9 -5 -1.8930 -2.7166
-4 -9 -4 -13.9220 -5.7839
-4 -9 -3 0.9201 9.0969
-4 -9 -2 -6.7824 -3.8585
-4 -9 -1 12.6507 7.1228
-4 -8 -42 4.9538 -6.5856
-4 -8 -41 -2.4277 4.0445
-4 -8 -40 -0.5949 -3.6931
-4 -8 -39 -6.4872 4.3855
-4 -8 -38 -0.2398 5.2695
-4 -8 -37 -3.9485 3.7432
-4 -8 -36 0.3227 -2.5781
-4 -8 -35 1.8915 -0.0462
-4 -8 -34 -0.7530 5.5484
-4 -8 -33 -3.9914 3.4876
-4 -8 -32 -0.1455 5.8325
-4 -8 -31 1.1300 -7.5941
-4 -8 -30 5.3910 -0.8503
-4 -8 -29 1.5280 -6.9661
-4 -8 -28 -8.8147 10.9427
-4 -8 -27 -3.9999 1.5038
-4 -8 -26 4.4085 1.0677
-4 -8 -25 -15.0354 -3.7132
-4 -8 -24 1.9061 -8.3790
-4 -8 -23 3.3468 3.8004
-4 -8 -22 -8.8563 0.5414
-4 -8 -21 -4.1744 -2.2931
-4 -8 -20 -4.3298 6.2355
-4 -8 -19 -4.6290 4.3642
-4 -8 -18 -4.0381 -3.7709
-4 -8 -17 7.4740 8.3262
-4 -8 -16 -0.6116 2.4846
-4 -8 -15 2.0876 -1.4331
-4 -8 -14 -4.2072 0.3400
-4 -8 -13 -2.3200 -11.6648
-4 -8 -12 -0.3391 -7.5899
-4 -8 -11 5.7811 -2.8697
-4 -8 -10 16.3993 -0.7510
-4 -8 -9 7.2015 -9.2056
-4 -8 -8 8.0319 -2.0520
-4 -8 -7 4.8523 -8.0045
-4 -8 -6 4.6348 -16.5310
-4 -8 -5 13.3019 -2.2917
-4 -8 -4 12.3951 -12.0503
-4 -8 -3 -10.5821 3.2250
-4 -8 -2 -4.9677 15.5758
-4 -8 -1 -2.2694 12.9119
-4 -7 -43 -0.5006 -6.2720
-4 -7 -42 2.9228 -3.1045
-4 -7 -41 -3.0135 -3.4261
-4 -7 -40 -0.1166 -0.5667
-4 -7 -39 -0.8467 1.0206
-4 -7 -38 4.1813 -1.3054
-4 -7 -37 -1.0054 3.3842
-4 -7 -36 4.1343 0.4206
-4 -7 -35 4.6113 0.3814
-4 -7 -34 -7.9676 4.0699
-4 -7 -33 -2.0437 0.5884
-4 -7 -32 -1.3225 -2.5974
-4 -7 -31 6.6131 5.2578
-4 -7 -30 -6.2628 -4.6092
-4 -7 -29 -6.8355 -1.4667
-4 -7 -28 -8.8981 1.3551
-4 -7 -27 -5.8227 -6.5326
-4 -7 -26 3.3551 6.3331
-4 -7 -25 -4.4549 7.0530
-4 -7 -24 -0.9529 -3.5399
-4 -7 -23 4.9270 4.5821
-4 -7 -22 -7.4470 11.7653
-4 -7 -21 -2.4894 1.3123
-4 -7 -20 5.6368 -6.0497
-4 -7 -19 -1.1408 10.3731
-4 -7 -18 1.6326 8.3057
-4 -7 -17 6.2009 5.0625
-4 -7 -16 -6.4681 -6.1098
-4 -7 -15 7.2265 1.3656
-4 -7 -14 0.8041 -1.5876
-4 -7 -13 -5.6779 -0.1642
-4 -7 -12 -6.1070 -1.1537
-4 -7 -11 -3.6495 -0.4722
-4 -7 -10 -14.7967 1.5783
-4 -7 -9 -3.8635 -3.6393
-4 -7 -8 4.1252 -37.6457
-4 -7 -7 -7.3827 -7.3442
-4 -7 -6 1.7215 -2.8948
-4 -7 -5 2.1095 -3.4461
-4 -7 -4 -7.1296 -9.1730
-4 -7 -3 -11.6757 -6.7721
-4 -7 -2 8.3986 -15.9466
-4 -7 -1 -11.0833 15.5149
-4 -6 -44 0.6553 7.3397
-4 -6 -43 -2.8929 6.6738
-4 -6 -42 -2.0287 0.3591
-4 -6 -41 -4.9391 -0.5814
-4 -6 -40 1.0643 3.9907
-4 -6 -39 -6.0803 -6.7203
-4 -6 -38 2.0811 -3.4765
-4 -6 -37 2.0684 2.6520
-4 -6 -36 -3.1569 -3.9677
-4 -6 -35 -0.9415 -1.3275
-4 -6 -34 4.7697 -3.8465
-4 -6 -33 -3.2163 2.1388
-4 -6 -32 4.8483 3.4015
-4 -6 -31 0.1159 6.7906
-4 -6 -30 -0.3530 1.2198
-4 -6 -29 5.2376 -0.8989
-4 -6 -28 -0.4386 8.1545
-4 -6 -27 -3.7356 6.0378
-4 -6 -26 -0.4159 6.2345
-4 -6 -25 4.6744 12.5567
-4 -6 -24 -7.6632 1.7120
-4 -6 -23 0.8188 5.1106
-4 -6 -22 12.7251 6.2035
-4 -6 -21 3.6333 -4.2655
-4 -6 -20 3.3443 -4.4036
-4 -6 -19 -3.4046 6.6499
-4 -6 -18 -1.5411 -9.9591
-4 -6 -17 3.5557 0.5723
-4 -6 -16 10.5366 -3.0261
-4 -6 -15 2.5294 -0.2607
-4 -6 -14 1.3409 3.3534
-4 -6 -13 -2.4588 10.3835
-4 -6 -12 -0.8974 -12.5748
-4 -6 -11 -16.1213 10.1266
-4 -6 -10 14.0461 12.3992
-4 -6 -9 -13.7734 2.5209
-4 -6 -8 4.9269 5.8681
-4 -6 -7 -15.8406 12.3223
-4 -6 -6 -23.9181 -2.6454
-4 -6 -5 -40.3225 -6.9566
-4 -6 -4 11.1696 0.5780
-4 -6 -3 -9.0072 -20.7543
-4 -6 -2 10.1720 16.2851
-4 -6 -1 -16.1711 1.8333
-4 -5 -45 -7.5769 -2.7399
-4 -5 -44 -2.2337 -1.2863
-4 -5 -43 2.2396 -0.9321
-4 -5 -42 2.1563 6.0345
-4 -5 -41 7.1174 -1.6020
-4 -5 -40 5.8570 4.7072
-4 -5 -39 0.0752 2.6915
-4 -5 -38 0.2443 -0.7347
-4 -5 -37 -2.9782 -0.9273
-4 -5 -36 -2.7004 0.8077
-4 -5 -35 -1.7590 -5.2414
-4 -5 -34 1.3316 -0.1062
-4 -5 -33 -6.0454 0.1923
-4 -5 -32 -2.8321 -2.9201
-4 -5 -31 3.9142 1.0830
-4 -5 -30 1.3408 -0.2103
-4 -5 -29 0.9970 2.2663
-4 -5 -28 3.2650 -11.6122
-4 -5 -27 -4.1014 3.7652
-4 -5 -26 6.0962 -4.4307
-4 -5 -25 6.1310 3.5396
-4 -5 -24 -0.3647 6.1236
-4 -5 -23 10.0206 -2.2521
-4 -5 -22 15.4780 3.4223
-4 -5 -21 -0.7979 3.4441
-4 -5 -20 8.0639 -8.0496
-4 -5 -19 -5.1803 -10.2933
-4 -5 -18 -4.7580 3.0982
-4 -5 -17 -4.3235 13.3781
-4 -5 -16 -1.2873 4.9757
-4 -5 -15 -22.1034 -11.9240
-4 -5 -14 18.4815 -3.8535
-4 -5 -13 -8.6924 -5.1800
-4 -5 -12 3.4697 12.4471
-4 -5 -11 6.0977 -13.9923
-4 -5 -10 0.2931 9.0474
-4 -5 -9 -8.3149 16.4071
-4 -5 -8 16.3738 17.9801
-4 -5 -7 2.5905 -24.9198
-4 -5 -6 4.8886 15.6812
-4 -5 -5 12.7529 8.5135
-4 -5 -4 -5.3848 36.6543
-4 -5 -3 -4.1319 16.9974
-4 -5 -2 -9.3613 15.4490
-4 -5 -1 -19.5935 -2.3021
-4 -4 -45 5.5839 -6.1991
-4 -4 -44 3.2636 -2.4764
-4 -4 -43 6.2977 0.3488
-4 -4 -42 -0.6919 6.3479
-4 -4 -41 -3.7145 1.1183
-4 -4 -40 1.5119 -2.4312
-4 -4 -39 4.6297 0.3471
-4 -4 -38 -1.5729 -3.9239
-4 -4 -37 0.9398 -7.0833
-4 -4 -36 0.1965 5.7049
-4 -4 -35 -5.4148 -2.7738
-4 -4 -34 -1.3220 -2.8405
-4 -4 -33 -7.9007 0.7581
-4 -4 -32 -1.1128 0.0197
-4 -4 -31 -11.8124 1.7894
-4 -4 -30 9.3593 5.4372
-4 -4 -29 -4.3507 -6.2362
-4 -4 -28 5.5515 1.7265
-4 -4 -27 -2.3376 9.7077
-4 -4 -26 -7.5454 -1.7721
-4 -4 -25 2.0912 4.3526
-4 -4 -24 10.4569 5.9148
-4 -4 -23 3.0686 -10.7804
-4 -4 -22 -1.2626 1.6100
-4 -4 -21 9.2346 -6.2799
-4 -4 -20 7.9769 -15.7619
-4 -4 -19 -2.9046 -7.1224
-4 -4 -18 -2.0092 10.5950
-4 -4 -17 -0.1350 -13.0190
-4 -4 -16 8.1053 27.7296
-4 -4 -15 6.6723 -9.2197
-4 -4 -14 -2.1844 10.0549
-4 -4 -13 -3.4625 14.7552
-4 -4 -12 5.8775 3.6318
-4 -4 -11 -3.9892 -14.7574
-4 -4 -10 -1.5151 18.7554
-4 -4 -9 12.9422 -4.1855
-4 -4 -8 -8.2141 10.9540
-4 -4 -7 19.5199 -3.5511
-4 -4 -6 15.4232 -1.9092
-4 -4 -5 5.4038 -3.1635
-4 -4 -4 -32.5454 -0.7448
-4 -4 -3 25.3222 -26.3076
-4 -4 -2 18.1560 10.1565
-4 -4 -1 21.1384 5.1191
-4 -3 -46 0.5631 3.7767
-4 -3 -45 6.8207 6.8482
-4 -3 -44 -7.3202 1.1140
-4 -3 -43 -3.8867 -10.6212
-4 -3 -42 2.4759 -7.1427
-4 -3 -41 -3.3032 -3.2540
-4 -3 -40 1.0166 -7.4869
-4 -3 -39 15.0855 5.2456
-4 -3 -38 -4.7118 3.4829
-4 -3 -37 3.3239 -2.4652
-4 -3 -36 -1.1084 3.4536
-4 -3 -35 -1.8375 -6.3785
-4 -3 -34 1.1862 10.7095
-4 -3 -33 -3.1181 -2.5917
-4 -3 -32 -10.0747 11.7879
-4 -3 -31 0.1081 3.6163
-4 -3 -30 -2.2989 8.1078
-4 -3 -29 -5.0181 7.7128
-4 -3 -28 6.1843 -0.5041
-4 -3 -27 -3.4085 -6.4852
-4 -3 -26 -2.2284 -0.3649
-4 -3 -25 18.6589 2.5236
-4 -3 -24 5.8098 -8.2332
-4 -3 -23 -0.3258 -1.6009
-4 -3 -22 9.6100 -17.0234
-4 -3 -21 -4.4643 -11.3325
-4 -3 -20 -11.7020 5.5341
-4 -3 -19 6.0904 -11.6849
-4 -3 -18 -24.8347 -7.1174
-4 -3 -17 6.4499 -15.9492
-4 -3 -16 7.9961 9.9615
-4 -3 -15 1.8358 -9.8546
-4 -3 -14 4.0789 3.9737
-4 -3 -13 17.2358 -17.2206
-4 -3 -12 -14.1573 19.4965
-4 -3 -11 22.6980 5.6500
-4 -3 -10 -3.6429 -19.3777
-4 -3 -9 8.3232 -15.4658
-4 -3 -8 3.6369 7.1715
-4 -3 -7 16.9853 18.8404
-4 -3 -6 -2.6672 -41.9245
-4 -3 -5 13.9310 15.3400
-4 -3 -4 -15.3744 -21.7554
-4 -3 -3 1.0947 10.7908
-4 -3 -2 -5.1220 17.6886
-4 -3 -1 -19.8713 -11.6071
-4 -2 -46 3.4550 -3.7522
-4 -2 -45 12.0410 0.8425
-4 -2 -44 8.0965 6.5715
-4 -2 -43 7.1162 -2.1736
-4 -2 -42 12.9237 -7.6508
-4 -2 -41 -10.9188 13.3865
-4 -2 -40 -7.9887 -7.3988
-4 -2 -39 -11.0007 3.6143
-4 -2 -38 -6.0936 -4.9455
-4 -2 -37 13.4447 -9.4578
-4 -2 -36 -5.5650 -2.9561
-4 -2 -35 6.8024 -1.4248
-4 -2 -34 0.1452 -3.6162
-4 -2 -33 -4.2314 -0.0051
-4 -2 -32 7.5392 -5.8909
-4 -2 -31 5.0227 2.6453
-4 -2 -30 3.0780 12.9530
-4 -2 -29 6.9565 4.8328
-4 -2 -28 10.8407 -0.9847
-4 -2 -27 3.4830 10.9202
-4 -2 -26 9.8542 -1.0635
-4 -2 -25 -18.4723 -5.6408
-4 -2 -24 1.7297 8.5388
-4 -2 -23 0.2273 -16.1807
-4 -2 -22 -16.1325 -11.9259
-4 -2 -21 -9.4028 -0.3705
-4 -2 -20 -22.3530 -1.7152
-4 -2 -19 8.0715 -1.5556
-4 -2 -18 -21.9484 10.0063
-4 -2 -17 0.6542 -0.1915
-4 -2 -16 -22.6030 5.9546
-4 -2 -15 9.4225 9.2922
-4 -2 -14 -17.5324 -32.3762
-4 -2 -13 7.4888 7.1455
-4 -2 -12 -2.9346 -5.4319
-4 -2 -11 13.4087 -0.1323
-4 -2 -10 7.3292 -5.6393
-4 -2 -9 -13.7598 6.0703
-4 -2 -8 19.4199 -9.4419
-4 -2 -7 -56.7426 8.4230
-4 -2 -6 17.0339 -17.2418
-4 -2 -5 6.4287 -10.8226
-4 -2 -4 -6.7866 13.7918
-4 -2 -3 -10.8481 -5.7216
-4 -2 -2 -4.4246 -4.1922
-4 -2 -1 16.4242 21.0665
-4 -1 -46 -5.3808 0.9027
-4 -1 -45 -0.1902 -4.4287
-4 -1 -44 8.7746 -0.1633
-4 -1 -43 -8.9420 -20.0094
-4 -1 -42 14.4281 -6.4475
-4 -1 -41 0.9440 -18.3630
-4 -1 -40 -4.1229 -7.3003
-4 -1 -39 3.6889 7.8702
-4 -1 -38 0.8186 -0.9811
-4 -1 -37 3.2656 12.6118
-4 -1 -36 -4.7413 8.1163
-4 -1 -35 -10.1886 -14.1720
-4 -1 -34 3.0235 0.3159
-4 -1 -33 -5.0277 -1.9530
-4 -1 -32 -7.1546 -1.6230
-4 -1 -31 -7.8571 -1.8737
-4 -1 -30 -3.0514 1.1352
-4 -1 -29 -8.1362 -9.6234
-4 -1 -28 9.4909 8.6485
-4 -1 -27 14.7423 -17.3517
-4 -1 -26 -9.0817 -3.9758
-4 -1 -25 8.3799 -7.6294
-4 -1 -24 -1.5055 -3.8089
-4 -1 -23 6.3181 16.3273
-4 -1 -22 -10.4031 2.2777
-4 -1 -21 6.9445 18.3182
-4 -1 -20 -16.9902 -9.2981
-4 -1 -19 4.1912 29.3777
-4 -1 -18 -0.4095 8.3639
-4 -1 -17 -13.0567 12.2478
-4 -1 -16 15.3273 -2.9404
-4 -1 -15 -11.7623 27.2780
-4 -1 -14 3.6474 -2.6752
-4 -1 -13 -0.1955 2.2694
-4 -1 -12 -13.0581 -12.9852
-4 -1 -11 -12.9668 -9.3414
-4 -1 -10 10.0991 27.6137
-4 -1 -9 -5.5453 -52.6061
-4 -1 -8 0.8257 -1.6692
-4 -1 -7 19.2024 7.7351
-4 -1 -6 -8.8664 17.1102
-4 -1 -5 22.3323 9.2746
-4 -1 -4 1.0417 4.0154
-4 -1 -3 -20.4577 -0.1892
-4 -1 -2 31.6772 2.0797
-4 -1 -1 -8.9825 -5.5706
-3 -18 -13 -9.2038 5.8996
-3 -18 -12 -5.3577 -4.9595
-3 -18 -11 -5.4050 2.1437
-3 -18 -10 3.6487 -2.8398
-3 -18 -9 -1.5717 8.2344
-3 -18 -8 7.3375 -4.4043
-3 -18 -7 -1.0058 -3.9231
-3 -18 -6 1.7434 -13.5540
-3 -18 -5 3.7041 7.3333
-3 -18 -4 1.5303 -5.2533
-3 -18 -3 -5.0022 -10.8372
-3 -18 -2 -0.7119 12.0028
-3 -18 -1 -0.3709 -11.5779
-3 -17 -20 1.4649 20.0018
-3 -17 -19 7.2189 6.7389
-3 -17 -18 6.2998 -4.2453
-3 -17 -17 2.7317 -4.7198
-3 -17 -16 7.3696 10.3355
-3 -17 -15 -11.3318 1.4267
-3 -17 -14 2.0908 16.9084
-3 -17 -13 -1.0931 2.1218
-3 -17 -12 13.5439 2.9948
-3 -17 -11 -0.6615 0.7288
-3 -17 -10 -6.5420 9.2039
-3 -17 -9 -5.3181 3.8434
-3 -17 -8 9.3082 -2.1014
-3 -17 -7 -6.8761 -3.1040
-3 -17 -6 -4.8147 -2.5756
-3 -17 -5 2.2514 -3.5931
-3 -17 -4 -26.1680 -7.0432
-3 -17 -3 1.4849 -0.4443
-3 -17 -2 -1.3470 -2.3469
-3 -17 -1 -1.7079 -1.6121
-3 -16 -24 -9.0232 5.6089
-3 -16 -23 13.1234 -3.9283
-3 -16 -22 -4.3962 6.8062
-3 -16 -21 5.4869 10.0220
-3 -16 -20 4.5158 3.5928
-3 -16 -19 3.1792 -8.7810
-3 -16 -18 1.9315 5.7206
-3 -16 -17 17.6121 -10.2641
-3 -16 -16 -6.1409 1.7846
-3 -16 -15 -5.6966 -14.4177
-3 -16 -14 -2.8855 2.5283
-3 -16 -13 11.6546 8.1360
-3 -16 -12 8.4673 -1.3933
-3 -16 -11 0.5053 -3.5031
-3 -16 -10 0.5987 -1.9701
-3 -16 -9 0.6943 -4.8935
-3 -16 -8 3.0430 3.0425
-3 -16 -7 -0.1862 24.6209
-3 -16 -6 2.2727 -15.8229
-3 -16 -5 -8.9980 1.6562
-3 -16 -4 -1.1971 12.5885
-3 -16 -3 -4.6069 7.6674
-3 -16 -2 -7.9306 11.1158
-3 -16 -1 -7.6660 13.5778
-3 -15 -28 -6.4000 -5.4296
-3 -15 -27 2.8904 11.1057
-3 -15 -26 -9.8262 -1.3226
-3 -15 -25 3.9922 -0.4177
-3 -15 -24 -1.4377 -13.1087
-3 -15 -23 -7.7061 -3.0706
-3 -15 -22 -8.2607 5.2974
-3 -15 -21 6.7040 -3.6200
-3 -15 -20 1.6232 -5.3332
-3 -15 -19 16.7877 3.7665
-3 -15 -18 -5.5208 0.2249
-3 -15 -17 1.7249 -3.6169
-3 -15 -16 -5.0024 -8.5651
-3 -15 -15 -3.4551 -3.0008
-3 -15 -14 3.5768 2.1604
-3 -15 -13 -7.3668 6.6152
-3 -15 -12 -0.3082 8.5025
-3 -15 -11 10.6257 -2.5871
-3 -15 -10 13.7317 -4.2368
-3 -15 -9 -22.0508 1.0253
-3 -15 -8 8.8386 6.6835
-3 -15 -7 4.1480 1.5834
-3 -15 -6 -2.8242 2.3049
-3 -15 -5 12.8218 -0.4018
-3 -15 -4 5.1895 4.3528
-3 -15 -3 -8.6310 2.0490
-3 -15 -2 6.4727 10.3483
-3 -15 -1 15.3853 -0.7766
-3 -14 -31 5.7376 6.6545
-3 -14 -30 4.6123 0.0252
-3 -14 -29 2.1056 10.7699
-3 -14 -28 -2.9409 0.6123
-3 -14 -27 -5.2983 3.2157
-3 -14 -26 0.4549 5.3769
-3 -14 -25 9.8626 0.1851
-3 -14 -24 -1.1078 1.1139
-3 -14 -23 0.6765 2.2767
-3 -14 -22 -13.3464 -6.8042
-3 -14 -21 -2.3595 10.9732
-3 -14 -20 2.5573 6.2535
-3 -14 -19 7.6404 1.4130
-3 -14 -18 -1.9554 -14.5859
-3 -14 -17 1.0432 -9.3273
-3 -14 -16 3.7261 3.5723
-3 -14 -15 -0.3182 1.6667
-3 -14 -14 -7.6468 -0.2745
-3 -14 -13 -2.8568 -1.4970
-3 -14 -12 7.8948 8.2228
-3 -14 -11 6.7800 -14.1025
-3 -14 -10 9.9926 -0.2265
-3 -14 -9 -1.2913 -5.7180
-3 -14 -8 6.1383 -19.9346
-3 -14 -7 4.2563 1.4586
-3 -14 -6 4.7381 8.2517
-3 -14 -5 7.3236 -12.1801
-3 -14 -4 1.5054 0.7259
-3 -14 -3 3.1984 3.2758
-3 -14 -2 -1.5488 -6.3734
-3 -14 -1 9.5804 2.8183
-3 -13 -34 1.0859 4.8539
-3 -13 -33 3.6583 13.6149
-3 -13 -32 7.8211 -2.1953
-3 -13 -31 -0.8338 3.3281
-3 -13 -30 3.7249 0.6778
-3 -13 -29 6.7035 1.3847
-3 -13 -28 -1.6012 -8.3950
-3 -13 -27 11.0902 2.5341
-3 -13 -26 0.3229 -0.8567
-3 -13 -25 -2.7156 11.5113
-3 -13 -24 5.8054 -10.3400
-3 -13 -23 3.6512 -6.4939
-3 -13 -22 -0.7764 -8.9098
-3 -13 -21 -1.8325 9.8085
-3 -13 -20 -0.0447 1.6398
-3 -13 -19 0.7401 4.7300
-3 -13 -18 6.7805 -8.1073
-3 -13 -17 -3.6137 -9.4095
-3 -13 -16 -7.8940 -2.5831
-3 -13 -15 -3.8534 -4.0127
-3 -13 -14 -5.0337 2.5029
-3 -13 -13 6.5535 -4.2144
-3 -13 -12 0.8152 8.4826
-3 -13 -11 -11.0011 -9.8139
-3 -13 -10 7.7089 3.8388
-3 -13 -9 -1.8609 -12.5020
-3 -13 -8 -19.8557 -2.2932
-3 -13 -7 0.5200 -4.7145
-3 -13 -6 -17.5583 -1.1437
-3 -13 -5 -15.1392 -7.7043
-3 -13 -4 0.4962 -7.1180
-3 -13 -3 0.3750 -0.7123
-3 -13 -2 8.5569 -3.2699
-3 -13 -1 -6.3283 3.2609
-3 -12 -36 3.3079 3.4453
-3 -12 -35 -10.4281 6.0815
-3 -12 -34 -1.3182 1.3168
-3 -12 -33 1.9495 -4.6481
-3 -12 -32 9.2962 -3.5320
-3 -12 -31 5.5297 0.0724
-3 -12 -30 9.7429 -14.9596
-3 -12 -29 -2.8252 3.3489
-3 -12 -28 5.5882 -2.9279
-3 -12 -27 0.5558 -3.2566
-3 -12 -26 4.7932 -5.8697
-3 -12 -25 -7.1166 -3.7186
-3 -12 -24 6.1190 -2.3691
-3 -12 -23 -4.8958 5.9878
-3 -12 -22 0.7524 -5.3330
-3 -12 -21 -19.4069 -10.0503
-3 -12 -20 -5.5788 -0.3188
-3 -12 -19 2.7417 -3.1121
-3 -12 -18 -1.6447 3.3006
-3 -12 -17 0.1811 4.9724
-3 -12 -16 -11.0934 -2.7437
-3 -12 -15 -5.1691 1.6451
-3 -12 -14 -12.4285 7.0124
-3 -12 -13 10.0507 -10.5843
-3 -12 -12 -9.8340 5.7946
-3 -12 -11 8.7141 6.1981
-3 -12 -10 -9.2002 -14.1426
-3 -12 -9 3.9190 13.0136
-3 -12 -8 -8.4198 -3.3119
-3 -12 -7 1.5666 -0.5763
-3 -12 -6 -0.8192 7.7528
-3 -12 -5 -1.6246 7.3588
-3 -12 -4 1.7404 16.8707
-3 -12 -3 -4.9179 7.7624
-3 -12 -2 -1.0002 17.2104
-3 -12 -1 -6.3103 -8.7652
-3 -11 -38 -4.1059 -6.6232
-3 -11 -37 -9.0697 -6.3604
-3 -11 -36 -3.2286 -11.4554
-3 -11 -35 1.3144 -9.2406
-3 -11 -34 5.5865 -7.1729
-3 -11 -33 -3.0718 3.0905
-3 -11 -32 9.8971 11.6490
-3 -11 -31 -5.4558 -7.1960
-3 -11 -30 -3.8206 -13.4892
-3 -11 -29 -5.6635 -3.1490
-3 -11 -28 -4.8106 1.4346
-3 -11 -27 -6.3436 -7.5808
-3 -11 -26 -0.7810 0.4510
-3 -11 -25 -5.9737 -9.8594
-3 -11 -24 -1.4468 6.6582
-3 -11 -23 -6.3057 -2.2529
-3 -11 -22 -3.0036 5.7054
-3 -11 -21 5.5654 5.8954
-3 -11 -20 -4.2011 2.7691
-3 -11 -19 -13.9800 12.6731
-3 -11 -18 -5.0782 12.5094
-3 -11 -17 -2.4225 7.5426
-3 -11 -16 -0.3825 -3.2220
-3 -11 -15 14.8733 13.9879
-3 -11 -14 1.4720 -1.6982
-3 -11 -13 -9.7339 13.0709
-3 -11 -12 7.4608 -3.7322
-3 -11 -11 -15.3626 7.5849
-3 -11 -10 3.8455 -9.2377
-3 -11 -9 -0.6193 2.9469
-3 -11 -8 -4.7523 1.5634
-3 -11 -7 -2.1379 -0.1384
-3 -11 -6 1.7372 2.3511
-3 -11 -5 4.8814 -2.2746
-3 -11 -4 -7.7275 -0.4585
-3 -11 -3 7.5132 -8.9492
-3 -11 -2 10.4530 -2.8788
-3 -11 -1 9.0953 -1.4664
-3 -10 -40 2.0453 -1.4935
-3 -10 -39 -6.7956 -3.1981
-3 -10 -38 -0.1375 -4.8396
-3 -10 -37 -8.4525 -4.8873
-3 -10 -36 4.8299 8.5213
-3 -10 -35 -0.5917 1.4143
-3 -10 -34 -11.0128 13.8630
-3 -10 -33 -11.2017 -0.4208
-3 -10 -32 0.9433 -3.2041
-3 -10 -31 -1.9563 4.2936
-3 -10 -30 7.4320 0.1319
-3 -10 -29 4.1696 -4.7361
-3 -10 -28 -12.4242 1.3618
-3 -10 -27 -1.4547 7.3892
-3 -10 -26 -1.8774 10.7433
-3 -10 -25 4.2078 1.6982
-3 -10 -24 -4.2792 0.9215
-3 -10 -23 -6.1416 6.7182
-3 -10 -22 8.1915 3.5999
-3 -10 -21 9.9010 0.1988
-3 -10 -20 1.1636 6.7081
-3 -10 -19 4.0134 -1.2996
-3 -10 -18 8.2783 -2.6003
-3 -10 -17 1.9788 10.0508
-3 -10 -16 18.3907 9.8697
-3 -10 -15 9.2518 -3.7888
-3 -10 -14 6.3959 2.8925
-3 -10 -13 -2.5295 -18.2831
-3 -10 -12 8.1632 -0.0941
-3 -10 -11 0.5231 3.9541
-3 -10 -10 1.2296 11.6890
-3 -10 -9 0.4269 2.2018
-3 -10 -8 -4.4312 4.7146
-3 -10 -7 -3.4906 3.6348
-3 -10 -6 -6.5922 2.2615
-3 -10 -5 -1.3666 9.0605
-3 -10 -4 4.3456 -10.0720
-3 -10 -3 -2.3806 1.2550
-3 -10 -2 -3.6714 -1.8450
-3 -10 -1 -13.9713 7.2679
-3 -9 -41 -1.0757 -7.2095
-3 -9 -40 -2.2261 5.4283
-3 -9 -39 3.9090 -4.1919
-3 -9 -38 -3.7055 2.6391
-3 -9 -37 6.2061 -0.9786
-3 -9 -36 -9.9715 3.1275
-3 -9 -35 -0.8750 -3.1125
-3 -9 -34 6.7947 -2.5009
-3 -9 -33 -0.2192 -14.3305
-3 -9 -32 9.7373 5.4932
-3 -9 -31 9.3263 13.6888
-3 -9 -30 4.1667 0.6505
-3 -9 -29 0.9104 -6.3679
-3 -9 -28 2.4322 -8.9154
-3 -9 -27 -1.9549 -0.1203
-3 -9 -26 1.6276 3.5990
-3 -9 -25 -0.0679 -2.5547
-3 -9 -24 11.9129 3.5607
-3 -9 -23 8.0836 -0.3623
-3 -9 -22 -7.3274 -6.9650
-3 -9 -21 -0.5936 0.7705
-3 -9 -20 10.9673 -4.3385
-3 -9 -19 1.1599 -13.8639
-3 -9 -18 -4.3692 -2.3097
-3 -9 -17 1.6566 2.1692
-3 -9 -16 -8.4360 -3.1570
-3 -9 -15 4.5921 -6.1562
-3 -9 -14 1.9429 -11.8826
-3 -9 -13 5.5089 -10.9740
-3 -9 -12 -11.5490 -1.8104
-3 -9 -11 -6.5083 4.5261
-3 -9 -10 -10.9173 3.3715
-3 -9 -9 10.6374 -0.9179
-3 -9 -8 18.1642 -3.3478
-3 -9 -7 -1.3609 -1.2781
-3 -9 -6 12.1283 11.0479
-3 -9 -5 -4.9173 6.8900
-3 -9 -4 9.8388 17.0639
-3 -9 -3 -1.6417 -1.7590
-3 -9 -2 -1.4028 6.1153
-3 -9 -1 -13.0029 -14.6826
-3 -8 -42 4.1287 -6.0231
-3 -8 -41 2.9344 -4.2636
-3 -8 -40 -2.8196 -10.3164
-3 -8 -39 0.1908 3.3329
-3 -8 -38 -0.3091 -1.7805
-3 -8 -37 -0.6760 -0.6469
-3 -8 -36 -8.3840 -1.0272
-3 -8 -35 4.9345 -8.0214
-3 -8 -34 -1.8086 5.7320
-3 -8 -33 -5.8382 6.6829
-3 -8 -32 -8.8978 -2.7400
-3 -8 -31 -10.3212 -7.1615
-3 -8 -30 -0.5475 -1.7801
-3 -8 -29 5.8067 -11.1768
-3 -8 -28 1.2396 -2.0219
-3 -8 -27 -2.0291 -12.9480
-3 -8 -26 -13.0815 1.2802
-3 -8 -25 -2.3095 3.4970
-3 -8 -24 7.3055 -7.3972
-3 -8 -23 -2.0432 -5.9717
-3 -8 -22 -2.8574 7.1603
-3 -8 -21 0.4879 -5.0407
-3 -8 -20 -2.4635 -1.1782
-3 -8 -19 -6.0440 5.9837
-3 -8 -18 -2.3691 -5.7812
-3 -8 -17 -7.9111 0.2794
-3 -8 -16 2.4739 5.0618
-3 -8 -15 0.9392 13.6312
-3 -8 -14 0.9232 2.7905
-3 -8 -13 -4.8223 6.9093
-3 -8 -12 -12.3171 -11.9765
-3 -8 -11 -5.5420 -0.4226
-3 -8 -10 2.6957 12.0602
-3 -8 -9 13.6574 4.2850
-3 -8 -8 10.5788 15.8991
-3 -8 -7 5.1300 -17.3569
-3 -8 -6 -8.4292 -20.2837
-3 -8 -5 4.2179 -14.5375
-3 -8 -4 -1.6622 1.0338
-3 -8 -3 29.7484 -10.1786
-3 -8 -2 16.0326 11.5069
-3 -8 -1 -2.2602 -16.1253
-3 -7 -44 2.5560 1.3143
-3 -7 -43 -4.7898 1.8449
-3 -7 -42 1.0629 6.1148
-3 -7 -41 -0.7165 -4.7655
-3 -7 -40 -6.5532 -2.6236
-3 -7 -39 -5.1732 -1.4016
-3 -7 -38 -7.6150 -2.1811
-3 -7 -37 2.3436 3.0307
-3 -7 -36 1.7944 -7.2228
-3 -7 -35 -5.4220 2.4655
-3 -7 -34 -0.5361 7.2945
-3 -7 -33 -1.2066 -2.3018
-3 -7 -32 -2.3695 -2.1414
-3 -7 -31 11.3222 3.4297
-3 -7 -30 -7.9915 5.2162
-3 -7 -29 -0.0012 9.9403
-3 -7 -28 -1.5265 -1.4559
-3 -7 -27 -5.7791 -0.4134
-3 -7 -26 -0.8985 2.8075
-3 -7 -25 -5.0331 0.4280
-3 -7 -24 -15.9174 0.8227
-3 -7 -23 3.2928 2.6320
-3 -7 -22 -0.6982 0.7570
-3 -7 -21 -8.3471 -5.0034
-3 -7 -20 9.9730 0.5409
-3 -7 -19 10.9718 -1.3125
-3 -7 -18 -0.1833 3.1613
-3 -7 -17 -8.1509 -2.2159
-3 -7 -16 6.4086 1.0057
-3 -7 -15 5.0955 3.5857
-3 -7 -14 16.4166 -3.3932
-3 -7 -13 5.7398 -4.0140
-3 -7 -12 6.8184 -3.3920
-3 -7 -11 10.7407 5.7309
-3 -7 -10 -15.6798 15.1535
-3 -7 -9 -12.5123 0.4893
-3 -7 -8 9.3301 -6.5593
-3 -7 -7 14.5346 -19.1462
-3 -7 -6 5.4950 -31.8907
-3 -7 -5 -12.6374 -6.1829
-3 -7 -4 -35.1475 9.3454
-3 -7 -3 -15.3293 -6.9827
-3 -7 -2 -12.0828 -2.2129
-3 -7 -1 -8.2461 -13.0919
-3 -6 -44 -7.9661 -3.1746
-3 -6 -43 -0.5438 1.3509
-3 -6 -42 -3.5785 -6.3127
-3 -6 -41 6.0907 6.7461
-3 -6 -40 1.9573 -1.1663
-3 -6 -39 -9.0362 1.2283
-3 -6 -38 5.0655 5.5333
-3 -6 -37 -2.5213 -1.4450
-3 -6 -36 -5.8641 9.1042
-3 -6 -35 -2.2579 -0.6519
-3 -6 -34 -2.9193 -6.6975
-3 -6 -33 -4.3991 8.9563
-3 -6 -32 4.3048 -4.0910
-3 -6 -31 -4.9327 -2.2382
-3 -6 -30 -3.0862 6.6153
-3 -6 -29 -3.1782 -5.4909
-3 -6 -28 1.0375 5.7952
-3 -6 -27 0.0510 3.4437
-3 -6 -26 5.3567 -11.9703
-3 -6 -25 0.3376 1.4606
-3 -6 -24 -4.3624 7.0163
-3 -6 -23 0.7433 -4.4961
-3 -6 -22 -2.0265 8.5372
-3 -6 -21 -0.0473 15.3114
-3 -6 -20 1.1205 0.9067
-3 -6 -19 -3.6208 -10.2570
-3 -6 -18 -4.7732 -10.3833
-3 -6 -17 -9.6005 -15.3185
-3 -6 -16 -1.0688 3.6372
-3 -6 -15 2.6557 -4.1727
-3 -6 -14 0.8833 -4.5115
-3 -6 -13 1.7145 -5.3235
-3 -6 -12 -7.0886 -12.1060
-3 -6 -11 5.2295 -17.6023
-3 -6 -10 -12.8390 -0.5188
-3 -6 -9 5.2237 -9.2944
-3 -6 -8 15.1761 16.5469
-3 -6 -7 15.6763 12.4655
-3 -6 -6 -24.3065 16.9506
-3 -6 -5 -17.6208 -21.8549
-3 -6 -4 -43.1180 -6.7905
-3 -6 -3 -26.6676 11.4812
-3 -6 -2 16.1416 44.3562
-3 -6 -1 -8.7362 20.0816
-3 -5 -45 -4.7514 10.1636
-3 -5 -44 8.5394 -5.1981
-3 -5 -43 -4.0028 -1.0333
-3 -5 -42 0.6661 2.5619
-3 -5 -41 -0.8979 -3.7512
-3 -5 -40 -1.9264 8.1754
-3 -5 -39 7.7321 -2.4413
-3 -5 -38 -7.1958 -0.0185
-3 -5 -37 -0.1934 4.2118
-3 -5 -36 5.2827 6.9641
-3 -5 -35 -2.1965 -2.5367
-3 -5 -34 6.2239 9.5962
-3 -5 -33 7.2135 1.8560
-3 -5 -32 -12.3161 2.3004
-3 -5 -31 9.7137 0.7045
-3 -5 -30 -2.1852 9.6747
-3 -5 -29 -5.8355 -1.1369
-3 -5 -28 8.4578 5.8860
-3 -5 -27 5.4412 4.0917
-3 -5 -26 -4.4793 -0.0631
-3 -5 -25 2.0421 4.9033
-3 -5 -24 -4.5134 0.4275
-3 -5 -23 -13.0109 -1.6100
-3 -5 -22 7.3235 8.1686
-3 -5 -21 -2.3840 2.6358
-3 -5 -20 -1.8998 3.8172
-3 -5 -19 17.1899 -9.9086
-3 -5 -18 3.1664 1.6802
-3 -5 -17 -6.2895 9.3317
-3 -5 -16 -27.0230 10.8550
-3 -5 -15 -18.6023 7.9956
-3 -5 -14 1.9353 -2.8143
-3 -5 -13 7.6157 0.4303
-3 -5 -12 -21.4625 -17.3240
-3 -5 -11 4.7346 -2.9822
-3 -5 -10 -4.3464 -7.1620
-3 -5 -9 5.6367 19.1312
-3 -5 -8 -44.1643 -15.5734
-3 -5 -7 11.8947 18.6048
-3 -5 -6 15.8382 -22.2199
-3 -5 -5 31.7558 -20.8080
-3 -5 -4 2.9540 13.6601
-3 -5 -3 11.6568 32.1402
-3 -5 -2 -32.8693 36.3135
-3 -5 -1 45.7822 34.3891
-3 -4 -46 -1.8172 4.5596
-3 -4 -45 1.1839 -0.8836
-3 -4 -44 1.1669 2.5303
-3 -4 -43 8.2696 2.8440
-3 -4 -42 -4.0427 -0.3744
-3 -4 -41 2.1294 3.1994
-3 -4 -40 3.7961 -8.6116
-3 -4 -39 3.1566 -3.1194
-3 -4 -38 -1.5812 1.3016
-3 -4 -37 9.9118 -1.8665
-3 -4 -36 -0.6293 1.0721
-3 -4 -35 6.2497 9.7278
-3 -4 -34 7.3831 -12.2838
-3 -4 -33 13.7574 4.1263
-3 -4 -32 -3.4594 -3.8727
-3 -4 -31 1.9752 -9.0179
-3 -4 -30 -2.2393 2.1727
-3 -4 -29 -1.3464 0.4693
-3 -4 -28 9.5609 -2.3166
-3 -4 -27 -0.0911 1.6018
-3 -4 -26 -4.1674 4.0652
-3 -4 -25 2.8445 -15.8200
-3 -4 -24 1.4932 15.0426
-3 -4 -23 6.1867 1.7594
-3 -4 -22 1.3753 -0.6825
-3 -4 -21 11.6395 4.5250
-3 -4 -20 -0.1881 2.7457
-3 -4 -19 9.6318 11.7799
-3 -4 -18 -4.6792 -8.3508
-3 -4 -17 -2.0460 -20.1068
-3 -4 -16 -4.4389 0.2393
-3 -4 -15 8.8282 18.8590
-3 -4 -14 15.8634 12.1465
-3 -4 -13 0.0654 22.1352
-3 -4 -12 -4.2627 -0.8763
-3 -4 -11 -33.9319 5.3392
-3 -4 -10 10.8624 -22.6359
-3 -4 -9 -41.7111 9.7799
-3 -4 -8 -0.8896 -8.9204
-3 -4 -7 0.6560 -4.4584
-3 -4 -6 15.0286 15.8730
-3 -4 -5 -6.1140 29.3063
-3 -4 -4 -7.3083 -49.5892
-3 -4 -3 -20.5949 -17.1245
-3 -4 -2 -16.2463 -43.2337
-3 -4 -1 57.6627 17.3820
-3 -3 -46 7.2327 -3.9944
-3 -3 -45 3.4826 9.2994
-3 -3 -44 3.0319 7.0467
-3 -3 -43 -0.3447 6.8187
-3 -3 -42 5.6262 8.3355
-3 -3 -41 6.5358 -0.7533
-3 -3 -40 0.6314 -7.1030
-3 -3 -39 -0.1011 -2.8357
-3 -3 -38 -1.1605 -6.2996
-3 -3 -37 -15.1557 -2.2709
-3 -3 -36 4.3404 -10.7394
-3 -3 -35 -1.5164 2.0085
-3 -3 -34 -0.8520 -7.7840
-3 -3 -33 7.6024 -9.0188
-3 -3 -32 -3.6641 -7.6262
-3 -3 -31 -0.6843 -19.6161
-3 -3 -30 -2.9280 3.4672
-3 -3 -29 0.8822 8.3812
-3 -3 -28 -14.5161 6.3018
-3 -3 -27 14.2144 4.4511
-3 -3 -26 -6.1735 2.3564
-3 -3 -25 10.4499 0.3075
-3 -3 -24 1.6874 6.9312
-3 -3 -23 1.4611 9.4025
-3 -3 -22 7.8057 -14.6405
-3 -3 -21 2.6119 7.6150
-3 -3 -20 1.7737 -17.0765
-3 -3 -19 -1.0711 4.5579
-3 -3 -18 -4.7762 -16.5385
-3 -3 -17 8.6498 -3.5497
-3 -3 -16 -4.9329 -3.2954
-3 -3 -15 -25.6713 4.8368
-3 -3 -14 -11.5212 4.6775
-3 -3 -13 25.8605 -18.0334
-3 -3 -12 24.5660 20.3098
-3 -3 -11 -0.2588 -17.8539
-3 -3 -10 -20.9043 35.5581
-3 -3 -9 15.8196 12.5998
-3 -3 -8 -18.5328 35.4104
-3 -3 -7 -36.1715 8.3993
-3 -3 -6 -7.0462 28.5517
-3 -3 -5 -4.2817 9.0252
-3 -3 -4 22.9932 -35.1466
-3 -3 -3 -14.8413 24.9574
-3 -3 -2 -17.0817 -17.0503
-3 -3 -1 -45.2183 37.5703
-3 -2 -47 -0.1522 2.4701
-3 -2 -46 -0.4576 -2.5501
-3 -2 -45 1.9808 -7.1160
-3 -2 -44 -3.7772 -8.7872
-3 -2 -43 5.8332 -6.9584
-3 -2 -42 11.6000 -10.0753
-3 -2 -41 20.5185 -0.0440
-3 -2 -40 12.7786 2.5610
-3 -2 -39 -5.4974 -14.2535
-3 -2 -38 4.3051 -3.2799
-3 -2 -37 -15.4949 -0.7810
-3 -2 -36 -4.8621 -0.6585
-3 -2 -35 1.8419 12.7789
-3 -2 -34 -18.3515 1.1615
-3 -2 -33 6.2435 3.5053
-3 -2 -32 -5.0109 -5.8856
-3 -2 -31 -9.4498 2.4602
-3 -2 -30 -13.7255 -13.5809
-3 -2 -29 -11.5690 7.6662
-3 -2 -28 -6.0321 -9.2307
-3 -2 -27 19.7340 6.9851
-3 -2 -26 12.6529 1.2532
-3 -2 -25 7.5779 -7.8209
-3 -2 -24 22.0256 -11.4620
-3 -2 -23 -14.3126 -10.9133
-3 -2 -22 23.7775 1.4237
-3 -2 -21 -10.5832 -8.1533
-3 -2 -20 9.1209 -13.5688
-3 -2 -19 -9.6823 4.7870
-3 -2 -18 2.4116 8.1760
-3 -2 -17 -4.7157 8.2235
-3 -2 -16 -13.0787 -7.1785
-3 -2 -15 -11.3701 23.6437
-3 -2 -14 -21.1168 6.7944
-3 -2 -13 22.2029 33.4429
-3 -2 -12 -13.7756 -18.5171
-3 -2 -11 15.8609 16.4844
-3 -2 -10 -9.3824 -34.9846
-3 -2 -9 35.6329 4.7174
-3 -2 -8 13.5999 15.6286
-3 -2 -7 8.6073 20.5376
-3 -2 -6 46.8007 5.7332
-3 -2 -5 1.2767 26.4407
-3 -2 -4 37.3626 50.0446
-3 -2 -3 -1.6828 -17.2801
-3 -2 -2 -22.0509 2.6818
-3 -2 -1 17.2501 -15.4423
-3 -1 -47 5.4520 0.9733
-3 -1 -46 5.3538 -2.4595
-3 -1 -45 3.6317 -0.8183
-3 -1 -44 6.6871 -3.6573
-3 -1 -43 -4.2232 2.7773
-3 -1 -42 -11.8082 -0.6527
-3 -1 -41 -6.9864 -12.6924
-3 -1 -40 -6.5967 4.1008
-3 -1 -39 -0.0502 -32.2886
-3 -1 -38 1.5518 -14.7003
-3 -1 -37 -9.5337 8.5801
-3 -1 -36 -5.4013 -8.1029
-3 -1 -35 -10.3212 12.7508
-3 -1 -34 6.2155 4.0609
-3 -1 -33 3.5219 3.8793
-3 -1 -32 9.9138 5.6723
-3 -1 -31 -3.9757 0.8789
-3 -1 -30 0.9979 -7.7185
-3 -1 -29 -9.9613 14.7495
-3 -1 -28 -8.3855 8.0895
-3 -1 -27 -0.5932 8.0965
-3 -1 -26 -8.4140 15.3148
-3 -1 -25 3.4861 -36.3454
-3 -1 -24 -10.0188 -5.8202
-3 -1 -23 -4.1183 -30.4718
-3 -1 -22 -15.6185 -0.3238
-3 -1 -21 -10.0970 -9.9352
-3 -1 -20 0.6655 1.7859
-3 -1 -19 -0.9508 -1.4638
-3 -1 -18 2.4134 -2.3497
-3 -1 -17 -10.7770 -2.9851
-3 -1 -16 37.0462 -5.1127
-3 -1 -15 3.9094 13.7802
-3 -1 -14 27.3453 7.2190
-3 -1 -13 -18.3181 33.2447
-3 -1 -12 58.7590 -2.9454
-3 -1 -11 13.7267 11.7636
-3 -1 -10 4.6433 -13.2196
-3 -1 -9 -34.1707 -14.4821
-3 -1 -8 18.7831 8.9834
-3 -1 -7 -2.1987 -37.8262
-3 -1 -6 -14.0272 -10.3516
-3 -1 -5 25.6258 -7.6511
-3 -1 -4 9.5856 -25.7882
-3 -1 -3 49.4554 -6.0654
-3 -1 -2 4.0950 -26.2939
-3 -1 -1 -4.7919 4.6970
-2 -18 -14 -11.5476 3.8621
-2 -18 -13 1.8974 12.1649
-2 -18 -12 -9.2025 4.1277
-2 -18 -11 1.7872 -11.9184
-2 -18 -10 -4.7452 3.8366
-2 -18 -9 -0.7933 3.7341
-2 -18 -8 -10.0535 8.6553
-2 -18 -7 -9.8632 5.2476
-2 -18 -6 18.6391 -0.4801
-2 -18 -5 -4.8999 -6.6063
-2 -18 -4 -5.7100 -4.2867
-2 -18 -3 1.8750 2.7116
-2 -18 -2 -1.8782 -15.0456
-2 -18 -1 -3.0806 -10.5987
-2 -17 -21 -3.3862 4.8302
-2 -17 -20 -0.5227 3.5247
-2 -17 -19 -8.5447 -0.0911
-2 -17 -18 -18.9267 -6.8384
-2 -17 -17 9.0670 -0.8172
-2 -17 -16 6.5309 -10.6073
-2 -17 -15 0.2400 2.3621
-2 -17 -14 -8.4392 -3.8595
-2 -17 -13 -2.4063 -11.6539
-2 -17 -12 -4.5875 4.9839
-2 -17 -11 14.6151 9.6529
-2 -17 -10 1.2163 8.2168
-2 -17 -9 -4.0813 -15.8944
-2 -17 -8 -8.4384 16.0792
-2 -17 -7 7.0779 -0.2119
-2 -17 -6 12.3501 5.7038
-2 -17 -5 1.7071 8.8340
-2 -17 -4 -0.9070 -2.8019
-2 -17 -3 -2.4122 -7.9741
-2 -17 -2 -9.8471 6.6093
-2 -17 -1 0.5343 2.9115
-2 -16 -25 -2.6358 4.6946
-2 -16 -24 -9.5675 0.5912
-2 -16 -23 -2.7457 -4.5402
-2 -16 -22 -2.7971 3.7745
-2 -16 -21 -3.1246 13.6052
-2 -16 -20 -4.7163 0.9215
-2 -16 -19 1.4072 10.2069
-2 -16 -18 12.2289 -2.5065
-2 -16 -17 -0.9765 6.8709
-2 -16 -16 -15.0369 13.4657
-2 -16 -15 3.1897 3.4471
-2 -16 -14 -8.6556 -12.7932
-2 -16 -13 1.5070 1.8462
-2 -16 -12 -16.1834 4.8961
-2 -16 -11 9.3374 10.6319
-2 -16 -10 -13.3641 -6.7552
-2 -16 -9 11.7210 -10.7364
-2 -16 -8 10.4182 0.0036
-2 -16 -7 -9.8655 5.5448
-2 -16 -6 -7.1655 1.1440
-2 -16 -5 8.4338 2.7504
-2 -16 -4 5.9771 -15.0135
-2 -16 -3 1.7792 -6.9748
-2 -16 -2 -0.5154 7.3348
-2 -16 -1 0.3471 5.3385
-2 -15 -29 3.9359 -0.2217
-2 -15 -28 5.4556 -1.8965
-2 -15 -27 -0.7713 11.2559
-2 -15 -26 -7.2691 -6.0704
-2 -15 -25 -2.6771 1.2518
-2 -15 -24 7.2987 1.9537
-2 -15 -23 5.8172 9.1075
-2 -15 -22 1.7750 -0.6073
-2 -15 -21 -11.1946 1.7166
-2 -15 -20 5.1717 6.4829
-2 -15 -19 13.5716 9.4457
-2 -15 -18 8.1448 1.2374
-2 -15 -17 2.1887 6.5506
-2 -15 -16 -3.2146 -14.1696
-2 -15 -15 1.5766 5.3855
-2 -15 -14 5.4097 -0.8629
-2 -15 -13 -1.5423 17.1776
-2 -15 -12 -4.4728 -10.4252
-2 -15 -11 -0.0574 -3.1538
-2 -15 -10 -0.8158 20.8773
-2 -15 -9 3.7067 2.1839
-2 -15 -8 2.7511 -4.9922
-2 -15 -7 -15.9788 -1.1375
-2 -15 -6 -1.9464 -3.5873
-2 -15 -5 10.2417 0.5157
-2 -15 -4 -2.7089 6.8396
-2 -15 -3 -1.1931 7.1509
-2 -15 -2 -10.0547 -3.6847
-2 -15 -1 -7.0767 -3.8893
-2 -14 -32 -3.2505 -1.3836
-2 -14 -31 -3.2237 4.1550
-2 -14 -30 5.1881 6.1262
-2 -14 -29 -12.8793 5.9027
-2 -14 -28 -0.7829 4.3418
-2 -14 -27 -2.9239 0.9370
-2 -14 -26 5.2882 -5.5142
-2 -14 -25 0.5069 -0.1563
-2 -14 -24 2.9936 6.8627
-2 -14 -23 -4.6316 3.5872
-2 -14 -22 1.1812 -5.7793
-2 -14 -21 5.2958 -6.8657
-2 -14 -20 2.2021 2.9050
-2 -14 -19 -8.1785 12.5929
-2 -14 -18 8.7518 -3.9646
-2 -14 -17 9.7066 -9.1128
-2 -14 -16 12.4166 -15.4749
-2 -14 -15 -5.3560 2.0991
-2 -14 -14 -3.6687 8.4044
-2 -14 -13 13.1823 11.1147
-2 -14 -12 -10.5716 -2.0947
-2 -14 -11 7.9030 2.8474
-2 -14 -10 -1.2358 9.7428
-2 -14 -9 -7.1014 2.9278
-2 -14 -8 7.2210 -2.3173
-2 -14 -7 12.5614 6.6360
-2 -14 -6 2.5961 -4.7347
-2 -14 -5 -12.5071 3.4773
-2 -14 -4 -2.6322 5.4121
-2 -14 -3 2.3686 -3.9041
-2 -14 -2 2.7822 2.8319
-2 -14 -1 6.4444 0.3136
-2 -13 -34 5.1084 4.2842
-2 -13 -33 -3.3996 2.9043
-2 -13 -32 -3.8416 12.9041
-2 -13 -31 10.9037 0.7963
-2 -13 -30 9.3903 1.1244
-2 -13 -29 -6.2396 -0.7912
-2 -13 -28 4.6996 2.0108
-2 -13 -27 9.0525 5.7366
-2 -13 -26 8.3580 10.3157
-2 -13 -25 -2.2447 3.0818
-2 -13 -24 -5.4318 -4.7710
-2 -13 -23 -2.5732 -2.0908
-2 -13 -22 4.9806 2.5491
-2 -13 -21 2.8217 -1.4957
-2 -13 -20 2.4661 -2.0574
-2 -13 -19 -6.9433 -2.6224
-2 -13 -18 7.8862 -1.5031
-2 -13 -17 6.3616 4.4949
-2 -13 -16 5.7746 -9.2076
-2 -13 -15 -15.2781 2.2989
-2 -13 -14 -7.6448 -21.8014
-2 -13 -13 3.1897 4.8476
-2 -13 -12 11.9844 1.2212
-2 -13 -11 8.3038 -7.3544
-2 -13 -10 14.7482 -4.2724
-2 -13 -9 -3.7410 1.3421
-2 -13 -8 9.8194 8.4578
-2 -13 -7 15.7824 -4.5820
-2 -13 -6 -2.2319 3.0247
-2 -13 -5 1.8703 -5.8117
-2 -13 -4 -12.0991 -7.0237
-2 -13 -3 7.2307 4.0732
-2 -13 -2 -3.7309 15.2198
-2 -13 -1 0.5214 -0.8075
-2 -12 -36 4.3056 5.1146
-2 -12 -35 3.5512 2.7265
-2 -12 -34 -2.9193 -9.8242
-2 -12 -33 1.4523 0.8420
-2 -12 -32 5.2352 5.6322
-2 -12 -31 0.0696 -4.8710
-2 -12 -30 7.9392 3.0517
-2 -12 -29 5.0743 -4.6738
-2 -12 -28 1.2061 -7.2331
-2 -12 -27 -9.2460 0.7232
-2 -12 -26 2.5034 3.2947
-2 -12 -25 9.3719 -7.4164
-2 -12 -24 8.8788 -11.4784
-2 -12 -23 4.6040 0.0639
-2 -12 -22 -1.7293 13.7813
-2 -12 -21 -5.6820 5.4754
-2 -12 -20 4.3784 -5.6222
-2 -12 -19 -6.7932 -11.9223
-2 -12 -18 0.3101 1.9346
-2 -12 -17 -12.6684 -7.1050
-2 -12 -16 4.3559 0.0111
-2 -12 -15 -5.4786 -1.7477
-2 -12 -14 -2.4763 -4.4760
-2 -12 -13 -4.4046 -1.7370
-2 -12 -12 -5.1781 17.6082
-2 -12 -11 -1.0447 -10.1345
-2 -12 -10 -8.9946 -12.1823
-2 -12 -9 7.3454 -0.2449
-2 -12 -8 -11.7474 -15.3518
-2 -12 -7 -2.7167 2.0167
-2 -12 -6 2.0757 -19.1973
-2 -12 -5 7.5627 -1.1282
-2 -12 -4 -0.9902 -13.1482
-2 -12 -3 1.8172 8.2235
-2 -12 -2 -6.4702 17.4577
-2 -12 -1 2.5096 -2.5978
-2 -11 -38 7.6953 5.1005
-2 -11 -37 -2.6029 0.9865
-2 -11 -36 -3.3203 -3.8732
-2 -11 -35 -5.4941 -2.8463
-2 -11 -34 1.0911 2.7884
-2 -11 -33 10.5912 -4.5433
-2 -11 -32 -5.4785 6.6578
-2 -11 -31 -10.1459 2.9230
-2 -11 -30 5.7529 6.7749
-2 -11 -29 9.4938 -8.5696
-2 -11 -28 -0.8017 -0.7660
-2 -11 -27 -6.2178 -2.3781
-2 -11 -26 1.6435 -0.5993
-2 -11 -25 1.2783 3.5650
-2 -11 -24 -1.0367 3.8448
-2 -11 -23 -4.7116 -10.9109
-2 -11 -22 -6.1434 -7.3523
-2 -11 -21 0.6143 -10.2363
-2 -11 -20 4.5007 5.9965
-2 -11 -19 15.3344 1.8083
-2 -11 -18 -9.4040 3.5224
-2 -11 -17 -19.7679 0.1328
-2 -11 -16 -4.1244 7.6071
-2 -11 -15 5.7959 5.2226
-2 -11 -14 -7.7698 7.2975
-2 -11 -13 5.8995 8.7120
-2 -11 -12 -0.4888 -8.7064
-2 -11 -11 -10.3059 12.0825
-2 -11 -10 12.1582 -1.5861
-2 -11 -9 -6.6296 5.4527
-2 -11 -8 5.7378 -2.0623
-2 -11 -7 -15.0043 2.3606
-2 -11 -6 5.1859 2.4335
-2 -11 -5 -5.4634 10.2526
-2 -11 -4 -12.0105 -0.0535
-2 -11 -3 -7.9823 -7.5825
-2 -11 -2 1.3141 -3.8927
-2 -11 -1 6.6419 -1.0556
-2 -10 -40 -1.7763 -2.5392
-2 -10 -39 -2.5889 -4.9354
-2 -10 -38 -3.9046 -7.0712
-2 -10 -37 0.9356 -10.7876
-2 -10 -36 4.9812 -13.7321
-2 -10 -35 9.4547 2.9502
-2 -10 -34 -2.6658 8.2421
-2 -10 -33 2.8010 -6.2519
-2 -10 -32 -0.1222 -4.1215
-2 -10 -31 10.5894 -0.5600
-2 -10 -30 -0.3883 1.4970
-2 -10 -29 5.2584 4.3004
-2 -10 -28 8.1825 5.7915
-2 -10 -27 3.9076 -14.9730
-2 -10 -26 -9.7032 -8.6499
-2 -10 -25 -1.6758 8.8032
-2 -10 -24 -1.8338 5.5080
-2 -10 -23 5.6111 -2.4556
-2 -10 -22 -5.9572 -7.1012
-2 -10 -21 -4.7257 9.9188
-2 -10 -20 -8.8933 6.7667
-2 -10 -19 -4.9717 -1.0933
-2 -10 -18 -5.4719 -0.0356
-2 -10 -17 9.1360 0.5655
-2 -10 -16 2.4079 -0.3086
-2 -10 -15 -5.7956 19.2192
-2 -10 -14 12.0514 11.4234
-2 -10 -13 -0.7540 -9.9537
-2 -10 -12 10.8548 -3.3778
-2 -10 -11 3.6941 -6.4111
-2 -10 -10 -0.2865 9.7937
-2 -10 -9 -1.3604 -5.4828
-2 -10 -8 8.3526 2.9566
-2 -10 -7 6.0788 -4.3589
-2 -10 -6 -0.8025 -2.2774
-2 -10 -5 -2.1622 -6.3721
-2 -10 -4 0.4013 1.9762
-2 -10 -3 11.1833 -0.2115
-2 -10 -2 -1.5447 5.5948
-2 -10 -1 -1.6998 -2.1636
-2 -9 -42 -1.9889 -4.4987
-2 -9 -41 5.4160 -0.5413
-2 -9 -40 2.3822 -11.2148
-2 -9 -39 -6.9637 -10.6679
-2 -9 -38 -0.4180 0.0372
-2 -9 -37 -1.2671 8.0638
-2 -9 -36 -6.6456 2.1532
-2 -9 -35 -4.3182 0.7120
-2 -9 -34 -13.8546 -6.5700
-2 -9 -33 -4.8211 -1.8938
-2 -9 -32 7.5956 -6.5288
-2 -9 -31 3.3504 -3.6430
-2 -9 -30 -15.7091 -1.5624
-2 -9 -29 4.5010 -3.5437
-2 -9 -28 8.8205 -8.0030
-2 -9 -27 0.7147 -0.4794
-2 -9 -26 -0.5026 -6.1339
-2 -9 -25 -8.3619 -1.4268
-2 -9 -24 0.2211 -2.7590
-2 -9 -23 4.0968 12.2434
-2 -9 -22 7.2951 4.0873
-2 -9 -21 4.5580 1.0831
-2 -9 -20 -5.9350 -4.7566
-2 -9 -19 -1.6212 14.8636
-2 -9 -18 17.8179 7.2234
-2 -9 -17 8.7501 -1.1623
-2 -9 -16 1.0307 12.2900
-2 -9 -15 2.0551 -4.1396
-2 -9 -14 7.3520 -3.2275
-2 -9 -13 10.9330 3.1743
-2 -9 -12 6.8211 -1.5731
-2 -9 -11 -1.7313 -3.4611
-2 -9 -10 -14.7291 -4.3265
-2 -9 -9 -8.4929 -1.2921
-2 -9 -8 -1.8226 3.2222
-2 -9 -7 9.2989 -0.2665
-2 -9 -6 -2.0687 -13.3884
-2 -9 -5 -4.1983 -7.0033
-2 -9 -4 -8.7498 -6.4264
-2 -9 -3 0.3708 -0.8627
-2 -9 -2 -22.3489 4.4614
-2 -9 -1 8.9408 -7.5435
-2 -8 -43 -5.5010 2.8807
-2 -8 -42 3.4474 6.5286
-2 -8 -41 3.1321 6.2591
-2 -8 -40 0.2177 -1.5134
-2 -8 -39 -2.1433 -4.9924
-2 -8 -38 -2.9213 0.1379
-2 -8 -37 -8.8540 7.9298
-2 -8 -36 -0.2040 -2.3875
-2 -8 -35 6.7967 -8.0163
-2 -8 -34 6.4013 -2.6780
-2 -8 -33 2.4623 10.5025
-2 -8 -32 -6.3941 2.7509
-2 -8 -31 2.3409 9.6707
-2 -8 -30 1.1681 -4.0863
-2 -8 -29 -6.3366 -6.9736
-2 -8 -28 -4.3267 5.1864
-2 -8 -27 -2.4536 0.1493
-2 -8 -26 4.2356 -1.1558
-2 -8 -25 -8.1250 -6.8122
-2 -8 -24 -4.5932 -3.1413
-2 -8 -23 -1.3084 6.6741
-2 -8 -22 8.6541 -4.1503
-2 -8 -21 -4.3007 -14.3254
-2 -8 -20 7.2912 -2.0077
-2 -8 -19 12.0458 -3.2315
-2 -8 -18 -6.2694 1.4939
-2 -8 -17 6.5841 -6.5332
-2 -8 -16 13.0638 -7.8277
-2 -8 -15 4.5691 -17.0881
-2 -8 -14 10.9111 -1.0904
-2 -8 -13 0.3035 0.0636
-2 -8 -12 -3.0341 -0.7723
-2 -8 -11 1.8058 -12.6563
-2 -8 -10 -2.5959 -9.9472
-2 -8 -9 1.4679 8.0196
-2 -8 -8 1.8284 19.3253
-2 -8 -7 -0.4654 14.9449
-2 -8 -6 2.0064 3.9344
-2 -8 -5 10.2073 4.5283
-2 -8 -4 -20.4992 -27.5305
-2 -8 -3 -8.0195 13.1719
-2 -8 -2 -15.2709 6.7267
-2 -8 -1 -2.5074 15.6938
-2 -7 -44 11.9151 4.4066
-2 -7 -43 3.0284 0.3967
-2 -7 -42 5.9616 -4.0059
-2 -7 -41 0.8587 -4.1044
-2 -7 -40 2.2270 4.9228
-2 -7 -39 5.2326 -7.3572
-2 -7 -38 -3.1656 -5.2578
-2 -7 -37 -1.2818 -2.4884
-2 -7 -36 3.5532 -0.2724
-2 -7 -35 2.2692 6.9956
-2 -7 -34 1.4654 -6.3421
-2 -7 -33 -16.7775 -1.7597
-2 -7 -32 -5.3617 -5.5078
-2 -7 -31 5.6307 -1.2385
-2 -7 -30 2.7412 -1.5630
-2 -7 -29 4.9800 -3.8009
-2 -7 -28 -7.4343 -1.7507
-2 -7 -27 -4.2647 1.5196
-2 -7 -26 3.4638 3.1545
-2 -7 -25 -1.3808 2.1734
-2 -7 -24 0.5671 4.5026
-2 -7 -23 -0.1291 -4.5754
-2 -7 -22 -11.6708 8.1582
-2 -7 -21 -2.8087 6.5629
-2 -7 -20 -4.8174 -13.6486
-2 -7 -19 -0.0040 -0.4011
-2 -7 -18 -13.3379 6.2304
-2 -7 -17 1.3357 -14.1378
-2 -7 -16 -1.8010 -5.8383
-2 -7 -15 1.7344 -5.0821
-2 -7 -14 -15.4003 -7.1258
-2 -7 -13 -0.7014 -7.0110
-2 -7 -12 1.8580 -22.8775
-2 -7 -11 11.8281 4.8238
-2 -7 -10 -1.6591 11.8938
-2 -7 -9 -0.4702 6.9479
-2 -7 -8 -9.1242 -12.7169
-2 -7 -7 -2.3171 13.7247
-2 -7 -6 35.6872 -10.7016
-2 -7 -5 22.4978 2.3987
-2 -7 -4 13.5095 -8.6166
-2 -7 -3 -14.9593 -11.1391
-2 -7 -2 -0.2876 1.6680
-2 -7 -1 -25.9384 27.4065
-2 -6 -45 -4.7957 2.7308
-2 -6 -44 -4.1061 11.9502
-2 -6 -43 1.8967 -5.7828
-2 -6 -42 -7.0730 -15.5438
-2 -6 -41 7.5873 -2.0300
-2 -6 -40 -3.2946 -5.4332
-2 -6 -39 0.5765 2.2720
-2 -6 -38 2.3504 -4.6286
-2 -6 -37 -6.7132 -1.5670
-2 -6 -36 -4.0350 4.7793
-2 -6 -35 -7.5847 -5.1412
-2 -6 -34 1.5901 0.5226
-2 -6 -33 -1.1434 0.3186
-2 -6 -32 -1.9613 -4.7528
-2 -6 -31 -5.2513 12.9715
-2 -6 -30 2.4265 6.3619
-2 -6 -29 -1.5860 0.2747
-2 -6 -28 0.1697 5.0613
-2 -6 -27 -3.6520 -1.8261
-2 -6 -26 -5.0040 2.2117
-2 -6 -25 7.9400 7.8434
-2 -6 -24 -3.9491 -1.4452
-2 -6 -23 -3.5270 -5.5683
-2 -6 -22 14.3546 -1.1409
-2 -6 -21 8.6258 11.2639
-2 -6 -20 -10.5689 1.9102
-2 -6 -19 5.6641 9.6456
-2 -6 -18 -3.2044 0.9701
-2 -6 -17 -1.0906 3.7606
-2 -6 -16 -2.0760 -7.7076
-2 -6 -15 -19.4074 7.3021
-2 -6 -14 2.8322 -8.4334
-2 -6 -13 -9.3944 0.6739
-2 -6 -12 -5.2115 -10.5697
-2 -6 -11 -10.9212 9.3977
-2 -6 -10 5.2332 -15.5832
-2 -6 -9 -15.1312 -22.3374
-2 -6 -8 31.5004 -23.2397
-2 -6 -7 18.5836 3.1056
-2 -6 -6 -9.6589 3.6232
-2 -6 -5 8.1230 -11.9772
-2 -6 -4 4.5515 -9.7078
-2 -6 -3 -4.7274 -48.2962
-2 -6 -2 -1.9771 -26.8237
-2 -6 -1 -33.3265 33.1095
-2 -5 -46 -6.5948 -1.0020
-2 -5 -45 -3.8249 -2.6387
-2 -5 -44 5.1079 -9.9088
-2 -5 -43 0.0205 10.8548
-2 -5 -42 8.6590 -3.0134
-2 -5 -41 -6.2582 1.8926
-2 -5 -40 -4.6737 -2.8326
-2 -5 -39 -5.3023 -2.3166
-2 -5 -38 -2.7026 -2.9784
-2 -5 -37 6.1344 -5.6575
-2 -5 -36 -4.8717 -0.7350
-2 -5 -35 -4.9597 1.6040
-2 -5 -34 8.3700 7.6550
-2 -5 -33 -2.4923 1.0632
-2 -5 -32 -1.1509 4.0136
-2 -5 -31 7.2761 -1.6253
-2 -5 -30 -9.7391 7.3728
-2 -5 -29 2.7867 3.5414
-2 -5 -28 10.3718 -8.2635
-2 -5 -27 8.5085 1.9322
-2 -5 -26 -0.2899 -5.2014
-2 -5 -25 7.8326 -6.0098
-2 -5 -24 -3.7988 1.1411
-2 -5 -23 1.6894 7.2060
-2 -5 -22 7.3192 -7.9967
-2 -5 -21 -6.1220 12.0589
-2 -5 -20 -3.4307 -14.2642
-2 -5 -19 1.5139 -15.9848
-2 -5 -18 15.9609 6.2259
-2 -5 -17 3.5004 4.0033
-2 -5 -16 2.8158 10.4303
-2 -5 -15 -8.8060 -5.5497
-2 -5 -14 3.9892 5.3982
-2 -5 -13 -24.2039 25.2088
-2 -5 -12 -6.7877 20.8507
-2 -5 -11 -19.0523 -35.4993
-2 -5 -10 8.5682 3.3910
-2 -5 -9 -17.9837 15.1482
-2 -5 -8 -6.4493 -24.5158
-2 -5 -7 -26.4666 -5.3954
-2 -5 -6 -52.9671 -40.3771
-2 -5 -5 -17.2274 -8.8606
-2 -5 -4 26.1590 -9.6472
-2 -5 -3 -33.4105 -10.3632
-2 -5 -2 3.5561 -23.2410
-2 -5 -1 -34.3095 19.0743
-2 -4 -46 11.7712 4.6726
-2 -4 -45 -1.7302 -4.3500
-2 -4 -44 8.2446 3.5121
-2 -4 -43 -9.0735 1.6592
-2 -4 -42 -0.0977 0.0203
-2 -4 -41 -6.0031 -0.4335
-2 -4 -40 -2.2244 -5.2725
-2 -4 -39 -0.2151 3.7570
-2 -4 -38 -2.2745 0.0557
-2 -4 -37 -3.3208 -1.5522
-2 -4 -36 -6.8982 5.0648
-2 -4 -35 -5.0363 -1.4917
-2 -4 -34 -3.5773 -10.5588
-2 -4 -33 6.6851 12.9091
-2 -4 -32 0.2782 -7.1421
-2 -4 -31 0.6064 -3.6687
-2 -4 -30 8.5101 -5.2472
-2 -4 -29 -1.4655 3.4032
-2 -4 -28 5.5949 -7.9785
-2 -4 -27 4.0844 14.3308
-2 -4 -26 -4.1880 -13.6066
-2 -4 -25 -10.9839 -7.0288
-2 -4 -24 4.6718 1.4631
-2 -4 -23 -24.2918 4.2042
-2 -4 -22 -3.0878 1.7924
-2 -4 -21 13.7479 -5.6785
-2 -4 -20 7.2355 0.3089
-2 -4 -19 -0.4017 5.7138
-2 -4 -18 -15.8126 3.6591
-2 -4 -17 -11.8298 1.8202
-2 -4 -16 15.4149 -4.8308
-2 -4 -15 0.3473 -25.4504
-2 -4 -14 -5.0110 5.0133
-2 -4 -13 30.8159 3.1104
-2 -4 -12 4.5169 26.7950
-2 -4 -11 5.9393 4.5520
-2 -4 -10 31.9394 31.9325
-2 -4 -9 -46.0640 22.4466
-2 -4 -8 -6.9975 -5.0873
-2 -4 -7 -31.8566 -19.0234
-2 -4 -6 6.6469 42.9023
-2 -4 -5 -48.9057 -2.0308
-2 -4 -4 -22.3100 73.1085
-2 -4 -3 -37.1352 21.9452
-2 -4 -2 18.3027 -16.3453
-2 -4 -1 -22.1638 9.9118
-2 -3 -47 -3.3750 -0.8334
-2 -3 -46 0.9979 13.7624
-2 -3 -45 2.1743 -10.0959
-2 -3 -44 5.9134 1.1999
-2 -3 -43 -3.4651 -7.0121
-2 -3 -42 5.1107 -4.7552
-2 -3 -41 -0.7094 3.2812
-2 -3 -40 -1.1314 6.0592
-2 -3 -39 6.4542 4.6055
-2 -3 -38 -3.8009 7.6949
-2 -3 -37 -8.7226 -2.1448
-2 -3 -36 13.6002 -0.7658
-2 -3 -35 -8.6176 6.6963
-2 -3 -34 3.9603 1.0749
-2 -3 -33 -5.5100 3.7146
-2 -3 -32 -4.3500 6.3867
-2 -3 -31 -8.4522 -9.1238
-2 -3 -30 17.3567 -3.1791
-2 -3 -29 -17.6268 -0.0510
-2 -3 -28 -4.3603 -5.3433
-2 -3 -27 -4.3733 -5.0087
-2 -3 -26 0.8303 6.5904
-2 -3 -25 2.7448 -7.9698
-2 -3 -24 2.3633 3.1047
-2 -3 -23 4.2628 9.9429
-2 -3 -22 5.4846 6.0735
-2 -3 -21 10.1238 14.1935
-2 -3 -20 16.1825 12.7030
-2 -3 -19 -9.2839 -16.2249
-2 -3 -18 3.8592 -5.1360
-2 -3 -17 12.7098 -6.9422
-2 -3 -16 9.4763 11.1989
-2 -3 -15 -0.1488 30.0685
-2 -3 -14 -17.2601 -29.6544
-2 -3 -13 -11.0840 -26.8671
-2 -3 -12 -7.3485 28.9687
-2 -3 -11 7.3195 -33.5083
-2 -3 -10 14.8387 -13.0326
-2 -3 -9 40.3624 -38.7000
-2 -3 -8 -14.8015 40.2312
-2 -3 -7 55.5553 1.5162
-2 -3 -6 -28.8626 39.9001
-2 -3 -5 -5.7746 -4.7269
-2 -3 -4 -11.5741 53.8767
-2 -3 -3 32.2555 31.1143
-2 -3 -2 30.4306 6.7437
-2 -3 -1 28.1146 24.9426
-2 -2 -47 9.9550 3.0690
-2 -2 -46 -2.8877 10.8302
-2 -2 -45 4.1690 8.2038
-2 -2 -44 9.8870 14.0972
-2 -2 -43 -1.6943 3.1304
-2 -2 -42 -1.4224 -12.2109
-2 -2 -41 6.3539 4.6305
-2 -2 -40 -11.0444 -1.5318
-2 -2 -39 4.2611 -4.0054
-2 -2 -38 5.1297 8.4755
-2 -2 -37 2.0272 -8.1694
-2 -2 -36 6.2761 2.1852
-2 -2 -35 -3.2624 2.5052
-2 -2 -34 -7.4336 -1.8429
-2 -2 -33 7.4879 -11.1279
-2 -2 -32 0.3305 14.7666
-2 -2 -31 -0.2900 3.2675
-2 -2 -30 3.9610 5.1857
-2 -2 -29 -6.8729 2.8513
-2 -2 -28 -6.3823 -6.4162
-2 -2 -27 -0.2186 4.7522
-2 -2 -26 -0.3310 9.8186
-2 -2 -25 -1.5632 9.4653
-2 -2 -24 10.4912 -8.4085
-2 -2 -23 7.4223 -10.1506
-2 -2 -22 -5.8674 -3.7867
-2 -2 -21 6.6363 -25.7747
-2 -2 -20 4.9400 -4.5150
-2 -2 -19 20.0345 -29.5227
-2 -2 -18 12.8570 -9.4707
-2 -2 -17 -31.4691 -16.0872
-2 -2 -16 8.7602 1.2591
-2 -2 -15 12.8519 -13.9709
-2 -2 -14 -11.7927 -6.2155
-2 -2 -13 16.5570 0.3237
-2 -2 -12 -19.3946 18.1207
-2 -2 -11 -12.8610 32.7052
-2 -2 -10 -29.1175 -30.0157
-2 -2 -9 17.9592 27.2699
-2 -2 -8 -46.3279 -27.0085
-2 -2 -7 2.8649 7.3649
-2 -2 -6 -14.1187 -38.8184
-2 -2 -5 34.4049 15.3677
-2 -2 -4 18.8521 -11.6827
-2 -2 -3 -13.7280 30.2152
-2 -2 -2 30.6409 27.6915
-2 -2 -1 47.5489 -21.2428
-2 -1 -47 -3.3863 -3.3881
-2 -1 -46 -2.7011 10.4554
-2 -1 -45 -2.0292 -8.5164
-2 -1 -44 21.6100 -6.9413
-2 -1 -43 11.4416 8.9504
-2 -1 -42 22.7790 -12.6623
-2 -1 -41 7.9322 -1.4718
-2 -1 -40 -5.2530 -4.9896
-2 -1 -39 -5.5511 -6.1527
-2 -1 -38 7.0701 6.9840
-2 -1 -37 6.2313 -2.1022
-2 -1 -36 -0.9773 -6.0635
-2 -1 -35 2.1903 7.0717
-2 -1 -34 -0.6651 -1.3098
-2 -1 -33 -5.1835 2.0137
-2 -1 -32 3.0689 7.5052
-2 -1 -31 -8.1020 -4.5806
-2 -1 -30 11.4677 1.5817
-2 -1 -29 4.6013 -2.7717
-2 -1 -28 7.6357 0.7259
-2 -1 -27 -8.9178 2.9943
-2 -1 -26 3.8361 7.1455
-2 -1 -25 0.6010 -0.0066
-2 -1 -24 -0.1213 -11.7512
-2 -1 -23 13.7808 -5.2287
-2 -1 -22 -26.7940 -15.9902
-2 -1 -21 -1.4486 -14.2862
-2 -1 -20 -30.0885 7.9514
-2 -1 -19 -4.3509 -14.0253
-2 -1 -18 -33.4227 13.3612
-2 -1 -17 -18.4507 -18.6387
-2 -1 -16 -28.2615 -20.7468
-2 -1 -15 -2.8068 21.6146
-2 -1 -14 -13.1620 18.1568
-2 -1 -13 -5.8696 -27.0647
-2 -1 -12 15.7413 -15.5353
-2 -1 -11 -4.7501 36.8961
-2 -1 -10 37.4783 3.4342
-2 -1 -9 0.8859 26.3345
-2 -1 -8 24.0574 -14.9952
-2 -1 -7 -26.1880 39.6511
-2 -1 -6 29.4521 26.4014
-2 -1 -5 1.4691 -3.0556
-2 -1 -4 -12.1592 -14.5510
-2 -1 -3 4.6106 31.9307
-2 -1 -2 16.8090 -11.3656
-2 -1 -1 7.7382 4.9281
-1 -19 -1 -1.8902 4.9768
-1 -18 -15 -3.3005 -1.7295
-1 -18 -14 8.3325 -7.9011
-1 -18 -13 5.8382 0.2245
-1 -18 -12 -13.5675 -6.5880
-1 -18 -11 0.9558 2.2458
-1 -18 -10 9.0503 -13.4327
-1 -18 -9 -4.7970 8.0808
-1 -18 -8 -18.2415 -8.1401
-1 -18 -7 -0.3470 -4.5952
-1 -18 -6 -9.1531 5.3208
-1 -18 -5 8.4289 10.1489
-1 -18 -4 14.3015 8.6315
-1 -18 -3 -9.0820 -2.8629
-1 -18 -2 -17.2265 -1.7333
-1 -18 -1 -2.1080 -1.8789
-1 -17 -21 -9.4022 2.3887
-1 -17 -20 2.9860 17.7099
-1 -17 -19 -16.8930 13.4673
-1 -17 -18 3.1718 8.0886
-1 -17 -17 -4.2560 -10.7761
-1 -17 -16 6.2622 -7.3172
-1 -17 -15 -6.3158 15.8694
-1 -17 -14 -4.3137 -5.4743
-1 -17 -13 -19.0505 -3.1027
-1 -17 -12 15.0788 -0.0453
-1 -17 -11 -11.9557 -6.6795
-1 -17 -10 -5.9361 -3.5281
-1 -17 -9 1.5635 10.4509
-1 -17 -8 -1.7523 -11.6947
-1 -17 -7 -0.5592 -6.0725
-1 -17 -6 -6.2139 19.6121
-1 -17 -5 0.1769 8.8600
-1 -17 -4 1.3663 -3.2062
-1 -17 -3 9.9498 -3.1015
-1 -17 -2 3.3047 -12.6280
-1 -17 -1 6.6014 8.8151
-1 -16 -25 -2.7542 5.0640
-1 -16 -24 4.2503 6.3510
-1 -16 -23 1.7196 -11.2231
-1 -16 -22 -2.0680 6.8399
-1 -16 -21 -0.3864 -9.4055
-1 -16 -20 -17.3677 5.6791
-1 -16 -19 0.2057 -3.9751
-1 -16 -18 24.0851 8.8921
-1 -16 -17 5.6412 10.1834
-1 -16 -16 16.7208 7.6990
-1 -16 -15 -11.2869 -19.4904
-1 -16 -14 -21.2882 10.2317
-1 -16 -13 6.3348 -4.6846
-1 -16 -12 5.0008 0.2612
-1 -16 -11 -12.2444 10.5388
-1 -16 -10 -6.0980 -6.9827
-1 -16 -9 2.3307 -1.9269
-1 -16 -8 -9.7113 2.0813
-1 -16 -7 0.6439 6.7414
-1 -16 -6 -5.1270 -4.0144
-1 -16 -5 -9.5282 0.1042
-1 -16 -4 9.8088 -4.9466
-1 -16 -3 3.5486 11.9793
-1 -16 -2 6.6491 -12.6697
-1 -16 -1 -10.0581 -5.6050
-1 -15 -29 4.7675 -10.7227
-1 -15 -28 -2.6212 7.8416
-1 -15 -27 -8.0329 6.2777
-1 -15 -26 -14.2753 10.0612
-1 -15 -25 -0.2512 -4.2306
-1 -15 -24 -1.1486 -13.5571
-1 -15 -23 9.4448 2.4131
-1 -15 -22 -2.6235 -9.3722
-1 -15 -21 0.7291 -6.6196
-1 -15 -20 -3.7439 4.1986
-1 -15 -19 -4.8524 -7.7655
-1 -15 -18 -5.7737 23.4471
-1 -15 -17 8.9464 7.3054
-1 -15 -16 -2.3866 -23.9725
-1 -15 -15 13.4376 -8.5544
-1 -15 -14 6.0710 -5.8564
-1 -15 -13 -20.6633 10.3911
-1 -15 -12 -5.3859 15.5218
-1 -15 -11 2.5539 12.8979
-1 -15 -10 3.6327 -7.1963
-1 -15 -9 -8.9793 6.2641
-1 -15 -8 -7.9356 9.1260
-1 -15 -7 -5.7146 6.3558
-1 -15 -6 5.7538 3.9041
-1 -15 -5 -8.3937 -3.8162
-1 -15 -4 6.5390 9.7848
-1 -15 -3 3.4694 10.7127
-1 -15 -2 -11.6984 -5.2314
-1 -15 -1 -4.2720 0.4724
-1 -14 -32 -0.4755 -1.9405
-1 -14 -31 8.4584 3.8604
-1 -14 -30 1.9089 4.6023
-1 -14 -29 3.0716 -0.9344
-1 -14 -28 -13.4364 -3.9046
-1 -14 -27 -18.5577 -9.2706
-1 -14 -26 1.0911 -0.5108
-1 -14 -25 4.0263 8.7983
-1 -14 -24 13.6017 10.4561
-1 -14 -23 -1.0860 5.8720
-1 -14 -22 -18.3699 -4.2120
-1 -14 -21 2.5270 -5.9245
-1 -14 -20 -6.3875 0.3968
-1 -14 -19 -13.4662 6.5387
-1 -14 -18 4.2120 -2.2174
-1 -14 -17 -6.2096 8.6668
-1 -14 -16 14.9755 10.2827
-1 -14 -15 7.4685 -7.1632
-1 -14 -14 -2.0334 -9.0737
-1 -14 -13 -19.4457 -3.5662
-1 -14 -12 0.2933 4.8796
-1 -14 -11 11.8933 11.0613
-1 -14 -10 17.2779 9.0731
-1 -14 -9 6.9372 4.6815
-1 -14 -8 0.9301 -1.8095
-1 -14 -7 7.7480 3.0685
-1 -14 -6 8.4749 15.4612
-1 -14 -5 -2.1079 18.0378
-1 -14 -4 14.0278 -11.1792
-1 -14 -3 -13.0015 -0.6441
-1 -14 -2 0.2140 5.6403
-1 -14 -1 17.0641 -12.4529
-1 -13 -35 -4.3758 -7.5302
-1 -13 -34 -2.4098 7.7441
-1 -13 -33 -9.3413 11.9739
-1 -13 -32 -11.5704 2.4248
-1 -13 -31 -3.0802 9.4918
-1 -13 -30 -9.5020 7.2560
-1 -13 -29 9.0671 -6.7853
-1 -13 -28 -0.3164 -8.0097
-1 -13 -27 -0.6010 -5.9605
-1 -13 -26 -6.6791 16.1476
-1 -13 -25 -8.5442 23.2304
-1 -13 -24 -5.6810 0.6019
-1 -13 -23 7.8428 -1.1488
-1 -13 -22 7.1124 -3.5772
-1 -13 -21 -1.5057 -7.0135
-1 -13 -20 0.4995 21.7671
-1 -13 -19 -3.8898 2.4614
-1 -13 -18 -0.7904 -0.7204
-1 -13 -17 6.4539 0.7050
-1 -13 -16 7.1013 13.3921
-1 -13 -15 2.0420 -4.1442
-1 -13 -14 9.4325 -6.2923
-1 -13 -13 -2.2870 -9.6311
-1 -13 -12 -4.1317 -1.7859
-1 -13 -11 -11.5406 9.0321
-1 -13 -10 11.9971 3.5525
-1 -13 -9 9.2267 -4.3496
-1 -13 -8 14.1343 -12.3251
-1 -13 -7 -7.2915 -24.0014
-1 -13 -6 12.0008 12.4845
-1 -13 -5 1.5937 -14.2980
-1 -13 -4 4.1004 -11.1479
-1 -13 -3 23.9078 4.5396
-1 -13 -2 -6.4581 0.2014
-1 -13 -1 -5.4840 7.1072
-1 -12 -37 12.7876 5.2655
-1 -12 -36 5.1398 10.1149
-1 -12 -35 -9.3561 -0.8148
-1 -12 -34 -2.4644 -1.5857
-1 -12 -33 -0.7054 10.8642
-1 -12 -32 4.4285 -0.5721
-1 -12 -31 6.3356 17.2234
-1 -12 -30 6.8537 4.1165
-1 -12 -29 6.9939 7.3276
-1 -12 -28 5.1089 7.1201
-1 -12 -27 -5.5365 3.1691
-1 -12 -26 -4.7339 -10.4743
-1 -12 -25 -13.6109 2.5183
-1 -12 -24 4.0013 5.9582
-1 -12 -23 31.4335 3.5428
-1 -12 -22 4.4485 4.6435
-1 -12 -21 -2.0680 -1.2254
-1 -12 -20 2.0012 -6.1328
-1 -12 -19 4.6979 3.7474
-1 -12 -18 4.2123 -0.5263
-1 -12 -17 9.9857 -7.0118
-1 -12 -16 -6.9182 3.6935
-1 -12 -15 -3.4551 -7.9923
-1 -12 -14 7.7240 -1.3267
-1 -12 -13 1.4913 -11.7254
-1 -12 -12 -0.4698 -0.4254
-1 -12 -11 -17.8854 -7.3628
-1 -12 -10 -9.4206 12.5056
-1 -12 -9 22.1628 -5.8132
-1 -12 -8 -3.3935 9.7990
-1 -12 -7 2.7087 -9.4012
-1 -12 -6 -5.0878 -18.6304
-1 -12 -5 -23.6673 6.0654
-1 -12 -4 -5.9621 -5.6831
-1 -12 -3 -3.3420 1.1522
-1 -12 -2 -5.5383 -5.4400
-1 -12 -1 -2.5081 -10.7602
-1 -11 -39 6.7814 -2.6407
-1 -11 -38 -0.6679 5.6810
-1 -11 -37 9.7522 -5.6209
-1 -11 -36 13.7715 0.4181
-1 -11 -35 2.0137 -13.5442
-1 -11 -34 9.4452 -7.1431
-1 -11 -33 -3.0160 1.5726
-1 -11 -32 6.4217 12.4560
-1 -11 -31 4.3330 -0.3112
-1 -11 -30 1.6115 -3.2584
-1 -11 -29 -0.0626 -2.5592
-1 -11 -28 11.3542 7.3353
-1 -11 -27 2.7111 -10.7570
-1 -11 -26 3.3004 -8.7613
-1 -11 -25 2.8155 9.7644
-1 -11 -24 -3.9191 9.5857
-1 -11 -23 -12.3158 9.7878
-1 -11 -22 4.9178 6.3125
-1 -11 -21 -3.6771 -19.9230
-1 -11 -20 5.8303 -21.2809
-1 -11 -19 1.4847 1.2487
-1 -11 -18 -9.3606 0.2353
-1 -11 -17 -0.2677 -2.0989
-1 -11 -16 -7.5424 -4.7966
-1 -11 -15 -6.1828 -5.7507
-1 -11 -14 -2.6038 15.4445
-1 -11 -13 1.2650 -3.8021
-1 -11 -12 -11.0197 -8.0090
-1 -11 -11 5.9827 7.4180
-1 -11 -10 -13.2895 -3.6003
-1 -11 -9 -7.0845 10.7520
-1 -11 -8 12.8432 20.7803
-1 -11 -7 1.3392 -17.9510
-1 -11 -6 13.2583 -15.0602
-1 -11 -5 -4.4704 -2.1697
-1 -11 -4 -12.4444 11.2599
-1 -11 -3 0.0239 13.3712
-1 -11 -2 9.0588 6.5389
-1 -11 -1 -2.7661 11.8149
-1 -10 -40 4.4790 -4.0928
-1 -10 -39 14.8584 -1.9837
-1 -10 -38 -14.3789 1.7627
-1 -10 -37 -2.2440 -8.6013
-1 -10 -36 -0.0946 -2.6377
-1 -10 -35 5.4585 -2.4365
-1 -10 -34 -7.7326 -4.0076
-1 -10 -33 -10.5871 -3.7160
-1 -10 -32 -9.9550 -3.0115
-1 -10 -31 4.7031 0.4484
-1 -10 -30 4.4284 1.8727
-1 -10 -29 12.1591 -1.0669
-1 -10 -28 3.8072 -1.3462
-1 -10 -27 -1.3381 6.7772
-1 -10 -26 5.5097 5.6228
-1 -10 -25 5.7536 -15.0727
-1 -10 -24 -14.5889 3.7122
-1 -10 -23 0.9427 -1.3909
-1 -10 -22 18.8078 10.6415
-1 -10 -21 11.8848 8.5425
-1 -10 -20 4.0937 2.7088
-1 -10 -19 -15.1840 3.4596
-1 -10 -18 -18.6950 -0.1292
-1 -10 -17 -1.1306 -4.9148
-1 -10 -16 -5.8682 13.6363
-1 -10 -15 11.7747 13.1497
-1 -10 -14 1.7303 4.9164
-1 -10 -13 -10.5076 13.4335
-1 -10 -12 10.5746 -0.6970
-1 -10 -11 10.6803 -5.2173
-1 -10 -10 -20.3619 10.4518
-1 -10 -9 1.3354 -5.6690
-1 -10 -8 4.6864 8.1525
-1 -10 -7 11.2336 6.6601
-1 -10 -6 8.7315 -9.0260
-1 -10 -5 -2.1664 -10.7720
-1 -10 -4 -11.1620 -13.7899
-1 -10 -3 -12.8197 -2.5152
-1 -10 -2 3.3943 4.1726
-1 -10 -1 21.2309 4.8484
-1 -9 -42 1.0324 -2.8864
-1 -9 -41 1.2072 11.4146
-1 -9 -40 -4.5493 -10.6643
-1 -9 -39 7.4578 -1.9936
-1 -9 -38 5.4841 -10.7715
-1 -9 -37 -5.4040 -2.2017
-1 -9 -36 1.3827 10.3949
-1 -9 -35 -2.6364 10.8524
-1 -9 -34 3.6712 -3.4521
-1 -9 -33 -2.5559 -3.7852
-1 -9 -32 2.8388 -1.8937
-1 -9 -31 -4.0918 15.2138
-1 -9 -30 7.6820 15.2909
-1 -9 -29 -0.0300 -6.7485
-1 -9 -28 -1.5975 -11.9908
-1 -9 -27 11.8375 -0.8875
-1 -9 -26 -3.7339 -11.8439
-1 -9 -25 4.5667 -7.2920
-1 -9 -24 6.1416 1.1282
-1 -9 -23 -4.1347 -8.3231
-1 -9 -22 -3.3882 5.9501
-1 -9 -21 1.6897 4.3845
-1 -9 -20 5.4547 -10.2453
-1 -9 -19 14.8852 -8.1137
-1 -9 -18 -3.4560 -15.3491
-1 -9 -17 0.0666 16.0737
-1 -9 -16 6.0450 21.7321
-1 -9 -15 -2.6651 -2.3969
-1 -9 -14 7.3185 -1.4289
-1 -9 -13 23.5816 1.9562
-1 -9 -12 5.7457 -16.3812
-1 -9 -11 10.3059 4.0775
-1 -9 -10 1.4437 -1.3250
-1 -9 -9 -6.5755 -4.2561
-1 -9 -8 4.4437 6.3518
-1 -9 -7 -5.7810 13.2094
-1 -9 -6 8.2444 5.2953
-1 -9 -5 0.3175 -14.0727
-1 -9 -4 -0.3375 -17.9019
-1 -9 -3 -26.3465 2.7348
-1 -9 -2 6.4050 6.5252
-1 -9 -1 -15.3064 -0.8998
-1 -8 -43 -1.1354 0.5630
-1 -8 -42 13.8398 -3.1627
-1 -8 -41 0.0877 7.2464
-1 -8 -40 1.1240 4.5512
-1 -8 -39 5.9223 -6.0244
-1 -8 -38 -0.3597 3.2555
-1 -8 -37 -6.6425 -4.8709
-1 -8 -36 -2.3877 -0.2296
-1 -8 -35 -1.9256 -5.5657
-1 -8 -34 15.7297 7.5725
-1 -8 -33 13.7008 -7.5704
-1 -8 -32 -6.4176 2.0331
-1 -8 -31 -2.8474 -5.9943
-1 -8 -30 1.8570 0.8669
-1 -8 -29 3.2001 7.4233
-1 -8 -28 16.9840 -11.2059
-1 -8 -27 4.8058 -8.5496
-1 -8 -26 -16.5438 7.6938
-1 -8 -25 0.9017 -3.7453
-1 -8 -24 -4.2756 -1.5666
-1 -8 -23 -7.8891 -3.4501
-1 -8 -22 -4.9908 -1.8586
-1 -8 -21 -14.6769 9.3255
-1 -8 -20 13.0507 -4.0081
-1 -8 -19 5.2754 -1.0323
-1 -8 -18 -8.8612 6.9064
-1 -8 -17 -1.2100 -7.8409
-1 -8 -16 -9.7025 -7.7747
-1 -8 -15 -3.7982 9.1534
-1 -8 -14 28.7088 -2.0660
-1 -8 -13 10.5355 2.5515
-1 -8 -12 -3.3846 -1.1329
-1 -8 -11 -4.7596 -18.8577
-1 -8 -10 -6.3589 -5.9616
-1 -8 -9 -3.6633 -12.5285
-1 -8 -8 -5.8410 7.3079
-1 -8 -7 1.9532 1.4779
-1 -8 -6 11.3290 10.8304
-1 -8 -5 14.6720 -13.0633
-1 -8 -4 0.5388 16.2946
-1 -8 -3 9.9079 -13.6857
-1 -8 -2 -22.0455 4.2146
-1 -8 -1 -26.2754 9.0425
-1 -7 -44 5.6389 5.6009
-1 -7 -43 -8.4194 7.5903
-1 -7 -42 -4.8141 1.0014
-1 -7 -41 6.7472 0.1478
-1 -7 -40 3.0495 -5.8729
-1 -7 -39 0.4282 -8.2837
-1 -7 -38 1.6562 5.4049
-1 -7 -37 7.9621 -10.4784
-1 -7 -36 -4.8232 -4.4722
-1 -7 -35 6.0112 5.0514
-1 -7 -34 -6.2469 -1.1446
-1 -7 -33 5.9157 -1.3818
-1 -7 -32 5.1405 -9.6297
-1 -7 -31 -7.0712 -21.6852
-1 -7 -30 1.4318 -0.4094
-1 -7 -29 3.5906 9.9053
-1 -7 -28 -5.2551 -3.4713
-1 -7 -27 6.4475 1.8440
-1 -7 -26 -6.9612 -11.1517
-1 -7 -25 -4.2867 -7.9677
-1 -7 -24 6.4002 5.5500
-1 -7 -23 -0.2349 -5.9645
-1 -7 -22 1.8382 11.4220
-1 -7 -21 -4.5053 7.3739
-1 -7 -20 -5.9077 3.4418
-1 -7 -19 12.4629 18.9072
-1 -7 -18 6.4780 -0.0538
-1 -7 -17 -9.4834 -21.0142
-1 -7 -16 9.1312 6.0965
-1 -7 -15 5.6585 8.6814
-1 -7 -14 -7.4454 7.3786
-1 -7 -13 -0.6492 -5.6299
-1 -7 -12 4.7948 -22.6817
-1 -7 -11 21.3950 -21.1433
-1 -7 -10 0.9815 -8.7441
-1 -7 -9 -10.4786 8.9219
-1 -7 -8 -9.8800 9.0680
-1 -7 -7 12.1998 13.7361
-1 -7 -6 -6.8040 -19.2028
-1 -7 -5 15.0745 19.1426
-1 -7 -4 7.1653 -8.5934
-1 -7 -3 -3.5799 -34.9419
-1 -7 -2 14.2054 11.3111
-1 -7 -1 -8.8784 -16.0447
-1 -6 -45 1.3087 -2.7324
-1 -6 -44 1.5961 -4.2077
-1 -6 -43 -9.2668 -4.1612
-1 -6 -42 -0.9154 1.2717
-1 -6 -41 14.5910 -6.3191
-1 -6 -40 -4.9487 2.2349
-1 -6 -39 5.6962 -0.2438
-1 -6 -38 -0.4045 -10.5730
-1 -6 -37 -6.2122 4.9901
-1 -6 -36 -0.0754 -11.5363
-1 -6 -35 -4.8043 -7.2229
-1 -6 -34 -13.2156 2.7653
-1 -6 -33 6.5051 -5.8113
-1 -6 -32 0.8113 0.7106
-1 -6 -31 -5.2166 -3.6583
-1 -6 -30 -7.2299 -15.3453
-1 -6 -29 -23.6268 5.0160
-1 -6 -28 -6.1431 1.1689
-1 -6 -27 6.3134 -4.7391
-1 -6 -26 7.1922 4.5809
-1 -6 -25 10.7122 2.8551
-1 -6 -24 -11.3431 4.4793
-1 -6 -23 -13.1285 -5.2166
-1 -6 -22 6.8012 -12.9547
-1 -6 -21 -2.1374 7.7393
-1 -6 -20 2.0148 11.0112
-1 -6 -19 23.7164 -5.7333
-1 -6 -18 7.9706 2.2767
-1 -6 -17 12.8267 1.1848
-1 -6 -16 2.1098 -1.4288
-1 -6 -15 -6.1180 -5.5509
-1 -6 -14 -10.2712 -4.6273
-1 -6 -13 4.8959 -1.8246
-1 -6 -12 7.9022 3.4829
-1 -6 -11 -8.8195 -6.3282
-1 -6 -10 -25.4581 -0.1345
-1 -6 -9 -45.1561 -18.1215
-1 -6 -8 19.6110 -21.7881
-1 -6 -7 -13.0846 5.0856
-1 -6 -6 15.4751 8.8062
-1 -6 -5 23.7010 -27.7230
-1 -6 -4 -23.1561 1.9892
-1 -6 -3 9.4077 -20.6112
-1 -6 -2 4.1831 5.5683
-1 -6 -1 -19.9031 -12.7370
-1 -5 -46 -10.2976 11.6770
-1 -5 -45 3.2136 -4.1877
-1 -5 -44 1.5874 -7.2139
-1 -5 -43 11.8349 1.6225
-1 -5 -42 -6.6694 -5.9140
-1 -5 -41 -6.8978 10.7104
-1 -5 -40 6.1798 5.1175
-1 -5 -39 -10.9344 -9.3678
-1 -5 -38 1.5743 -6.2807
-1 -5 -37 0.7046 -0.0452
-1 -5 -36 -10.3481 -7.9372
-1 -5 -35 -0.4339 9.6202
-1 -5 -34 -10.5194 1.8183
-1 -5 -33 -15.4541 3.9672
-1 -5 -32 8.2664 9.6626
-1 -5 -31 0.2943 -6.0624
-1 -5 -30 -5.3399 2.7087
-1 -5 -29 -3.6662 1.1297
-1 -5 -28 -12.3696 7.8315
-1 -5 -27 -3.2386 24.4706
-1 -5 -26 3.4776 12.0523
-1 -5 -25 -0.3242 -16.9618
-1 -5 -24 12.3401 -5.9279
-1 -5 -23 4.7992 -14.5639
-1 -5 -22 -1.8708 -6.0327
-1 -5 -21 -3.3240 23.4145
-1 -5 -20 -13.2110 -3.2366
-1 -5 -19 1.9589 -8.8842
-1 -5 -18 16.8784 -11.4016
-1 -5 -17 6.9697 -10.1595
-1 -5 -16 -13.0838 -26.2693
-1 -5 -15 9.4610 -11.3991
-1 -5 -14 10.4864 -5.2492
-1 -5 -13 15.3041 18.2049
-1 -5 -12 -34.0102 17.9076
-1 -5 -11 -0.6705 -10.7960
-1 -5 -10 14.6057 29.3098
-1 -5 -9 4.9617 -16.5084
-1 -5 -8 -23.8576 32.3272
-1 -5 -7 9.9482 38.8563
-1 -5 -6 -24.7824 -1.4398
-1 -5 -5 13.8361 -12.5329
-1 -5 -4 -28.1358 -14.4151
-1 -5 -3 -20.4532 -5.4749
-1 -5 -2 -1.8742 -4.4059
-1 -5 -1 -11.0883 0.4624
-1 -4 -46 3.0869 0.5568
-1 -4 -45 6.1795 14.7336
-1 -4 -44 11.1174 5.2550
-1 -4 -43 0.9936 -6.0663
-1 -4 -42 -6.4935 2.5576
-1 -4 -41 0.2858 -9.9976
-1 -4 -40 3.9817 0.6336
-1 -4 -39 2.8364 5.5038
-1 -4 -38 12.1392 -5.8050
-1 -4 -37 -8.8792 5.0652
-1 -4 -36 -6.2213 6.0047
-1 -4 -35 -4.8616 -8.7130
-1 -4 -34 -2.4956 10.7523
-1 -4 -33 13.7467 12.6516
-1 -4 -32 -0.4393 6.6685
-1 -4 -31 2.7124 11.6871
-1 -4 -30 9.2095 -2.7775
-1 -4 -29 -3.5856 -7.4861
-1 -4 -28 -6.0688 5.1861
-1 -4 -27 14.0931 -1.1641
-1 -4 -26 -5.6630 9.2280
-1 -4 -25 17.9931 0.4129
-1 -4 -24 23.4222 1.3608
-1 -4 -23 -22.8295 1.5749
-1 -4 -22 -17.5725 -16.5691
-1 -4 -21 -13.0836 -17.2709
-1 -4 -20 -4.6636 13.0310
-1 -4 -19 6.7917 14.1077
-1 -4 -18 14.1035 -0.2022
-1 -4 -17 -14.3874 1.1992
-1 -4 -16 -4.1817 -9.9127
-1 -4 -15 -30.4172 16.5121
-1 -4 -14 -15.9576 -21.0961
-1 -4 -13 -2.4815 -6.6015
-1 -4 -12 -22.6751 -14.5223
-1 -4 -11 51.6451 -9.8907
-1 -4 -10 27.6822 -4.5808
-1 -4 -9 18.8694 39.3542
-1 -4 -8 -0.7326 -30.8062
-1 -4 -7 7.2027 -0.0652
-1 -4 -6 20.1759 -11.0944
-1 -4 -5 13.3836 4.0413
-1 -4 -4 20.0868 -3.7660
-1 -4 -3 -16.0334 -15.9308
-1 -4 -2 -29.4978 24.2040
-1 -4 -1 0.7471 36.6565
-1 -3 -47 2.1824 1.7751
-1 -3 -46 -5.2245 -1.0430
-1 -3 -45 5.9758 -0.8244
-1 -3 -44 -0.1052 -4.2205
-1 -3 -43 7.7066 -3.9694
-1 -3 -42 5.0243 -3.9305
-1 -3 -41 -5.2827 -7.2219
-1 -3 -40 5.7463 6.2195
-1 -3 -39 -1.4839 -3.0519
-1 -3 -38 -9.6515 -1.1051
-1 -3 -37 8.1429 -6.7834
-1 -3 -36 -2.0857 -12.4641
-1 -3 -35 -6.3117 6.1363
-1 -3 -34 8.1253 4.2539
-1 -3 -33 -1.9183 0.6701
-1 -3 -32 4.4741 3.8549
-1 -3 -31 14.7319 -13.6705
-1 -3 -30 7.9770 -11.9814
-1 -3 -29 10.8570 11.1809
-1 -3 -28 -3.1482 -15.4109
-1 -3 -27 -2.5837 -4.2929
-1 -3 -26 -5.5850 18.5634
-1 -3 -25 -7.5293 -6.0481
-1 -3 -24 2.0743 0.5594
-1 -3 -23 9.2236 -3.8871
-1 -3 -22 -5.2385 -17.4930
-1 -3 -21 8.0119 9.5595
-1 -3 -20 -13.0972 29.8938
-1 -3 -19 -15.7326 12.5678
-1 -3 -18 8.3482 16.8437
-1 -3 -17 13.9185 -32.2915
-1 -3 -16 24.8035 -2.2261
-1 -3 -15 -10.6935 6.5008
-1 -3 -14 -11.5990 -9.2719
-1 -3 -13 23.6943 37.7827
-1 -3 -12 12.7737 12.3833
-1 -3 -11 -57.1066 9.8633
-1 -3 -10 -5.5539 -20.8824
-1 -3 -9 -7.4753 -37.6758
-1 -3 -8 7.3045 -52.8118
-1 -3 -7 -10.0175 -42.3295
-1 -3 -6 -11.4636 11.4900
-1 -3 -5 3.5996 9.1714
-1 -3 -4 -4.5412 -21.1696
-1 -3 -3 -30.5988 -10.9622
-1 -3 -2 -41.8951 -5.0715
-1 -3 -1 17.7413 -0.3686
-1 -2 -47 1.4614 -0.0232
-1 -2 -46 0.2142 -8.1013
-1 -2 -45 4.3309 -4.2706
-1 -2 -44 -0.3741 4.9681
-1 -2 -43 -0.5219 -3.2723
-1 -2 -42 -3.4378 3.9909
-1 -2 -41 4.5298 0.4829
-1 -2 -40 -3.3341 -6.4463
-1 -2 -39 -4.5494 3.9461
-1 -2 -38 7.5869 -5.0870
-1 -2 -37 -0.5678 -6.3836
-1 -2 -36 -0.8329 9.2418
-1 -2 -35 -2.5371 -3.5247
-1 -2 -34 -19.9272 -2.6828
-1 -2 -33 0.5175 1.9960
-1 -2 -32 10.0768 1.8854
-1 -2 -31 -7.5490 -0.3454
-1 -2 -30 0.5143 -6.5383
-1 -2 -29 -1.5326 -7.6787
-1 -2 -28 -22.3395 -8.7532
-1 -2 -27 3.0061 -10.7709
-1 -2 -26 -1.8026 3.7200
-1 -2 -25 -10.9640 8.0702
-1 -2 -24 22.2806 -0.7578
-1 -2 -23 11.1023 23.6258
-1 -2 -22 6.3734 -2.9191
-1 -2 -21 0.9442 -3.9457
-1 -2 -20 -19.5309 -13.6482
-1 -2 -19 26.0889 3.0058
-1 -2 -18 10.7180 20.1827
-1 -2 -17 19.8269 6.1895
-1 -2 -16 15.5699 -28.8168
-1 -2 -15 -33.7183 -3.4621
-1 -2 -14 -14.5838 -7.3399
-1 -2 -13 -2.1868 -18.5450
-1 -2 -12 6.4907 15.5323
-1 -2 -11 3.8045 -6.5102
-1 -2 -10 19.8018 -11.1877
-1 -2 -9 6.4603 15.8135
-1 -2 -8 -22.6989 29.6434
-1 -2 -7 -61.6303 6.3338
-1 -2 -6 -48.7338 1.8155
-1 -2 -5 -36.0110 16.1944
-1 -2 -4 -6.6665 9.4159
-1 -2 -3 22.6151 13.6058
-1 -1 -48 2.4149 -2.0573
-1 -1 -47 7.2941 11.3398
-1 -1 -46 -5.4834 7.7899
-1 -1 -45 -4.4157 -1.4185
-1 -1 -44 -2.2474 -2.2969
-1 -1 -43 1.5024 -0.8583
-1 -1 -42 2.5821 -3.9763
-1 -1 -41 -2.4025 -1.3827
-1 -1 -40 10.4691 6.4886
-1 -1 -39 4.1880 -9.0427
-1 -1 -38 -5.8808 -2.8248
-1 -1 -37 -2.9326 3.1141
-1 -1 -36 -2.5643 -12.5222
-1 -1 -35 2.4442 -4.2213
-1 -1 -34 -8.0779 3.0901
-1 -1 -33 -5.5807 5.0973
-1 -1 -32 1.0193 11.0633
-1 -1 -31 1.9852 12.6128
-1 -1 -30 -0.8113 -16.0863
-1 -1 -29 8.4462 4.1936
-1 -1 -28 -7.4135 10.1150
-1 -1 -27 -4.1218 -5.5743
-1 -1 -26 0.9782 22.4192
-1 -1 -25 -15.6614 1.0640
-1 -1 -24 15.9347 5.2525
-1 -1 -23 4.6609 -1.9464
-1 -1 -22 13.3265 -24.2043
-1 -1 -21 7.1454 -10.5605
-1 -1 -20 6.2944 -27.1878
-1 -1 -19 -7.5066 -0.6283
-1 -1 -18 3.0781 12.9157
-1 -1 -17 -15.6032 -18.4446
-1 -1 -16 30.6149 -16.6551
-1 -1 -15 15.4392 -9.4599
-1 -1 -14 -33.8671 -1.2608
-1 -1 -13 -33.4015 7.5335
-1 -1 -12 17.0310 29.3631
-1 -1 -11 14.8181 -3.0093
-1 -1 -10 -16.7442 15.4018
-1 -1 -9 -2.3144 -13.5160
-1 -1 -8 11.9042 -2.5512
-1 -1 -7 2.4420 -4.0713
-1 -1 -6 -0.3109 2.7266
-1 -1 -5 -17.0736 52.1862
0 0 8 30.0422 7.1280
0 0 10 -62.7619 10.9089
0 0 12 -21.4457 5.0258
0 0 14 -5.8344 -21.5323
0 0 16 -39.1205 -6.7043
0 0 18 -3.3020 4.3492
0 0 20 -7.5771 2.0739
0 0 22 6.8689 6.6668
0 0 24 -20.7663 6.1066
0 0 26 -20.5463 0.8341
0 0 28 -5.6801 -10.2153
0 0 30 1.9847 -4.0928
0 0 32 4.3928 0.9325
0 0 34 -5.4242 -3.3409
0 0 36 7.4299 5.3999
0 0 38 -6.3930 8.1910
0 0 40 -1.7318 -1.5891
0 0 42 13.9855 -7.0877
0 0 44 4.7773 3.8383
0 0 46 -5.7177 5.2121
0 0 48 1.3101 -7.9610
0 1 6 7.2074 31.1758
0 1 7 6.0863 20.4701
0 1 8 -8.2915 8.4258
0 1 9 11.0550 7.4925
0 1 10 3.5861 -12.1607
0 1 11 -12.9512 -31.3579
0 1 12 15.2056 61.8181
0 1 13 0.7022 53.5064
0 1 14 1.6194 17.7780
0 1 15 12.4507 4.0123
0 1 16 -11.4544 32.0194
0 1 17 -17.7480 20.9942
0 1 18 -4.0953 19.5022
0 1 19 4.6862 1.9269
0 1 20 6.3604 17.4327
0 1 21 1.8655 11.5315
0 1 22 -7.8804 -16.6357
0 1 23 3.8485 4.9763
0 1 24 0.3877 -25.2546
0 1 25 -1.7627 11.8401
0 1 26 12.9466 -7.5467
0 1 27 -2.0347 9.9219
0 1 28 1.0037 10.7136
0 1 29 6.5636 -6.9284
0 1 30 -8.0423 -4.0175
0 1 31 -11.8880 2.2309
0 1 32 -2.0461 -7.2033
0 1 33 3.4172 12.4918
0 1 34 5.2747 1.5310
0 1 35 5.7768 -10.6395
0 1 36 -6.8714 -0.9463
0 1 37 -4.5376 0.8773
0 1 38 -2.1403 -13.9340
0 1 39 -1.0158 -1.3748
0 1 40 9.5983 10.9727
0 1 41 4.9492 -0.9597
0 1 42 0.4149 2.1154
0 1 43 4.0028 -7.0932
0 1 44 -6.8123 -1.2672
0 1 45 -8.5766 -0.2149
0 1 46 1.6922 -0.5469
0 1 47 0.3029 -1.8205
0 1 48 6.2388 14.9189
0 2 4 -51.9692 5.8449
0 2 5 -31.2590 10.6835
0 2 6 -16.6665 -3.9596
0 2 7 34.6813 -0.9055
0 2 8 14.1555 -7.2686
0 2 9 94.6846 -11.2591
0 2 10 3.2077 16.3609
0 2 11 1.8045 -0.5247
0 2 12 -18.3583 -11.9731
0 2 13 15.4382 14.6740
0 2 14 6.0443 2.0672
0 2 15 64.5365 -12.6707
0 2 16 9.4815 -4.7185
0 2 17 34.2279 -5.2133
0 2 18 -10.7361 6.2368
0 2 19 25.1378 15.1042
0 2 20 15.0486 1.9057
0 2 21 -14.2306 -1.4903
0 2 22 15.5036 -11.0909
0 2 23 -10.4615 -8.8554
0 2 24 2.5330 15.3838
0 2 25 -17.6212 0.4056
0 2 26 -12.3826 -5.3103
0 2 27 -3.4276 9.2698
0 2 28 6.4809 -4.7759
0 2 29 -9.5517 -7.6153
0 2 30 13.8099 -0.4617
0 2 31 -11.2600 -6.6488
0 2 32 -7.0530 3.3620
0 2 33 6.5026 13.5673
0 2 34 -3.1556 3.0610
0 2 35 -7.6830 -1.1674
0 2 36 5.6005 -9.1381
0 2 37 -6.2984 -9.0940
0 2 38 -12.2679 7.6033
0 2 39 -2.8563 4.0273
0 2 40 -5.8143 2.0685
0 2 41 0.9534 6.7595
0 2 42 2.9917 -5.6763
0 2 43 -0.2886 -6.4778
0 2 44 4.0977 -0.1043
0 2 45 4.4441 -5.6727
0 2 46 0.1704 3.0832
0 2 47 -1.2140 9.0145
0 3 1 7.4909 23.6818
0 3 2 5.3867 30.9813
0 3 3 -4.8076 -31.0039
0 3 4 -10.2540 -38.1588
0 3 5 -14.1592 47.0868
0 3 6 6.7771 -7.8343
0 3 7 23.6737 42.9048
0 3 8 -7.3010 -35.0342
0 3 9 -10.6948 -15.6188
0 3 10 6.6789 -38.4847
0 3 11 -10.8615 -42.0419
0 3 12 1.3005 -69.3576
0 3 13 12.2846 40.6648
0 3 14 -5.2209 -2.1266
0 3 15 4.3961 26.0277
0 3 16 8.9454 -61.0158
0 3 17 -5.6402 5.8507
0 3 18 -9.0485 -13.4631
0 3 19 -11.7343 -11.3875
0 3 20 4.7335 1.6558
0 3 21 20.2916 -4.4001
0 3 22 -3.0125 8.6190
0 3 23 -4.3603 2.2741
0 3 24 -0.7814 3.2266
0 3 25 -15.3035 2.8726
0 3 26 5.3669 18.5756
0 3 27 11.7927 -3.7062
0 3 28 -5.2410 18.0093
0 3 29 5.0607 -0.0317
0 3 30 5.0474 -3.4115
0 3 31 -6.7379 7.1586
0 3 32 -4.3592 0.8039
0 3 33 -8.3156 -5.9334
0 3 34 0.4828 5.3216
0 3 35 14.1499 2.8782
0 3 36 2.2374 -3.2439
0 3 37 0.2723 8.4428
0 3 38 -3.9666 5.4651
0 3 39 -13.8662 0.9359
0 3 40 2.5187 9.7593
0 3 41 8.0914 5.9335
0 3 42 -0.6453 3.8074
0 3 43 7.0118 -1.1087
0 3 44 1.2968 3.6652
0 3 45 -7.2663 -2.5842
0 3 46 -0.0331 -1.0225
0 3 47 -4.3818 -11.6761
0 4 0 -73.4199 0.5942
0 4 1 -0.2467 2.5798
0 4 2 31.5380 4.1112
0 4 3 -11.6634 -14.4318
0 4 4 21.6535 -10.4907
0 4 5 -37.5898 15.8244
0 4 6 9.7034 5.8128
0 4 7 -0.7107 3.0046
0 4 8 -19.7639 8.4490
0 4 9 -16.5131 -23.2885
0 4 10 7.7043 -12.5715
0 4 11 -49.2175 17.2749
0 4 12 -15.3464 3.1519
0 4 13 -60.9806 0.0319
0 4 14 15.3042 2.8636
0 4 15 -25.5533 -3.9836
0 4 16 33.9689 1.0818
0 4 17 -2.3913 -8.2773
0 4 18 -9.6632 -8.9221
0 4 19 -11.5625 9.2584
0 4 20 6.5775 2.8500
0 4 21 5.6417 9.0174
0 4 22 1.2328 9.9266
0 4 23 6.6323 -21.5629
0 4 24 6.2671 -10.3736
0 4 25 17.9925 12.3936
0 4 26 -5.7910 1.2567
0 4 27 -0.2634 6.3477
0 4 28 11.1553 4.7102
0 4 29 2.8890 -9.0052
0 4 30 1.0654 -0.3506
0 4 31 2.5352 -3.6767
0 4 32 -0.4861 -6.5247
0 4 33 -4.4299 6.0419
0 4 34 6.5105 1.8805
0 4 35 -7.8076 7.1741
0 4 36 -5.1836 7.6888
0 4 37 5.4564 -14.7263
0 4 38 0.0949 -7.7087
0 4 39 0.1993 4.5196
0 4 40 2.4219 -0.5989
0 4 41 6.1008 10.5022
0 4 42 4.6438 5.6876
0 4 43 8.3950 -8.7709
0 4 44 -3.4018 -0.0940
0 4 45 4.3151 -3.6013
0 4 46 2.1516 -5.4046
0 4 47 -0.1571 6.6667
0 5 1 7.2157 4.8888
0 5 2 7.2653 47.1935
0 5 3 -9.3304 -0.8064
0 5 4 5.8199 -3.1828
0 5 5 0.7505 -6.2364
0 5 6 -25.0657 -16.8269
0 5 7 5.3456 22.7922
0 5 8 22.0456 -2.6750
0 5 9 0.3477 -3.2493
0 5 10 0.2297 29.3745
0 5 11 -10.0751 17.1634
0 5 12 -15.0913 35.5711
0 5 13 5.2694 -17.0203
0 5 14 6.3346 43.0608
0 5 15 7.3752 16.6771
0 5 16 3.6583 13.7016
0 5 17 -9.4079 -26.3698
0 5 18 6.3675 -3.5396
0 5 19 0.3270 0.2566
0 5 20 -19.6145 0.2775
0 5 21 4.9276 -5.2990
0 5 22 13.7202 -2.6397
0 5 23 0.3638 1.1923
0 5 24 8.1475 -5.9794
0 5 25 -7.7615 -15.3972
0 5 26 -17.8568 -10.2221
0 5 27 4.1454 -5.8149
0 5 28 6.0247 4.4733
0 5 29 6.4761 4.5311
0 5 30 5.2418 -0.0969
0 5 31 -8.2061 -8.5284
0 5 32 0.6931 7.2087
0 5 33 0.1661 2.8019
0 5 34 -11.8891 1.7781
0 5 35 4.9836 2.3028
0 5 36 6.2920 3.9543
0 5 37 0.1406 3.8150
0 5 38 10.0601 2.4459
0 5 39 -6.6315 1.6284
0 5 40 -13.9773 3.6699
0 5 41 2.9922 8.3108
0 5 42 0.9473 -4.7679
0 5 43 5.3980 -6.6819
0 5 44 9.2666 -6.4768
0 5 45 -5.3573 2.3448
0 5 46 -2.1828 -1.7913
0 6 0 -21.2136 17.4239
0 6 1 3.9852 -13.4055
0 6 2 10.4660 -3.4534
0 6 3 16.4535 9.4124
0 6 4 43.5697 -14.8049
0 6 5 -32.3120 -3.1794
0 6 6 10.7366 10.0555
0 6 7 -21.6594 -3.7485
0 6 8 0.7961 11.7696
0 6 9 -10.8494 9.7501
0 6 10 -9.5715 -15.2079
0 6 11 21.7420 -12.7678
0 6 12 1.9177 -4.6405
0 6 13 21.5211 12.8811
0 6 14 -2.4444 17.1978
0 6 15 20.3335 -8.8166
0 6 16 -0.3373 -3.9545
0 6 17 14.6783 1.6674
0 6 18 2.3664 -13.1989
0 6 19 -12.5803 3.2656
0 6 20 -16.8622 7.2013
0 6 21 2.1972 -8.7433
0 6 22 -5.1310 10.9700
0 6 23 -2.5582 9.7197
0 6 24 -6.3378 -12.5391
0 6 25 3.1873 -7.9191
0 6 26 -2.0004 -5.3222
0 6 27 -15.4405 6.0455
0 6 28 -16.2108 16.3813
0 6 29 1.6133 -1.1186
0 6 30 6.2384 -4.1631
0 6 31 3.3287 -3.0547
0 6 32 -3.1380 -11.4960
0 6 33 2.9553 5.6471
0 6 34 3.2848 6.1494
0 6 35 5.4136 -6.0605
0 6 36 5.3399 9.3445
0 6 37 1.5677 4.1398
0 6 38 2.8425 -9.2985
0 6 39 1.1411 -1.9016
0 6 40 4.2654 -6.1479
0 6 41 6.6650 -0.0364
0 6 42 7.8964 13.6353
0 6 43 1.3877 1.8163
0 6 44 2.9525 -1.6747
0 6 45 -13.7467 -1.0708
0 7 1 -4.2351 -6.7060
0 7 2 21.3876 39.5254
0 7 3 5.4407 -34.3724
0 7 4 -17.5589 13.1247
0 7 5 5.6551 -41.0218
0 7 6 2.5890 1.3706
0 7 7 -10.9168 -6.1472
0 7 8 -0.5800 23.5341
0 7 9 3.0472 17.7602
0 7 10 12.9884 2.1834
0 7 11 7.9661 15.1125
0 7 12 -13.7552 2.8754
0 7 13 -7.0704 12.6475
0 7 14 -7.6328 -17.9338
0 7 15 -2.3107 5.5463
0 7 16 24.0628 7.7000
0 7 17 3.8062 -2.3098
0 7 18 -16.4301 -14.9326
0 7 19 4.3783 4.7585
0 7 20 -1.5292 2.5804
0 7 21 -7.5974 14.5947
0 7 22 4.7341 -0.8043
0 7 23 -0.7262 7.0001
0 7 24 5.9743 11.3277
0 7 25 9.4225 7.9361
0 7 26 -7.4072 3.0185
0 7 27 -6.8986 -0.1072
0 7 28 -8.1965 2.8387
0 7 29 -2.1459 11.7256
0 7 30 20.0073 6.5703
0 7 31 5.0666 7.0699
0 7 32 -9.6651 -5.0803
0 7 33 0.8656 -3.0558
0 7 34 -7.6798 1.7763
0 7 35 -4.3313 -4.4095
0 7 36 8.2481 -7.4328
0 7 37 -1.8709 -2.4531
0 7 38 3.6291 -1.5144
0 7 39 8.3177 -0.6419
0 7 40 -6.3506 -6.1201
0 7 41 -4.3792 -1.2531
0 7 42 -4.7328 1.6427
0 7 43 -4.6396 -12.3688
0 7 44 10.2655 -5.0161
0 8 0 -61.0301 14.7166
0 8 1 6.2743 22.8783
0 8 2 -21.2588 -6.9121
0 8 3 22.2192 -2.7222
0 8 4 0.2792 -4.6205
0 8 5 14.9452 -10.5360
0 8 6 -24.5878 5.3460
0 8 7 -13.0131 2.6524
0 8 8 -3.8627 0.8212
0 8 9 1.8234 5.6228
0 8 10 20.0038 -1.1767
0 8 11 6.7487 6.1220
0 8 12 20.2983 -7.9265
0 8 13 4.1616 -22.2493
0 8 14 8.0025 12.2982
0 8 15 7.8574 18.1850
0 8 16 8.0787 -2.1603
0 8 17 -3.0995 3.5477
0 8 18 9.9754 -9.2194
0 8 19 -2.0098 -15.2121
0 8 20 2.9615 8.5888
0 8 21 -3.2803 5.2905
0 8 22 7.7778 -0.5611
0 8 23 5.6850 3.9765
0 8 24 -3.1475 -2.5854
0 8 25 0.4609 3.6319
0 8 26 17.6924 -4.4926
0 8 27 13.0438 -16.0487
0 8 28 12.1779 7.2100
0 8 29 -9.3481 11.4304
0 8 30 3.9792 2.5772
0 8 31 6.2639 7.6690
0 8 32 3.2771 -10.7374
0 8 33 0.3178 -15.1154
0 8 34 2.6155 7.0472
0 8 35 -8.4685 3.3313
0 8 36 -4.3502 2.9938
0 8 37 -8.5446 7.0179
0 8 38 3.7756 -4.7457
0 8 39 -5.0386 -0.2362
0 8 40 -0.9952 -1.1848
0 8 41 -2.0562 -9.9244
0 8 42 -3.7722 2.3684
0 8 43 -1.6849 6.5694
0 9 1 -12.8960 4.5023
0 9 2 -5.2669 19.0800
0 9 3 20.5550 33.8016
0 9 4 8.7578 -11.8092
0 9 5 -5.2630 -6.2272
0 9 6 -10.3020 -7.4116
0 9 7 -7.5983 -8.1869
0 9 8 9.3081 11.0191
0 9 9 -2.1576 4.1654
0 9 10 -5.1102 8.7180
0 9 11 15.5271 -8.8301
0 9 12 0.8276 -12.5643
0 9 13 -5.2337 -7.2240
0 9 14 3.9706 -8.8079
0 9 15 -17.0921 -11.3404
0 9 16 -7.2913 -2.8777
0 9 17 21.0407 -0.8396
0 9 18 8.1910 1.1673
0 9 19 -2.2424 -3.4590
0 9 20 -7.6440 2.0204
0 9 21 -11.8617 0.6728
0 9 22 5.2141 -3.6460
0 9 23 2.8867 -5.3671
0 9 24 -1.2344 4.5528
0 9 25 9.6352 2.5068
0 9 26 -2.6624 11.8614
0 9 27 -2.1524 -10.2241
0 9 28 4.4467 -5.9569
0 9 29 -15.4449 -15.0920
0 9 30 -5.2649 -8.5305
0 9 31 15.6625 3.2104
0 9 32 5.4402 9.7542
0 9 33 4.7294 -6.4017
0 9 34 -3.3958 4.0882
0 9 35 -14.9738 -1.4848
0 9 36 0.8379 14.9386
0 9 37 3.5328 5.8894
0 9 38 0.5549 10.5913
0 9 39 7.6682 1.0207
0 9 40 -1.2856 -1.6300
0 9 41 -2.0420 2.7100
0 9 42 2.1471 -6.3943
0 10 1 -39.6730 3.5792
0 10 2 -5.6562 11.5103
0 10 3 -6.1526 12.0592
0 10 4 8.5047 1.8466
0 10 5 18.6680 -15.7832
0 10 6 -4.1832 -5.2769
0 10 7 -5.5396 -1.4773
0 10 8 -11.2908 1.2437
0 10 9 -6.2038 17.8592
0 10 10 4.5335 -3.0617
0 10 11 -2.4107 -12.4388
0 10 12 6.6698 11.9631
0 10 13 -10.1542 -4.1218
0 10 14 -8.5136 -15.1191
0 10 15 -9.1469 4.1971
0 10 16 -2.1080 4.3668
0 10 17 -3.5748 9.6902
0 10 18 4.0644 8.7723
0 10 19 6.0559 -12.3348
0 10 20 13.9678 -9.8030
0 10 21 5.6465 -3.3356
0 10 22 0.9090 3.0125
0 10 23 2.5850 17.3449
0 10 24 -0.5672 -1.7717
0 10 25 4.2437 -10.3508
0 10 26 -1.0507 6.7098
0 10 27 11.2045 -5.8153
0 10 28 13.8759 -7.8878
0 10 29 -3.2411 5.4427
0 10 30 -9.4444 -1.9130
0 10 31 0.6733 7.8336
0 10 32 -7.0720 11.5347
0 10 33 9.1673 -9.3740
0 10 34 1.4255 -8.2948
0 10 35 3.8148 -4.5708
0 10 36 5.2355 -0.6928
0 10 37 8.1331 13.6289
0 10 38 14.1881 3.2478
0 10 39 7.6723 -4.2252
0 10 40 18.1519 3.1895
0 11 1 -2.1529 -24.1459
0 11 2 -11.1819 -1.8625
0 11 3 -1.5494 36.6336
0 11 4 2.1980 22.3309
0 11 5 13.6567 8.2877
0 11 6 15.0086 -3.3265
0 11 7 -19.9821 -11.4414
0 11 8 -14.7680 8.2109
0 11 9 9.3606 0.3367
0 11 10 -3.0825 20.4520
0 11 11 5.6401 -2.8612
0 11 12 10.9813 2.7930
0 11 13 -8.7937 -1.0667
0 11 14 0.2980 2.9706
0 11 15 3.3093 5.3558
0 11 16 -9.9903 14.1509
0 11 17 -3.2391 -1.1672
0 11 18 1.3859 6.7967
0 11 19 10.9662 -9.4772
0 11 20 14.7740 -9.0965
0 11 21 -13.0894 -13.5476
0 11 22 -12.9723 -10.1859
0 11 23 1.9838 -12.5504
0 11 24 -3.5249 -5.1734
0 11 25 10.9409 -4.1255
0 11 26 10.4164 3.4841
0 11 27 -10.8407 -7.2448
0 11 28 0.0256 -4.0128
0 11 29 1.8624 -2.0504
0 11 30 -9.1225 -12.9080
0 11 31 0.4987 -3.7507
0 11 32 -0.1224 2.3479
0 11 33 5.0412 -1.3805
0 11 34 13.5567 3.6806
0 11 35 -4.9178 -8.6386
0 11 36 -8.7933 -0.4792
0 11 37 -1.4472 -7.3597
0 11 38 -3.4549 6.7638
0 11 39 7.8513 -23.8564
0 12 0 13.4069 -3.3143
0 12 1 -18.5674 1.1520
0 12 2 -14.0926 -7.4261
0 12 3 -11.8666 -0.7763
0 12 4 -2.8498 20.6768
0 12 5 33.2614 0.8162
0 12 6 15.8389 -9.0033
0 12 7 18.5858 -0.5717
0 12 8 -9.3294 -16.3521
0 12 9 4.9307 1.1739
0 12 10 1.9135 24.4376
0 12 11 6.2110 0.3353
0 12 12 15.1772 -7.5992
0 12 13 2.5364 -2.2243
0 12 14 -6.3343 -5.9692
0 12 15 5.2309 2.6306
0 12 16 -0.5663 -1.9789
0 12 17 12.3415 -2.9193
0 12 18 3.0176 12.5172
0 12 19 1.4604 1.3981
0 12 20 -4.4058 -2.9622
0 12 21 -0.7631 -1.4529
0 12 22 -13.4216 -18.1731
0 12 23 -6.2171 0.7835
0 12 24 -10.6891 20.9588
0 12 25 -5.8765 1.6818
0 12 26 -5.6984 -1.9126
0 12 27 -5.0252 -3.8074
0 12 28 2.2154 -11.2550
0 12 29 7.6954 3.9680
0 12 30 -6.1941 2.4788
0 12 31 -0.7840 -3.1727
0 12 32 -10.4189 8.2982
0 12 33 0.7868 1.8133
0 12 34 -5.0571 -1.2297
0 12 35 7.5935 -0.2220
0 12 36 -6.7886 -12.3535
0 12 37 6.6836 -0.9338
0 13 1 1.2372 -5.9222
0 13 2 -11.7207 -17.0994
0 13 3 1.8469 17.2776
0 13 4 3.6065 4.6582
0 13 5 -12.9984 12.0673
0 13 6 12.6934 -5.7810
0 13 7 18.4517 -11.9149
0 13 8 -11.1857 -18.1995
0 13 9 -9.3931 -19.4169
0 13 10 -6.7549 4.9347
0 13 11 -3.7103 -4.5996
0 13 12 15.0580 -5.9243
0 13 13 6.9572 -8.8775
0 13 14 -2.7510 -4.9643
0 13 15 -3.0694 0.8540
0 13 16 -10.1969 -2.7621
0 13 17 3.7866 -0.0801
0 13 18 3.3746 -2.7523
0 13 19 -10.7312 -0.0748
0 13 20 10.1559 -1.0161
0 13 21 12.4395 1.5133
0 13 22 -7.0573 3.8787
0 13 23 -2.9216 -0.3775
0 13 24 -10.0767 2.5407
0 13 25 -8.0066 2.6551
0 13 26 15.4576 -0.5277
0 13 27 9.2292 10.9330
0 13 28 -0.8900 -3.1404
0 13 29 -1.8020 -0.1157
0 13 30 -10.4486 -7.0772
0 13 31 0.3796 -3.7401
0 13 32 4.1935 -6.9154
0 13 33 -5.8140 9.3327
0 13 34 6.3031 0.2299
0 13 35 6.4685 4.1221
0 14 0 14.1902 -18.1854
0 14 1 -9.1401 -5.2761
0 14 2 0.7717 10.8468
0 14 3 1.2103 -8.4604
0 14 4 -4.8900 1.2822
0 14 5 -2.8602 12.2861
0 14 6 0.6728 -4.5497
0 14 7 14.3921 2.7224
0 14 8 -6.3956 0.1642
0 14 9 -4.7475 -16.4114
0 14 10 -14.0898 -1.2599
0 14 11 -9.1943 9.8824
0 14 12 -13.0588 11.9514
0 14 13 -1.0018 6.6651
0 14 14 1.7047 -16.0241
0 14 15 -8.0212 -8.0142
0 14 16 1.2066 6.1655
0 14 17 3.1037 -3.9773
0 14 18 -7.1074 6.5306
0 14 19 2.8118 7.1721
0 14 20 -2.0778 -8.0624
0 14 21 9.4074 5.3994
0 14 22 7.7875 0.7748
0 14 23 -4.4664 -15.6040
0 14 24 6.4651 -1.6800
0 14 25 -3.3088 5.6023
0 14 26 0.1764 8.9043
0 14 27 -1.2087 10.4445
0 14 28 -0.5884 -10.4247
0 14 29 -0.9531 -10.7978
0 14 30 2.8652 0.3352
0 14 31 -10.2699 -2.9519
0 14 32 -5.2121 6.2862
0 15 1 10.8844 6.2061
0 15 2 -4.4158 -6.0795
0 15 3 -18.9828 -3.2405
0 15 4 6.5220 -6.2040
0 15 5 4.8485 2.0757
0 15 6 -6.2965 -9.1285
0 15 7 5.7998 5.7417
0 15 8 4.6859 6.1233
0 15 9 3.9610 -7.1847
0 15 10 -1.8172 -12.2392
0 15 11 -15.8743 6.1204
0 15 12 -1.0419 16.7629
0 15 13 7.2954 1.8586
0 15 14 5.1279 9.8016
0 15 15 14.2921 3.9600
0 15 16 -7.0453 -7.1105
0 15 17 -18.7314 0.1823
0 15 18 5.5481 -10.1825
0 15 19 2.8636 -0.2148
0 15 20 -2.5506 9.7168
0 15 21 7.1915 -10.7100
0 15 22 -0.4756 -0.7559
0 15 23 2.0414 -10.0388
0 15 24 3.0704 -9.3460
0 15 25 -12.5907 0.1824
0 15 26 -5.4936 -2.2968
0 15 27 3.1238 -6.6313
0 15 28 5.4312 1.8133
0 15 29 13.1717 -0.3916
0 16 0 3.0717 12.7369
0 16 1 2.2024 -18.3108
0 16 2 1.7784 -7.2662
0 16 3 -4.1174 -0.1167
0 16 4 10.9554 -1.6980
0 16 5 -4.0607 10.6071
0 16 6 -19.6078 3.0825
0 16 7 -2.3775 -3.1494
0 16 8 -2.0462 1.5608
0 16 9 0.4370 -5.9362
0 16 10 -5.2587 -0.8136
0 16 11 -0.1395 -3.4152
0 16 12 -11.6193 -7.9801
0 16 13 4.3568 17.4636
0 16 14 7.7056 11.6009
0 16 15 5.3627 -12.6402
0 16 16 3.2763 -5.0307
0 16 17 -1.5134 -5.8708
0 16 18 -11.3153 -3.2165
0 16 19 -0.8587 14.8818
0 16 20 -15.0635 3.4383
0 16 21 -2.6646 -5.4028
0 16 22 5.6775 1.2983
0 16 23 -5.8343 -4.0533
0 16 24 -8.8938 -1.1333
0 16 25 -4.7811 -3.4302
0 16 26 -4.7774 -8.0608
0 17 1 4.1417 -1.1502
0 17 2 15.9931 8.6510
0 17 3 -4.6780 -0.7844
0 17 4 -13.8838 -12.4132
0 17 5 -5.6097 4.6539
0 17 6 0.1230 -6.4439
0 17 7 11.3025 2.0883
0 17 8 0.8361 9.7637
0 17 9 -5.0194 12.4110
0 17 10 9.0212 -1.7618
0 17 11 -4.7417 5.8442
0 17 12 -9.0238 -1.1588
0 17 13 3.7637 11.6633
0 17 14 -5.8195 1.9699
0 17 15 4.3016 -6.2025
0 17 16 18.4054 -5.5909
0 17 17 -3.8728 3.6126
0 17 18 -10.8539 -1.3905
0 17 19 -3.6367 3.7797
0 17 20 -1.4254 8.8399
0 17 21 9.7429 8.4706
0 18 0 -8.1977 13.1830
0 18 1 -2.2722 8.6640
0 18 2 10.6983 -2.0085
0 18 3 -0.3402 -7.8979
0 18 4 3.4504 -13.2341
0 18 5 0.9893 2.3516
0 18 6 -5.0770 9.3068
0 18 7 -4.2827 3.3360
0 18 8 0.0073 7.4684
0 18 9 -3.6727 -7.1059
0 18 10 13.4407 -11.2319
0 18 11 -0.3660 8.9376
0 18 12 -0.4108 -4.0433
0 18 13 4.6280 -8.2023
0 18 14 2.9729 10.1255
0 18 15 3.6475 3.1140
0 19 1 -2.2671 2.7304
0 19 2 6.7263 -1.4629
0 19 3 8.1190 -0.1037
1 0 6 -20.2932 3.2017
1 0 7 0.7224 3.3385
1 0 8 27.3626 2.6282
1 0 9 3.4665 27.7817
1 0 10 5.4966 -2.2547
1 0 11 14.1959 -32.0934
1 0 12 -13.1203 -3.5161
1 0 13 12.3977 2.0550
1 0 14 -31.2430 7.2261
1 0 15 5.4359 21.9089
1 0 16 3.8079 0.6412
1 0 17 -12.9892 -11.7447
1 0 18 -23.5344 -10.6065
1 0 19 -17.0587 31.1323
1 0 20 -24.5362 -0.8074
1 0 21 -7.7645 12.0953
1 0 22 13.7677 9.9281
1 0 23 0.3130 4.4866
1 0 24 13.6226 3.6179
1 0 25 7.1833 -0.5175
1 0 26 2.6148 -7.8841
1 0 27 8.1621 17.2304
1 0 28 -16.6982 0.5657
1 0 29 11.6154 2.5678
1 0 30 2.7131 6.2077
1 0 31 3.5931 -18.1337
1 0 32 11.4749 -3.6898
1 0 33 -9.6100 -0.4460
1 0 34 -5.4122 -6.0003
1 0 35 -9.4334 -4.2410
1 0 36 -4.3603 2.4673
1 0 37 -4.9451 -1.9293
1 0 38 2.9540 7.1296
1 0 39 0.8630 2.4818
1 0 40 -1.3792 -1.3389
1 0 41 3.2451 7.4682
1 0 42 -10.2734 -5.3404
1 0 43 5.0409 0.4535
1 0 44 11.6143 0.6705
1 0 45 6.2959 3.1214
1 0 46 -2.1185 0.4408
1 0 47 3.4502 0.8993
1 0 48 -1.5462 -0.7545
1 1 5 -17.0736 -52.1862
1 1 6 -0.3109 -2.7266
1 1 7 2.4420 4.0713
1 1 8 11.9042 2.5512
1 1 9 -2.3144 13.5160
1 1 10 -16.7442 -15.4018
1 1 11 14.8181 3.0093
1 1 12 17.0310 -29.3631
1 1 13 -33.4015 -7.5335
1 1 14 -33.8671 1.2608
1 1 15 15.4392 9.4599
1 1 16 30.6149 16.6551
1 1 17 -15.6032 18.4446
1 1 18 3.0781 -12.9157
1 1 19 -7.5066 0.6283
1 1 20 6.2944 27.1878
1 1 21 7.1454 10.5605
1 1 22 13.3265 24.2043
1 1 23 4.6609 1.9464
1 1 24 15.9347 -5.2525
1 1 25 -15.6614 -1.0640
1 1 26 0.9782 -22.4192
1 1 27 -4.1218 5.5743
1 1 28 -7.4135 -10.1150
1 1 29 8.4462 -4.1936
1 1 30 -0.8113 16.0863
1 1 31 1.9852 -12.6128
1 1 32 1.0193 -11.0633
1 1 33 -5.5807 -5.0973
1 1 34 -8.0779 -3.0901
1 1 35 2.4442 4.2213
1 1 36 -2.5643 12.5222
1 1 37 -2.9326 -3.1141
1 1 38 -5.8808 2.8248
1 1 39 4.1880 9.0427
1 1 40 10.4691 -6.4886
1 1 41 -2.4025 1.3827
1 1 42 2.5821 3.9763
1 1 43 1.5024 0.8583
1 1 44 -2.2474 2.2969
1 1 45 -4.4157 1.4185
1 1 46 -5.4834 -7.7899
1 1 47 7.2941 -11.3398
1 1 48 2.4149 2.0573
1 2 2 2.8932 21.9187
1 2 3 22.6151 -13.6058
1 2 4 -6.6665 -9.4159
1 2 5 -36.0110 -16.1944
1 2 6 -48.7338 -1.8155
1 2 7 -61.6303 -6.3338
1 2 8 -22.6989 -29.6434
1 2 9 6.4603 -15.8135
1 2 10 19.8018 11.1877
1 2 11 3.8045 6.5102
1 2 12 6.4907 -15.5323
1 2 13 -2.1868 18.5450
1 2 14 -14.5838 7.3399
1 2 15 -33.7183 3.4621
1 2 16 15.5699 28.8168
1 2 17 19.8269 -6.1895
1 2 18 10.7180 -20.1827
1 2 19 26.0889 -3.0058
1 2 20 -19.5309 13.6482
1 2 21 0.9442 3.9457
1 2 22 6.3734 2.9191
1 2 23 11.1023 -23.6258
1 2 24 22.2806 0.7578
1 2 25 -10.9640 -8.0702
1 2 26 -1.8026 -3.7200
1 2 27 3.0061 10.7709
1 2 28 -22.3395 8.7532
1 2 29 -1.5326 7.6787
1 2 30 0.5143 6.5383
1 2 31 -7.5490 0.3454
1 2 32 10.0768 -1.8854
1 2 33 0.5175 -1.9960
1 2 34 -19.9272 2.6828
1 2 35 -2.5371 3.5247
1 2 36 -0.8329 -9.2418
1 2 37 -0.5678 6.3836
1 2 38 7.5869 5.0870
1 2 39 -4.5494 -3.9461
1 2 40 -3.3341 6.4463
1 2 41 4.5298 -0.4829
1 2 42 -3.4378 -3.9909
1 2 43 -0.5219 3.2723
1 2 44 -0.3741 -4.9681
1 2 45 4.3309 4.2706
1 2 46 0.2142 8.1013
1 2 47 1.4614 0.0232
1 3 0 6.6493 -26.9341
1 3 1 17.7413 0.3686
1 3 2 -41.8951 5.0715
1 3 3 -30.5988 10.9622
1 3 4 -4.5412 21.1696
1 3 5 3.5996 -9.1714
1 3 6 -11.4636 -11.4900
1 3 7 -10.0175 42.3295
1 3 8 7.3045 52.8118
1 3 9 -7.4753 37.6758
1 3 10 -5.5539 20.8824
1 3 11 -57.1066 -9.8633
1 3 12 12.7737 -12.3833
1 3 13 23.6943 -37.7827
1 3 14 -11.5990 9.2719
1 3 15 -10.6935 -6.5008
1 3 16 24.8035 2.2261
1 3 17 13.9185 32.2915
1 3 18 8.3482 -16.8437
1 3 19 -15.7326 -12.5678
1 3 20 -13.0972 -29.8938
1 3 21 8.0119 -9.5595
1 3 22 -5.2385 17.4930
1 3 23 9.2236 3.8871
1 3 24 2.0743 -0.5594
1 3 25 -7.5293 6.0481
1 3 26 -5.5850 -18.5634
1 3 27 -2.5837 4.2929
1 3 28 -3.1482 15.4109
1 3 29 10.8570 -11.1809
1 3 30 7.9770 11.9814
1 3 31 14.7319 13.6705
1 3 32 4.4741 -3.8549
1 3 33 -1.9183 -0.6701
1 3 34 8.1253 -4.2539
1 3 35 -6.3117 -6.1363
1 3 36 -2.0857 12.4641
1 3 37 8.1429 6.7834
1 3 38 -9.6515 1.1051
1 3 39 -1.4839 3.0519
1 3 40 5.7463 -6.2195
1 3 41 -5.2827 7.2219
1 3 42 5.0243 3.9305
1 3 43 7.7066 3.9694
1 3 44 -0.1052 4.2205
1 3 45 5.9758 0.8244
1 3 46 -5.2245 1.0430
1 3 47 2.1824 -1.7751
1 4 0 -0.3034 -21.1223
1 4 1 0.7471 -36.6565
1 4 2 -29.4978 -24.2040
1 4 3 -16.0334 15.9308
1 4 4 20.0868 3.7660
1 4 5 13.3836 -4.0413
1 4 6 20.1759 11.0944
1 4 7 7.2027 0.0652
1 4 8 -0.7326 30.8062
1 4 9 18.8694 -39.3542
1 4 10 27.6822 4.5808
1 4 11 51.6451 9.8907
1 4 12 -22.6751 14.5223
1 4 13 -2.4815 6.6015
1 4 14 -15.9576 21.0961
1 4 15 -30.4172 -16.5121
1 4 16 -4.1817 9.9127
1 4 17 -14.3874 -1.1992
1 4 18 14.1035 0.2022
1 4 19 6.7917 -14.1077
1 4 20 -4.6636 -13.0310
1 4 21 -13.0836 17.2709
1 4 22 -17.5725 16.5691
1 4 23 -22.8295 -1.5749
1 4 24 23.4222 -1.3608
1 4 25 17.9931 -0.4129
1 4 26 -5.6630 -9.2280
1 4 27 14.0931 1.1641
1 4 28 -6.0688 -5.1861
1 4 29 -3.5856 7.4861
1 4 30 9.2095 2.7775
1 4 31 2.7124 -11.6871
1 4 32 -0.4393 -6.6685
1 4 33 13.7467 -12.6516
1 4 34 -2.4956 -10.7523
1 4 35 -4.8616 8.7130
1 4 36 -6.2213 -6.0047
1 4 37 -8.8792 -5.0652
1 4 38 12.1392 5.8050
1 4 39 2.8364 -5.5038
1 4 40 3.9817 -0.6336
1 4 41 0.2858 9.9976
1 4 42 -6.4935 -2.5576
1 4 43 0.9936 6.0663
1 4 44 11.1174 -5.2550
1 4 45 6.1795 -14.7336
1 4 46 3.0869 -0.5568
1 5 0 -3.7081 -4.9287
1 5 1 -11.0883 -0.4624
1 5 2 -1.8742 4.4059
1 5 3 -20.4532 5.4749
1 5 4 -28.1358 14.4151
1 5 5 13.8361 12.5329
1 5 6 -24.7824 1.4398
1 5 7 9.9482 -38.8563
1 5 8 -23.8576 -32.3272
1 5 9 4.9617 16.5084
1 5 10 14.6057 -29.3098
1 5 11 -0.6705 10.7960
1 5 12 -34.0102 -17.9076
1 5 13 15.3041 -18.2049
1 5 14 10.4864 5.2492
1 5 15 9.4610 11.3991
1 5 16 -13.0838 26.2693
1 5 17 6.9697 10.1595
1 5 18 16.8784 11.4016
1 5 19 1.9589 8.8842
1 5 20 -13.2110 3.2366
1 5 21 -3.3240 -23.4145
1 5 22 -1.8708 6.0327
1 5 23 4.7992 14.5639
1 5 24 12.3401 5.9279
1 5 25 -0.3242 16.9618
1 5 26 3.4776 -12.0523
1 5 27 -3.2386 -24.4706
1 5 28 -12.3696 -7.8315
1 5 29 -3.6662 -1.1297
1 5 30 -5.3399 -2.7087
1 5 31 0.2943 6.0624
1 5 32 8.2664 -9.6626
1 5 33 -15.4541 -3.9672
1 5 34 -10.5194 -1.8183
1 5 35 -0.4339 -9.6202
1 5 36 -10.3481 7.9372
1 5 37 0.7046 0.0452
1 5 38 1.5743 6.2807
1 5 39 -10.9344 9.3678
1 5 40 6.1798 -5.1175
1 5 41 -6.8978 -10.7104
1 5 42 -6.6694 5.9140
1 5 43 11.8349 -1.6225
1 5 44 1.5874 7.2139
1 5 45 3.2136 4.1877
1 5 46 -10.2976 -11.6770
1 6 0 -14.8351 20.7016
1 6 1 -19.9031 12.7370
1 6 2 4.1831 -5.5683
1 6 3 9.4077 20.6112
1 6 4 -23.1561 -1.9892
1 6 5 23.7010 27.7230
1 6 6 15.4751 -8.8062
1 6 7 -13.0846 -5.0856
1 6 8 19.6110 21.7881
1 6 9 -45.1561 18.1215
1 6 10 -25.4581 0.1345
1 6 11 -8.8195 6.3282
1 6 12 7.9022 -3.4829
1 6 13 4.8959 1.8246
1 6 14 -10.2712 4.6273
1 6 15 -6.1180 5.5509
1 6 16 2.1098 1.4288
1 6 17 12.8267 -1.1848
1 6 18 7.9706 -2.2767
1 6 19 23.7164 5.7333
1 6 20 2.0148 -11.0112
1 6 21 -2.1374 -7.7393
1 6 22 6.8012 12.9547
1 6 23 -13.1285 5.2166
1 6 24 -11.3431 -4.4793
1 6 25 10.7122 -2.8551
1 6 26 7.1922 -4.5809
1 6 27 6.3134 4.7391
1 6 28 -6.1431 -1.1689
1 6 29 -23.6268 -5.0160
1 6 30 -7.2299 15.3453
1 6 31 -5.2166 3.6583
1 6 32 0.8113 -0.7106
1 6 33 6.5051 5.8113
1 6 34 -13.2156 -2.7653
1 6 35 -4.8043 7.2229
1 6 36 -0.0754 11.5363
1 6 37 -6.2122 -4.9901
1 6 38 -0.4045 10.5730
1 6 39 5.6962 0.2438
1 6 40 -4.9487 -2.2349
1 6 41 14.5910 6.3191
1 6 42 -0.9154 -1.2717
1 6 43 -9.2668 4.1612
1 6 44 1.5961 4.2077
1 6 45 1.3087 2.7324
1 7 0 -3.1294 -11.0687
1 7 1 -8.8784 16.0447
1 7 2 14.2054 -11.3111
1 7 3 -3.5799 34.9419
1 7 4 7.1653 8.5934
1 7 5 15.0745 -19.1426
1 7 6 -6.8040 19.2028
1 7 7 12.1998 -13.7361
1 7 8 -9.8800 -9.0680
1 7 9 -10.4786 -8.9219
1 7 10 0.9815 8.7441
1 7 11 21.3950 21.1433
1 7 12 4.7948 22.6817
1 7 13 -0.6492 5.6299
1 7 14 -7.4454 -7.3786
1 7 15 5.6585 -8.6814
1 7 16 9.1312 -6.0965
1 7 17 -9.4834 21.0142
1 7 18 6.4780 0.0538
1 7 19 12.4629 -18.9072
1 7 20 -5.9077 -3.4418
1 7 21 -4.5053 -7.3739
1 7 22 1.8382 -11.4220
1 7 23 -0.2349 5.9645
1 7 24 6.4002 -5.5500
1 7 25 -4.2867 7.9677
1 7 26 -6.9612 11.1517
1 7 27 6.4475 -1.8440
1 7 28 -5.2551 3.4713
1 7 29 3.5906 -9.9053
1 7 30 1.4318 0.4094
1 7 31 -7.0712 21.6852
1 7 32 5.1405 9.6297
1 7 33 5.9157 1.3818
1 7 34 -6.2469 1.1446
1 7 35 6.0112 -5.0514
1 7 36 -4.8232 4.4722
1 7 37 7.9621 10.4784
1 7 38 1.6562 -5.4049
1 7 39 0.4282 8.2837
1 7 40 3.0495 5.8729
1 7 41 6.7472 -0.1478
1 7 42 -4.8141 -1.0014
1 7 43 -8.4194 -7.5903
1 7 44 5.6389 -5.6009
1 8 0 19.2308 -2.2460
1 8 1 -26.2754 -9.0425
1 8 2 -22.0455 -4.2146
1 8 3 9.9079 13.6857
1 8 4 0.5388 -16.2946
1 8 5 14.6720 13.0633
1 8 6 11.3290 -10.8304
1 8 7 1.9532 -1.4779
1 8 8 -5.8410 -7.3079
1 8 9 -3.6633 12.5285
1 8 10 -6.3589 5.9616
1 8 11 -4.7596 18.8577
1 8 12 -3.3846 1.1329
1 8 13 10.5355 -2.5515
1 8 14 28.7088 2.0660
1 8 15 -3.7982 -9.1534
1 8 16 -9.7025 7.7747
1 8 17 -1.2100 7.8409
1 8 18 -8.8612 -6.9064
1 8 19 5.2754 1.0323
1 8 20 13.0507 4.0081
1 8 21 -14.6769 -9.3255
1 8 22 -4.9908 1.8586
1 8 23 -7.8891 3.4501
1 8 24 -4.2756 1.5666
1 8 25 0.9017 3.7453
1 8 26 -16.5438 -7.6938
1 8 27 4.8058 8.5496
1 8 28 16.9840 11.2059
1 8 29 3.2001 -7.4233
1 8 30 1.8570 -0.8669
1 8 31 -2.8474 5.9943
1 8 32 -6.4176 -2.0331
1 8 33 13.7008 7.5704
1 8 34 15.7297 -7.5725
1 8 35 -1.9256 5.5657
1 8 36 -2.3877 0.2296
1 8 37 -6.6425 4.8709
1 8 38 -0.3597 -3.2555
1 8 39 5.9223 6.0244
1 8 40 1.1240 -4.5512
1 8 41 0.0877 -7.2464
1 8 42 13.8398 3.1627
1 8 43 -1.1354 -0.5630
1 9 0 -0.4102 -8.0028
1 9 1 -15.3064 0.8998
1 9 2 6.4050 -6.5252
1 9 3 -26.3465 -2.7348
1 9 4 -0.3375 17.9019
1 9 5 0.3175 14.0727
1 9 6 8.2444 -5.2953
1 9 7 -5.7810 -13.2094
1 9 8 4.4437 -6.3518
1 9 9 -6.5755 4.2561
1 9 10 1.4437 1.3250
1 9 11 10.3059 -4.0775
1 9 12 5.7457 16.3812
1 9 13 23.5816 -1.9562
1 9 14 7.3185 1.4289
1 9 15 -2.6651 2.3969
1 9 16 6.0450 -21.7321
1 9 17 0.0666 -16.0737
1 9 18 -3.4560 15.3491
1 9 19 14.8852 8.1137
1 9 20 5.4547 10.2453
1 9 21 1.6897 -4.3845
1 9 22 -3.3882 -5.9501
1 9 23 -4.1347 8.3231
1 9 24 6.1416 -1.1282
1 9 25 4.5667 7.2920
1 9 26 -3.7339 11.8439
1 9 27 11.8375 0.8875
1 9 28 -1.5975 11.9908
1 9 29 -0.0300 6.7485
1 9 30 7.6820 -15.2909
1 9 31 -4.0918 -15.2138
1 9 32 2.8388 1.8937
1 9 33 -2.5559 3.7852
1 9 34 3.6712 3.4521
1 9 35 -2.6364 -10.8524
1 9 36 1.3827 -10.3949
1 9 37 -5.4040 2.2017
1 9 38 5.4841 10.7715
1 9 39 7.4578 1.9936
1 9 40 -4.5493 10.6643
1 9 41 1.2072 -11.4146
1 9 42 1.0324 2.8864
1 10 0 0.4756 25.2806
1 10 1 21.2309 -4.8484
1 10 2 3.3943 -4.1726
1 10 3 -12.8197 2.5152
1 10 4 -11.1620 13.7899
1 10 5 -2.1664 10.7720
1 10 6 8.7315 9.0260
1 10 7 11.2336 -6.6601
1 10 8 4.6864 -8.1525
1 10 9 1.3354 5.6690
1 10 10 -20.3619 -10.4518
1 10 11 10.6803 5.2173
1 10 12 10.5746 0.6970
1 10 13 -10.5076 -13.4335
1 10 14 1.7303 -4.9164
1 10 15 11.7747 -13.1497
1 10 16 -5.8682 -13.6363
1 10 17 -1.1306 4.9148
1 10 18 -18.6950 0.1292
1 10 19 -15.1840 -3.4596
1 10 20 4.0937 -2.7088
1 10 21 11.8848 -8.5425
1 10 22 18.8078 -10.6415
1 10 23 0.9427 1.3909
1 10 24 -14.5889 -3.7122
1 10 25 5.7536 15.0727
1 10 26 5.5097 -5.6228
1 10 27 -1.3381 -6.7772
1 10 28 3.8072 1.3462
1 10 29 12.1591 1.0669
1 10 30 4.4284 -1.8727
1 10 31 4.7031 -0.4484
1 10 32 -9.9550 3.0115
1 10 33 -10.5871 3.7160
1 10 34 -7.7326 4.0076
1 10 35 5.4585 2.4365
1 10 36 -0.0946 2.6377
1 10 37 -2.2440 8.6013
1 10 38 -14.3789 -1.7627
1 10 39 14.8584 1.9837
1 10 40 4.4790 4.0928
1 11 0 -0.0064 -4.2786
1 11 1 -2.7661 -11.8149
1 11 2 9.0588 -6.5389
1 11 3 0.0239 -13.3712
1 11 4 -12.4444 -11.2599
1 11 5 -4.4704 2.1697
1 11 6 13.2583 15.0602
1 11 7 1.3392 17.9510
1 11 8 12.8432 -20.7803
1 11 9 -7.0845 -10.7520
1 11 10 -13.2895 3.6003
1 11 11 5.9827 -7.4180
1 11 12 -11.0197 8.0090
1 11 13 1.2650 3.8021
1 11 14 -2.6038 -15.4445
1 11 15 -6.1828 5.7507
1 11 16 -7.5424 4.7966
1 11 17 -0.2677 2.0989
1 11 18 -9.3606 -0.2353
1 11 19 1.4847 -1.2487
1 11 20 5.8303 21.2809
1 11 21 -3.6771 19.9230
1 11 22 4.9178 -6.3125
1 11 23 -12.3158 -9.7878
1 11 24 -3.9191 -9.5857
1 11 25 2.8155 -9.7644
1 11 26 3.3004 8.7613
1 11 27 2.7111 10.7570
1 11 28 11.3542 -7.3353
1 11 29 -0.0626 2.5592
1 11 30 1.6115 3.2584
1 11 31 4.3330 0.3112
1 11 32 6.4217 -12.4560
1 11 33 -3.0160 -1.5726
1 11 34 9.4452 7.1431
1 11 35 2.0137 13.5442
1 11 36 13.7715 -0.4181
1 11 37 9.7522 5.6209
1 11 38 -0.6679 -5.6810
1 11 39 6.7814 2.6407
1 12 0 2.4141 6.0151
1 12 1 -2.5081 10.7602
1 12 2 -5.5383 5.4400
1 12 3 -3.3420 -1.1522
1 12 4 -5.9621 5.6831
1 12 5 -23.6673 -6.0654
1 12 6 -5.0878 18.6304
1 12 7 2.7087 9.4012
1 12 8 -3.3935 -9.7990
1 12 9 22.1628 5.8132
1 12 10 -9.4206 -12.5056
1 12 11 -17.8854 7.3628
1 12 12 -0.4698 0.4254
1 12 13 1.4913 11.7254
1 12 14 7.7240 1.3267
1 12 15 -3.4551 7.9923
1 12 16 -6.9182 -3.6935
1 12 17 9.9857 7.0118
1 12 18 4.2123 0.5263
1 12 19 4.6979 -3.7474
1 12 20 2.0012 6.1328
1 12 21 -2.0680 1.2254
1 12 22 4.4485 -4.6435
1 12 23 31.4335 -3.5428
1 12 24 4.0013 -5.9582
1 12 25 -13.6109 -2.5183
1 12 26 -4.7339 10.4743
1 12 27 -5.5365 -3.1691
1 12 28 5.1089 -7.1201
1 12 29 6.9939 -7.3276
1 12 30 6.8537 -4.1165
1 12 31 6.3356 -17.2234
1 12 32 4.4285 0.5721
1 12 33 -0.7054 -10.8642
1 12 34 -2.4644 1.5857
1 12 35 -9.3561 0.8148
1 12 36 5.1398 -10.1149
1 12 37 12.7876 -5.2655
1 13 0 -3.4616 -0.7997
1 13 1 -5.4840 -7.1072
1 13 2 -6.4581 -0.2014
1 13 3 23.9078 -4.5396
1 13 4 4.1004 11.1479
1 13 5 1.5937 14.2980
1 13 6 12.0008 -12.4845
1 13 7 -7.2915 24.0014
1 13 8 14.1343 12.3251
1 13 9 9.2267 4.3496
1 13 10 11.9971 -3.5525
1 13 11 -11.5406 -9.0321
1 13 12 -4.1317 1.7859
1 13 13 -2.2870 9.6311
1 13 14 9.4325 6.2923
1 13 15 2.0420 4.1442
1 13 16 7.1013 -13.3921
1 13 17 6.4539 -0.7050
1 13 18 -0.7904 0.7204
1 13 19 -3.8898 -2.4614
1 13 20 0.4995 -21.7671
1 13 21 -1.5057 7.0135
1 13 22 7.1124 3.5772
1 13 23 7.8428 1.1488
1 13 24 -5.6810 -0.6019
1 13 25 -8.5442 -23.2304
1 13 26 -6.6791 -16.1476
1 13 27 -0.6010 5.9605
1 13 28 -0.3164 8.0097
1 13 29 9.0671 6.7853
1 13 30 -9.5020 -7.2560
1 13 31 -3.0802 -9.4918
1 13 32 -11.5704 -2.4248
1 13 33 -9.3413 -11.9739
1 13 34 -2.4098 -7.7441
1 13 35 -4.3758 7.5302
1 14 0 3.7744 -13.2295
1 14 1 17.0641 12.4529
1 14 2 0.2140 -5.6403
1 14 3 -13.0015 0.6441
1 14 4 14.0278 11.1792
1 14 5 -2.1079 -18.0378
1 14 6 8.4749 -15.4612
1 14 7 7.7480 -3.0685
1 14 8 0.9301 1.8095
1 14 9 6.9372 -4.6815
1 14 10 17.2779 -9.0731
1 14 11 11.8933 -11.0613
1 14 12 0.2933 -4.8796
1 14 13 -19.4457 3.5662
1 14 14 -2.0334 9.0737
1 14 15 7.4685 7.1632
1 14 16 14.9755 -10.2827
1 14 17 -6.2096 -8.6668
1 14 18 4.2120 2.2174
1 14 19 -13.4662 -6.5387
1 14 20 -6.3875 -0.3968
1 14 21 2.5270 5.9245
1 14 22 -18.3699 4.2120
1 14 23 -1.0860 -5.8720
1 14 24 13.6017 -10.4561
1 14 25 4.0263 -8.7983
1 14 26 1.0911 0.5108
1 14 27 -18.5577 9.2706
1 14 28 -13.4364 3.9046
1 14 29 3.0716 0.9344
1 14 30 1.9089 -4.6023
1 14 31 8.4584 -3.8604
1 14 32 -0.4755 1.9405
1 15 0 2.6286 -0.0422
1 15 1 -4.2720 -0.4724
1 15 2 -11.6984 5.2314
1 15 3 3.4694 -10.7127
1 15 4 6.5390 -9.7848
1 15 5 -8.3937 3.8162
1 15 6 5.7538 -3.9041
1 15 7 -5.7146 -6.3558
1 15 8 -7.9356 -9.1260
1 15 9 -8.9793 -6.2641
1 15 10 3.6327 7.1963
1 15 11 2.5539 -12.8979
1 15 12 -5.3859 -15.5218
1 15 13 -20.6633 -10.3911
1 15 14 6.0710 5.8564
1 15 15 13.4376 8.5544
1 15 16 -2.3866 23.9725
1 15 17 8.9464 -7.3054
1 15 18 -5.7737 -23.4471
1 15 19 -4.8524 7.7655
1 15 20 -3.7439 -4.1986
1 15 21 0.7291 6.6196
1 15 22 -2.6235 9.3722
1 15 23 9.4448 -2.4131
1 15 24 -1.1486 13.5571
1 15 25 -0.2512 4.2306
1 15 26 -14.2753 -10.0612
1 15 27 -8.0329 -6.2777
1 15 28 -2.6212 -7.8416
1 15 29 4.7675 10.7227
1 16 0 -5.3159 -1.3117
1 16 1 -10.0581 5.6050
1 16 2 6.6491 12.6697
1 16 3 3.5486 -11.9793
1 16 4 9.8088 4.9466
1 16 5 -9.5282 -0.1042
1 16 6 -5.1270 4.0144
1 16 7 0.6439 -6.7414
1 16 8 -9.7113 -2.0813
1 16 9 2.3307 1.9269
1 16 10 -6.0980 6.9827
1 16 11 -12.2444 -10.5388
1 16 12 5.0008 -0.2612
1 16 13 6.3348 4.6846
1 16 14 -21.2882 -10.2317
1 16 15 -11.2869 19.4904
1 16 16 16.7208 -7.6990
1 16 17 5.6412 -10.1834
1 16 18 24.0851 -8.8921
1 16 19 0.2057 3.9751
1 16 20 -17.3677 -5.6791
1 16 21 -0.3864 9.4055
1 16 22 -2.0680 -6.8399
1 16 23 1.7196 11.2231
1 16 24 4.2503 -6.3510
1 16 25 -2.7542 -5.0640
1 17 0 -10.1273 -8.1287
1 17 1 6.6014 -8.8151
1 17 2 3.3047 12.6280
1 17 3 9.9498 3.1015
1 17 4 1.3663 3.2062
1 17 5 0.1769 -8.8600
1 17 6 -6.2139 -19.6121
1 17 7 -0.5592 6.0725
1 17 8 -1.7523 11.6947
1 17 9 1.5635 -10.4509
1 17 10 -5.9361 3.5281
1 17 11 -11.9557 6.6795
1 17 12 15.0788 0.0453
1 17 13 -19.0505 3.1027
1 17 14 -4.3137 5.4743
1 17 15 -6.3158 -15.8694
1 17 16 6.2622 7.3172
1 17 17 -4.2560 10.7761
1 17 18 3.1718 -8.0886
1 17 19 -16.8930 -13.4673
1 17 20 2.9860 -17.7099
1 17 21 -9.4022 -2.3887
1 18 0 1.0932 1.7877
1 18 1 -2.1080 1.8789
1 18 2 -17.2265 1.7333
1 18 3 -9.0820 2.8629
1 18 4 14.3015 -8.6315
1 18 5 8.4289 -10.1489
1 18 6 -9.1531 -5.3208
1 18 7 -0.3470 4.5952
1 18 8 -18.2415 8.1401
1 18 9 -4.7970 -8.0808
1 18 10 9.0503 13.4327
1 18 11 0.9558 -2.2458
1 18 12 -13.5675 6.5880
1 18 13 5.8382 -0.2245
1 18 14 8.3325 7.9011
1 18 15 -3.3005 1.7295
1 19 0 1.2179 0.0161
1 19 1 -1.8902 -4.9768
2 0 3 -16.5541 35.3733
2 0 4 68.4334 -2.6278
2 0 5 -10.6288 7.8633
2 0 6 14.2940 9.9664
2 0 7 3.8197 15.9976
2 0 8 30.2178 15.7725
2 0 9 -1.6551 44.8058
2 0 10 12.4854 6.3016
2 0 11 -15.1359 7.2866
2 0 12 23.5685 -3.3617
2 0 13 1.2714 -0.0191
2 0 14 -8.1239 -6.8302
2 0 15 14.0571 -37.9481
2 0 16 -21.1937 -5.4239
2 0 17 4.1627 -24.7200
2 0 18 11.6409 -8.0806
2 0 19 -4.6635 -25.5778
2 0 20 -39.6877 -3.7936
2 0 21 -3.5215 -16.4239
2 0 22 -19.0616 7.8467
2 0 23 -1.3385 -15.4918
2 0 24 2.3890 12.0033
2 0 25 -3.1525 -16.3452
2 0 26 8.3652 6.0357
2 0 27 -2.2710 6.4958
2 0 28 -3.8566 -4.0610
2 0 29 -1.7867 7.5135
2 0 30 2.3749 -8.5270
2 0 31 3.5804 2.7080
2 0 32 0.1844 -6.8126
2 0 33 9.5926 9.4090
2 0 34 -4.4016 -4.8334
2 0 35 1.0432 18.1254
2 0 36 5.4697 -1.7243
2 0 37 -9.1503 -0.7845
2 0 38 -5.5207 5.7901
2 0 39 -2.0865 4.6892
2 0 40 -7.1505 12.9144
2 0 41 6.5289 32.2764
2 0 42 -3.7271 6.0713
2 0 43 -2.8864 0.4987
2 0 44 11.3793 -6.1319
2 0 45 -7.5093 5.9727
2 0 46 1.7624 -7.5181
2 0 47 7.9020 6.4622
2 1 1 7.7382 -4.9281
2 1 2 16.8090 11.3656
2 1 3 4.6106 -31.9307
2 1 4 -12.1592 14.5510
2 1 5 1.4691 3.0556
2 1 6 29.4521 -26.4014
2 1 7 -26.1880 -39.6511
2 1 8 24.0574 14.9952
2 1 9 0.8859 -26.3345
2 1 10 37.4783 -3.4342
2 1 11 -4.7501 -36.8961
2 1 12 15.7413 15.5353
2 1 13 -5.8696 27.0647
2 1 14 -13.1620 -18.1568
2 1 15 -2.8068 -21.6146
2 1 16 -28.2615 20.7468
2 1 17 -18.4507 18.6387
2 1 18 -33.4227 -13.3612
2 1 19 -4.3509 14.0253
2 1 20 -30.0885 -7.9514
2 1 21 -1.4486 14.2862
2 1 22 -26.7940 15.9902
2 1 23 13.7808 5.2287
2 1 24 -0.1213 11.7512
2 1 25 0.6010 0.0066
2 1 26 3.8361 -7.1455
2 1 27 -8.9178 -2.9943
2 1 28 7.6357 -0.7259
2 1 29 4.6013 2.7717
2 1 30 11.4677 -1.5817
2 1 31 -8.1020 4.5806
2 1 32 3.0689 -7.5052
2 1 33 -5.1835 -2.0137
2 1 34 -0.6651 1.3098
2 1 35 2.1903 -7.0717
2 1 36 -0.9773 6.0635
2 1 37 6.2313 2.1022
2 1 38 7.0701 -6.9840
2 1 39 -5.5511 6.1527
2 1 40 -5.2530 4.9896
2 1 41 7.9322 1.4718
2 1 42 22.7790 12.6623
2 1 43 11.4416 -8.9504
2 1 44 21.6100 6.9413
2 1 45 -2.0292 8.5164
2 1 46 -2.7011 -10.4554
2 1 47 -3.3863 3.3881
2 2 0 5.1385 3.1315
2 2 1 47.5489 21.2428
2 2 2 30.6409 -27.6915
2 2 3 -13.7280 -30.2152
2 2 4 18.8521 11.6827
2 2 5 34.4049 -15.3677
2 2 6 -14.1187 38.8184
2 2 7 2.8649 -7.3649
2 2 8 -46.3279 27.0085
2 2 9 17.9592 -27.2699
2 2 10 -29.1175 30.0157
2 2 11 -12.8610 -32.7052
2 2 12 -19.3946 -18.1207
2 2 13 16.5570 -0.3237
2 2 14 -11.7927 6.2155
2 2 15 12.8519 13.9709
2 2 16 8.7602 -1.2591
2 2 17 -31.4691 16.0872
2 2 18 12.8570 9.4707
2 2 19 20.0345 29.5227
2 2 20 4.9400 4.5150
2 2 21 6.6363 25.7747
2 2 22 -5.8674 3.7867
2 2 23 7.4223 10.1506
2 2 24 10.4912 8.4085
2 2 25 -1.5632 -9.4653
2 2 26 -0.3310 -9.8186
2 2 27 -0.2186 -4.7522
2 2 28 -6.3823 6.4162
2 2 29 -6.8729 -2.8513
2 2 30 3.9610 -5.1857
2 2 31 -0.2900 -3.2675
2 2 32 0.3305 -14.7666
2 2 33 7.4879 11.1279
2 2 34 -7.4336 1.8429
2 2 35 -3.2624 -2.5052
2 2 36 6.2761 -2.1852
2 2 37 2.0272 8.1694
2 2 38 5.1297 -8.4755
2 2 39 4.2611 4.0054
2 2 40 -11.0444 1.5318
2 2 41 6.3539 -4.6305
2 2 42 -1.4224 12.2109
2 2 43 -1.6943 -3.1304
2 2 44 9.8870 -14.0972
2 2 45 4.1690 -8.2038
2 2 46 -2.8877 -10.8302
2 2 47 9.9550 -3.0690
2 3 0 4.1814 9.3413
2 3 1 28.1146 -24.9426
2 3 2 30.4306 -6.7437
2 3 3 32.2555 -31.1143
2 3 4 -11.5741 -53.8767
2 3 5 -5.7746 4.7269
2 3 6 -28.8626 -39.9001
2 3 7 55.5553 -1.5162
2 3 8 -14.8015 -40.2312
2 3 9 40.3624 38.7000
2 3 10 14.8387 13.0326
2 3 11 7.3195 33.5083
2 3 12 -7.3485 -28.9687
2 3 13 -11.0840 26.8671
2 3 14 -17.2601 29.6544
2 3 15 -0.1488 -30.0685
2 3 16 9.4763 -11.1989
2 3 17 12.7098 6.9422
2 3 18 3.8592 5.1360
2 3 19 -9.2839 16.2249
2 3 20 16.1825 -12.7030
2 3 21 10.1238 -14.1935
2 3 22 5.4846 -6.0735
2 3 23 4.2628 -9.9429
2 3 24 2.3633 -3.1047
2 3 25 2.7448 7.9698
2 3 26 0.8303 -6.5904
2 3 27 -4.3733 5.0087
2 3 28 -4.3603 5.3433
2 3 29 -17.6268 0.0510
2 3 30 17.3567 3.1791
2 3 31 -8.4522 9.1238
2 3 32 -4.3500 -6.3867
2 3 33 -5.5100 -3.7146
2 3 34 3.9603 -1.0749
2 3 35 -8.6176 -6.6963
2 3 36 13.6002 0.7658
2 3 37 -8.7226 2.1448
2 3 38 -3.8009 -7.6949
2 3 39 6.4542 -4.6055
2 3 40 -1.1314 -6.0592
2 3 41 -0.7094 -3.2812
2 3 42 5.1107 4.7552
2 3 43 -3.4651 7.0121
2 3 44 5.9134 -1.1999
2 3 45 2.1743 10.0959
2 3 46 0.9979 -13.7624
2 3 47 -3.3750 0.8334
2 4 0 -41.3642 -0.6378
2 4 1 -22.1638 -9.9118
2 4 2 18.3027 16.3453
2 4 3 -37.1352 -21.9452
2 4 4 -22.3100 -73.1085
2 4 5 -48.9057 2.0308
2 4 6 6.6469 -42.9023
2 4 7 -31.8566 19.0234
2 4 8 -6.9975 5.0873
2 4 9 -46.0640 -22.4466
2 4 10 31.9394 -31.9325
2 4 11 5.9393 -4.5520
2 4 12 4.5169 -26.7950
2 4 13 30.8159 -3.1104
2 4 14 -5.0110 -5.0133
2 4 15 0.3473 25.4504
2 4 16 15.4149 4.8308
2 4 17 -11.8298 -1.8202
2 4 18 -15.8126 -3.6591
2 4 19 -0.4017 -5.7138
2 4 20 7.2355 -0.3089
2 4 21 13.7479 5.6785
2 4 22 -3.0878 -1.7924
2 4 23 -24.2918 -4.2042
2 4 24 4.6718 -1.4631
2 4 25 -10.9839 7.0288
2 4 26 -4.1880 13.6066
2 4 27 4.0844 -14.3308
2 4 28 5.5949 7.9785
2 4 29 -1.4655 -3.4032
2 4 30 8.5101 5.2472
2 4 31 0.6064 3.6687
2 4 32 0.2782 7.1421
2 4 33 6.6851 -12.9091
2 4 34 -3.5773 10.5588
2 4 35 -5.0363 1.4917
2 4 36 -6.8982 -5.0648
2 4 37 -3.3208 1.5522
2 4 38 -2.2745 -0.0557
2 4 39 -0.2151 -3.7570
2 4 40 -2.2244 5.2725
2 4 41 -6.0031 0.4335
2 4 42 -0.0977 -0.0203
2 4 43 -9.0735 -1.6592
2 4 44 8.2446 -3.5121
2 4 45 -1.7302 4.3500
2 4 46 11.7712 -4.6726
2 5 0 -46.8519 -0.9064
2 5 1 -34.3095 -19.0743
2 5 2 3.5561 23.2410
2 5 3 -33.4105 10.3632
2 5 4 26.1590 9.6472
2 5 5 -17.2274 8.8606
2 5 6 -52.9671 40.3771
2 5 7 -26.4666 5.3954
2 5 8 -6.4493 24.5158
2 5 9 -17.9837 -15.1482
2 5 10 8.5682 -3.3910
2 5 11 -19.0523 35.4993
2 5 12 -6.7877 -20.8507
2 5 13 -24.2039 -25.2088
2 5 14 3.9892 -5.3982
2 5 15 -8.8060 5.5497
2 5 16 2.8158 -10.4303
2 5 17 3.5004 -4.0033
2 5 18 15.9609 -6.2259
2 5 19 1.5139 15.9848
2 5 20 -3.4307 14.2642
2 5 21 -6.1220 -12.0589
2 5 22 7.3192 7.9967
2 5 23 1.6894 -7.2060
2 5 24 -3.7988 -1.1411
2 5 25 7.8326 6.0098
2 5 26 -0.2899 5.2014
2 5 27 8.5085 -1.9322
2 5 28 10.3718 8.2635
2 5 29 2.7867 -3.5414
2 5 30 -9.7391 -7.3728
2 5 31 7.2761 1.6253
2 5 32 -1.1509 -4.0136
2 5 33 -2.4923 -1.0632
2 5 34 8.3700 -7.6550
2 5 35 -4.9597 -1.6040
2 5 36 -4.8717 0.7350
2 5 37 6.1344 5.6575
2 5 38 -2.7026 2.9784
2 5 39 -5.3023 2.3166
2 5 40 -4.6737 2.8326
2 5 41 -6.2582 -1.8926
2 5 42 8.6590 3.0134
2 5 43 0.0205 -10.8548
2 5 44 5.1079 9.9088
2 5 45 -3.8249 2.6387
2 5 46 -6.5948 1.0020
2 6 0 -7.0546 0.8600
2 6 1 -33.3265 -33.1095
2 6 2 -1.9771 26.8237
2 6 3 -4.7274 48.2962
2 6 4 4.5515 9.7078
2 6 5 8.1230 11.9772
2 6 6 -9.6589 -3.6232
2 6 7 18.5836 -3.1056
2 6 8 31.5004 23.2397
2 6 9 -15.1312 22.3374
2 6 10 5.2332 15.5832
2 6 11 -10.9212 -9.3977
2 6 12 -5.2115 10.5697
2 6 13 -9.3944 -0.6739
2 6 14 2.8322 8.4334
2 6 15 -19.4074 -7.3021
2 6 16 -2.0760 7.7076
2 6 17 -1.0906 -3.7606
2 6 18 -3.2044 -0.9701
2 6 19 5.6641 -9.6456
2 6 20 -10.5689 -1.9102
2 6 21 8.6258 -11.2639
2 6 22 14.3546 1.1409
2 6 23 -3.5270 5.5683
2 6 24 -3.9491 1.4452
2 6 25 7.9400 -7.8434
2 6 26 -5.0040 -2.2117
2 6 27 -3.6520 1.8261
2 6 28 0.1697 -5.0613
2 6 29 -1.5860 -0.2747
2 6 30 2.4265 -6.3619
2 6 31 -5.2513 -12.9715
2 6 32 -1.9613 4.7528
2 6 33 -1.1434 -0.3186
2 6 34 1.5901 -0.5226
2 6 35 -7.5847 5.1412
2 6 36 -4.0350 -4.7793
2 6 37 -6.7132 1.5670
2 6 38 2.3504 4.6286
2 6 39 0.5765 -2.2720
2 6 40 -3.2946 5.4332
2 6 41 7.5873 2.0300
2 6 42 -7.0730 15.5438
2 6 43 1.8967 5.7828
2 6 44 -4.1061 -11.9502
2 6 45 -4.7957 -2.7308
2 7 0 9.2399 5.7070
2 7 1 -25.9384 -27.4065
2 7 2 -0.2876 -1.6680
2 7 3 -14.9593 11.1391
2 7 4 13.5095 8.6166
2 7 5 22.4978 -2.3987
2 7 6 35.6872 10.7016
2 7 7 -2.3171 -13.7247
2 7 8 -9.1242 12.7169
2 7 9 -0.4702 -6.9479
2 7 10 -1.6591 -11.8938
2 7 11 11.8281 -4.8238
2 7 12 1.8580 22.8775
2 7 13 -0.7014 7.0110
2 7 14 -15.4003 7.1258
2 7 15 1.7344 5.0821
2 7 16 -1.8010 5.8383
2 7 17 1.3357 14.1378
2 7 18 -13.3379 -6.2304
2 7 19 -0.0040 0.4011
2 7 20 -4.8174 13.6486
2 7 21 -2.8087 -6.5629
2 7 22 -11.6708 -8.1582
2 7 23 -0.1291 4.5754
2 7 24 0.5671 -4.5026
2 7 25 -1.3808 -2.1734
2 7 26 3.4638 -3.1545
2 7 27 -4.2647 -1.5196
2 7 28 -7.4343 1.7507
2 7 29 4.9800 3.8009
2 7 30 2.7412 1.5630
2 7 31 5.6307 1.2385
2 7 32 -5.3617 5.5078
2 7 33 -16.7775 1.7597
2 7 34 1.4654 6.3421
2 7 35 2.2692 -6.9956
2 7 36 3.5532 0.2724
2 7 37 -1.2818 2.4884
2 7 38 -3.1656 5.2578
2 7 39 5.2326 7.3572
2 7 40 2.2270 -4.9228
2 7 41 0.8587 4.1044
2 7 42 5.9616 4.0059
2 7 43 3.0284 -0.3967
2 7 44 11.9151 -4.4066
2 8 0 -1.0105 5.1132
2 8 1 -2.5074 -15.6938
2 8 2 -15.2709 -6.7267
2 8 3 -8.0195 -13.1719
2 8 4 -20.4992 27.5305
2 8 5 10.2073 -4.5283
2 8 6 2.0064 -3.9344
2 8 7 -0.4654 -14.9449
2 8 8 1.8284 -19.3253
2 8 9 1.4679 -8.0196
2 8 10 -2.5959 9.9472
2 8 11 1.8058 12.6563
2 8 12 -3.0341 0.7723
2 8 13 0.3035 -0.0636
2 8 14 10.9111 1.0904
2 8 15 4.5691 17.0881
2 8 16 13.0638 7.8277
2 8 17 6.5841 6.5332
2 8 18 -6.2694 -1.4939
2 8 19 12.0458 3.2315
2 8 20 7.2912 2.0077
2 8 21 -4.3007 14.3254
2 8 22 8.6541 4.1503
2 8 23 -1.3084 -6.6741
2 8 24 -4.5932 3.1413
2 8 25 -8.1250 6.8122
2 8 26 4.2356 1.1558
2 8 27 -2.4536 -0.1493
2 8 28 -4.3267 -5.1864
2 8 29 -6.3366 6.9736
2 8 30 1.1681 4.0863
2 8 31 2.3409 -9.6707
2 8 32 -6.3941 -2.7509
2 8 33 2.4623 -10.5025
2 8 34 6.4013 2.6780
2 8 35 6.7967 8.0163
2 8 36 -0.2040 2.3875
2 8 37 -8.8540 -7.9298
2 8 38 -2.9213 -0.1379
2 8 39 -2.1433 4.9924
2 8 40 0.2177 1.5134
2 8 41 3.1321 -6.2591
2 8 42 3.4474 -6.5286
2 8 43 -5.5010 -2.8807
2 9 0 -2.2180 -2.7714
2 9 1 8.9408 7.5435
2 9 2 -22.3489 -4.4614
2 9 3 0.3708 0.8627
2 9 4 -8.7498 6.4264
2 9 5 -4.1983 7.0033
2 9 6 -2.0687 13.3884
2 9 7 9.2989 0.2665
2 9 8 -1.8226 -3.2222
2 9 9 -8.4929 1.2921
2 9 10 -14.7291 4.3265
2 9 11 -1.7313 3.4611
2 9 12 6.8211 1.5731
2 9 13 10.9330 -3.1743
2 9 14 7.3520 3.2275
2 9 15 2.0551 4.1396
2 9 16 1.0307 -12.2900
2 9 17 8.7501 1.1623
2 9 18 17.8179 -7.2234
2 9 19 -1.6212 -14.8636
2 9 20 -5.9350 4.7566
2 9 21 4.5580 -1.0831
2 9 22 7.2951 -4.0873
2 9 23 4.0968 -12.2434
2 9 24 0.2211 2.7590
2 9 25 -8.3619 1.4268
2 9 26 -0.5026 6.1339
2 9 27 0.7147 0.4794
2 9 28 8.8205 8.0030
2 9 29 4.5010 3.5437
2 9 30 -15.7091 1.5624
2 9 31 3.3504 3.6430
2 9 32 7.5956 6.5288
2 9 33 -4.8211 1.8938
2 9 34 -13.8546 6.5700
2 9 35 -4.3182 -0.7120
2 9 36 -6.6456 -2.1532
2 9 37 -1.2671 -8.0638
2 9 38 -0.4180 -0.0372
2 9 39 -6.9637 10.6679
2 9 40 2.3822 11.2148
2 9 41 5.4160 0.5413
2 9 42 -1.9889 4.4987
2 10 0 -7.3025 -4.0023
2 10 1 -1.6998 2.1636
2 10 2 -1.5447 -5.5948
2 10 3 11.1833 0.2115
2 10 4 0.4013 -1.9762
2 10 5 -2.1622 6.3721
2 10 6 -0.8025 2.2774
2 10 7 6.0788 4.3589
2 10 8 8.3526 -2.9566
2 10 9 -1.3604 5.4828
2 10 10 -0.2865 -9.7937
2 10 11 3.6941 6.4111
2 10 12 10.8548 3.3778
2 10 13 -0.7540 9.9537
2 10 14 12.0514 -11.4234
2 10 15 -5.7956 -19.2192
2 10 16 2.4079 0.3086
2 10 17 9.1360 -0.5655
2 10 18 -5.4719 0.0356
2 10 19 -4.9717 1.0933
2 10 20 -8.8933 -6.7667
2 10 21 -4.7257 -9.9188
2 10 22 -5.9572 7.1012
2 10 23 5.6111 2.4556
2 10 24 -1.8338 -5.5080
2 10 25 -1.6758 -8.8032
2 10 26 -9.7032 8.6499
2 10 27 3.9076 14.9730
2 10 28 8.1825 -5.7915
2 10 29 5.2584 -4.3004
2 10 30 -0.3883 -1.4970
2 10 31 10.5894 0.5600
2 10 32 -0.1222 4.1215
2 10 33 2.8010 6.2519
2 10 34 -2.6658 -8.2421
2 10 35 9.4547 -2.9502
2 10 36 4.9812 13.7321
2 10 37 0.9356 10.7876
2 10 38 -3.9046 7.0712
2 10 39 -2.5889 4.9354
2 10 40 -1.7763 2.5392
2 11 0 12.7395 -4.1352
2 11 1 6.6419 1.0556
2 11 2 1.3141 3.8927
2 11 3 -7.9823 7.5825
2 11 4 -12.0105 0.0535
2 11 5 -5.4634 -10.2526
2 11 6 5.1859 -2.4335
2 11 7 -15.0043 -2.3606
2 11 8 5.7378 2.0623
2 11 9 -6.6296 -5.4527
2 11 10 12.1582 1.5861
2 11 11 -10.3059 -12.0825
2 11 12 -0.4888 8.7064
2 11 13 5.8995 -8.7120
2 11 14 -7.7698 -7.2975
2 11 15 5.7959 -5.2226
2 11 16 -4.1244 -7.6071
2 11 17 -19.7679 -0.1328
2 11 18 -9.4040 -3.5224
2 11 19 15.3344 -1.8083
2 11 20 4.5007 -5.9965
2 11 21 0.6143 10.2363
2 11 22 -6.1434 7.3523
2 11 23 -4.7116 10.9109
2 11 24 -1.0367 -3.8448
2 11 25 1.2783 -3.5650
2 11 26 1.6435 0.5993
2 11 27 -6.2178 2.3781
2 11 28 -0.8017 0.7660
2 11 29 9.4938 8.5696
2 11 30 5.7529 -6.7749
2 11 31 -10.1459 -2.9230
2 11 32 -5.4785 -6.6578
2 11 33 10.5912 4.5433
2 11 34 1.0911 -2.7884
2 11 35 -5.4941 2.8463
2 11 36 -3.3203 3.8732
2 11 37 -2.6029 -0.9865
2 11 38 7.6953 -5.1005
2 12 0 12.9864 3.4481
2 12 1 2.5096 2.5978
2 12 2 -6.4702 -17.4577
2 12 3 1.8172 -8.2235
2 12 4 -0.9902 13.1482
2 12 5 7.5627 1.1282
2 12 6 2.0757 19.1973
2 12 7 -2.7167 -2.0167
2 12 8 -11.7474 15.3518
2 12 9 7.3454 0.2449
2 12 10 -8.9946 12.1823
2 12 11 -1.0447 10.1345
2 12 12 -5.1781 -17.6082
2 12 13 -4.4046 1.7370
2 12 14 -2.4763 4.4760
2 12 15 -5.4786 1.7477
2 12 16 4.3559 -0.0111
2 12 17 -12.6684 7.1050
2 12 18 0.3101 -1.9346
2 12 19 -6.7932 11.9223
2 12 20 4.3784 5.6222
2 12 21 -5.6820 -5.4754
2 12 22 -1.7293 -13.7813
2 12 23 4.6040 -0.0639
2 12 24 8.8788 11.4784
2 12 25 9.3719 7.4164
2 12 26 2.5034 -3.2947
2 12 27 -9.2460 -0.7232
2 12 28 1.2061 7.2331
2 12 29 5.0743 4.6738
2 12 30 7.9392 -3.0517
2 12 31 0.0696 4.8710
2 12 32 5.2352 -5.6322
2 12 33 1.4523 -0.8420
2 12 34 -2.9193 9.8242
2 12 35 3.5512 -2.7265
2 12 36 4.3056 -5.1146
2 13 0 9.2465 1.5334
2 13 1 0.5214 0.8075
2 13 2 -3.7309 -15.2198
2 13 3 7.2307 -4.0732
2 13 4 -12.0991 7.0237
2 13 5 1.8703 5.8117
2 13 6 -2.2319 -3.0247
2 13 7 15.7824 4.5820
2 13 8 9.8194 -8.4578
2 13 9 -3.7410 -1.3421
2 13 10 14.7482 4.2724
2 13 11 8.3038 7.3544
2 13 12 11.9844 -1.2212
2 13 13 3.1897 -4.8476
2 13 14 -7.6448 21.8014
2 13 15 -15.2781 -2.2989
2 13 16 5.7746 9.2076
2 13 17 6.3616 -4.4949
2 13 18 7.8862 1.5031
2 13 19 -6.9433 2.6224
2 13 20 2.4661 2.0574
2 13 21 2.8217 1.4957
2 13 22 4.9806 -2.5491
2 13 23 -2.5732 2.0908
2 13 24 -5.4318 4.7710
2 13 25 -2.2447 -3.0818
2 13 26 8.3580 -10.3157
2 13 27 9.0525 -5.7366
2 13 28 4.6996 -2.0108
2 13 29 -6.2396 0.7912
2 13 30 9.3903 -1.1244
2 13 31 10.9037 -0.7963
2 13 32 -3.8416 -12.9041
2 13 33 -3.3996 -2.9043
2 13 34 5.1084 -4.2842
2 14 0 9.0267 -8.7435
2 14 1 6.4444 -0.3136
2 14 2 2.7822 -2.8319
2 14 3 2.3686 3.9041
2 14 4 -2.6322 -5.4121
2 14 5 -12.5071 -3.4773
2 14 6 2.5961 4.7347
2 14 7 12.5614 -6.6360
2 14 8 7.2210 2.3173
2 14 9 -7.1014 -2.9278
2 14 10 -1.2358 -9.7428
2 14 11 7.9030 -2.8474
2 14 12 -10.5716 2.0947
2 14 13 13.1823 -11.1147
2 14 14 -3.6687 -8.4044
2 14 15 -5.3560 -2.0991
2 14 16 12.4166 15.4749
2 14 17 9.7066 9.1128
2 14 18 8.7518 3.9646
2 14 19 -8.1785 -12.5929
2 14 20 2.2021 -2.9050
2 14 21 5.2958 6.8657
2 14 22 1.1812 5.7793
2 14 23 -4.6316 -3.5872
2 14 24 2.9936 -6.8627
2 14 25 0.5069 0.1563
2 14 26 5.2882 5.5142
2 14 27 -2.9239 -0.9370
2 14 28 -0.7829 -4.3418
2 14 29 -12.8793 -5.9027
2 14 30 5.1881 -6.1262
2 14 31 -3.2237 -4.1550
2 14 32 -3.2505 1.3836
2 15 0 5.2151 2.0925
2 15 1 -7.0767 3.8893
2 15 2 -10.0547 3.6847
2 15 3 -1.1931 -7.1509
2 15 4 -2.7089 -6.8396
2 15 5 10.2417 -0.5157
2 15 6 -1.9464 3.5873
2 15 7 -15.9788 1.1375
2 15 8 2.7511 4.9922
2 15 9 3.7067 -2.1839
2 15 10 -0.8158 -20.8773
2 15 11 -0.0574 3.1538
2 15 12 -4.4728 10.4252
2 15 13 -1.5423 -17.1776
2 15 14 5.4097 0.8629
2 15 15 1.5766 -5.3855
2 15 16 -3.2146 14.1696
2 15 17 2.1887 -6.5506
2 15 18 8.1448 -1.2374
2 15 19 13.5716 -9.4457
2 15 20 5.1717 -6.4829
2 15 21 -11.1946 -1.7166
2 15 22 1.7750 0.6073
2 15 23 5.8172 -9.1075
2 15 24 7.2987 -1.9537
2 15 25 -2.6771 -1.2518
2 15 26 -7.2691 6.0704
2 15 27 -0.7713 -11.2559
2 15 28 5.4556 1.8965
2 15 29 3.9359 0.2217
2 16 0 -1.4046 -5.3804
2 16 1 0.3471 -5.3385
2 16 2 -0.5154 -7.3348
2 16 3 1.7792 6.9748
2 16 4 5.9771 15.0135
2 16 5 8.4338 -2.7504
2 16 6 -7.1655 -1.1440
2 16 7 -9.8655 -5.5448
2 16 8 10.4182 -0.0036
2 16 9 11.7210 10.7364
2 16 10 -13.3641 6.7552
2 16 11 9.3374 -10.6319
2 16 12 -16.1834 -4.8961
2 16 13 1.5070 -1.8462
2 16 14 -8.6556 12.7932
2 16 15 3.1897 -3.4471
2 16 16 -15.0369 -13.4657
2 16 17 -0.9765 -6.8709
2 16 18 12.2289 2.5065
2 16 19 1.4072 -10.2069
2 16 20 -4.7163 -0.9215
2 16 21 -3.1246 -13.6052
2 16 22 -2.7971 -3.7745
2 16 23 -2.7457 4.5402
2 16 24 -9.5675 -0.5912
2 16 25 -2.6358 -4.6946
2 17 0 -6.8442 -1.0390
2 17 1 0.5343 -2.9115
2 17 2 -9.8471 -6.6093
2 17 3 -2.4122 7.9741
2 17 4 -0.9070 2.8019
2 17 5 1.7071 -8.8340
2 17 6 12.3501 -5.7038
2 17 7 7.0779 0.2119
2 17 8 -8.4384 -16.0792
2 17 9 -4.0813 15.8944
2 17 10 1.2163 -8.2168
2 17 11 14.6151 -9.6529
2 17 12 -4.5875 -4.9839
2 17 13 -2.4063 11.6539
2 17 14 -8.4392 3.8595
2 17 15 0.2400 -2.3621
2 17 16 6.5309 10.6073
2 17 17 9.0670 0.8172
2 17 18 -18.9267 6.8384
2 17 19 -8.5447 0.0911
2 17 20 -0.5227 -3.5247
2 17 21 -3.3862 -4.8302
2 18 0 13.2068 -1.4902
2 18 1 -3.0806 10.5987
2 18 2 -1.8782 15.0456
2 18 3 1.8750 -2.7116
2 18 4 -5.7100 4.2867
2 18 5 -4.8999 6.6063
2 18 6 18.6391 0.4801
2 18 7 -9.8632 -5.2476
2 18 8 -10.0535 -8.6553
2 18 9 -0.7933 -3.7341
2 18 10 -4.7452 -3.8366
2 18 11 1.7872 11.9184
2 18 12 -9.2025 -4.1277
2 18 13 1.8974 -12.1649
2 18 14 -11.5476 -3.8621
3 0 1 -3.6139 48.5025
3 0 2 -15.7580 1.7884
3 0 3 -5.3297 -2.9906
3 0 4 -2.1303 -7.7183
3 0 5 -14.3773 -6.1662
3 0 6 -2.9147 -5.3687
3 0 7 -12.4216 -33.1560
3 0 8 -6.8476 0.6378
3 0 9 8.2987 41.8856
3 0 10 -7.7442 2.3793
3 0 11 20.1182 37.3093
3 0 12 31.4182 0.4826
3 0 13 4.7813 35.3545
3 0 14 3.1745 3.0053
3 0 15 -8.6067 39.9368
3 0 16 1.1483 1.8290
3 0 17 1.8656 8.4749
3 0 18 -3.4290 -4.3149
3 0 19 1.6257 10.2813
3 0 20 -4.3106 -5.6242
3 0 21 -17.2666 -14.7476
3 0 22 -29.6820 -1.9166
3 0 23 -12.9137 -1.2191
3 0 24 -5.3700 0.4733
3 0 25 13.6131 -14.8265
3 0 26 -2.9261 1.0343
3 0 27 18.0370 -13.1784
3 0 28 -17.0786 5.3865
3 0 29 -1.6237 -9.2881
3 0 30 5.7236 5.6512
3 0 31 -4.3094 8.4095
3 0 32 9.3359 -1.1953
3 0 33 4.6439 -5.9332
3 0 34 -1.6155 -4.8672
3 0 35 -3.6896 -4.7478
3 0 36 -11.6779 -3.4558
3 0 37 -15.4667 8.7805
3 0 38 1.7276 -3.2735
3 0 39 -6.0724 -8.7673
3 0 40 0.6143 -0.2977
3 0 41 10.9561 0.5044
3 0 42 -22.8305 5.5593
3 0 43 10.2185 5.6220
3 0 44 4.1576 6.3708
3 0 45 0.3333 5.5236
3 0 46 -3.7483 1.9162
3 0 47 -0.4696 -1.0855
3 1 0 0.5806 -10.2075
3 1 1 -4.7919 -4.6970
3 1 2 4.0950 26.2939
3 1 3 49.4554 6.0654
3 1 4 9.5856 25.7882
3 1 5 25.6258 7.6511
3 1 6 -14.0272 10.3516
3 1 7 -2.1987 37.8262
3 1 8 18.7831 -8.9834
3 1 9 -34.1707 14.4821
3 1 10 4.6433 13.2196
3 1 11 13.7267 -11.7636
3 1 12 58.7590 2.9454
3 1 13 -18.3181 -33.2447
3 1 14 27.3453 -7.2190
3 1 15 3.9094 -13.7802
3 1 16 37.0462 5.1127
3 1 17 -10.7770 2.9851
3 1 18 2.4134 2.3497
3 1 19 -0.9508 1.4638
3 1 20 0.6655 -1.7859
3 1 21 -10.0970 9.9352
3 1 22 -15.6185 0.3238
3 1 23 -4.1183 30.4718
3 1 24 -10.0188 5.8202
3 1 25 3.4861 36.3454
3 1 26 -8.4140 -15.3148
3 1 27 -0.5932 -8.0965
3 1 28 -8.3855 -8.0895
3 1 29 -9.9613 -14.7495
3 1 30 0.9979 7.7185
3 1 31 -3.9757 -0.8789
3 1 32 9.9138 -5.6723
3 1 33 3.5219 -3.8793
3 1 34 6.2155 -4.0609
3 1 35 -10.3212 -12.7508
3 1 36 -5.4013 8.1029
3 1 37 -9.5337 -8.5801
3 1 38 1.5518 14.7003
3 1 39 -0.0502 32.2886
3 1 40 -6.5967 -4.1008
3 1 41 -6.9864 12.6924
3 1 42 -11.8082 0.6527
3 1 43 -4.2232 -2.7773
3 1 44 6.6871 3.6573
3 1 45 3.6317 0.8183
3 1 46 5.3538 2.4595
3 1 47 5.4520 -0.9733
3 2 0 -8.8724 -54.3048
3 2 1 17.2501 15.4423
3 2 2 -22.0509 -2.6818
3 2 3 -1.6828 17.2801
3 2 4 37.3626 -50.0446
3 2 5 1.2767 -26.4407
3 2 6 46.8007 -5.7332
3 2 7 8.6073 -20.5376
3 2 8 13.5999 -15.6286
3 2 9 35.6329 -4.7174
3 2 10 -9.3824 34.9846
3 2 11 15.8609 -16.4844
3 2 12 -13.7756 18.5171
3 2 13 22.2029 -33.4429
3 2 14 -21.1168 -6.7944
3 2 15 -11.3701 -23.6437
3 2 16 -13.0787 7.1785
3 2 17 -4.7157 -8.2235
3 2 18 2.4116 -8.1760
3 2 19 -9.6823 -4.7870
3 2 20 9.1209 13.5688
3 2 21 -10.5832 8.1533
3 2 22 23.7775 -1.4237
3 2 23 -14.3126 10.9133
3 2 24 22.0256 11.4620
3 2 25 7.5779 7.8209
3 2 26 12.6529 -1.2532
3 2 27 19.7340 -6.9851
3 2 28 -6.0321 9.2307
3 2 29 -11.5690 -7.6662
3 2 30 -13.7255 13.5809
3 2 31 -9.4498 -2.4602
3 2 32 -5.0109 5.8856
3 2 33 6.2435 -3.5053
3 2 34 -18.3515 -1.1615
3 2 35 1.8419 -12.7789
3 2 36 -4.8621 0.6585
3 2 37 -15.4949 0.7810
3 2 38 4.3051 3.2799
3 2 39 -5.4974 14.2535
3 2 40 12.7786 -2.5610
3 2 41 20.5185 0.0440
3 2 42 11.6000 10.0753
3 2 43 5.8332 6.9584
3 2 44 -3.7772 8.7872
3 2 45 1.9808 7.1160
3 2 46 -0.4576 2.5501
3 2 47 -0.1522 -2.4701
3 3 0 -12.0189 -15.9779
3 3 1 -45.2183 -37.5703
3 3 2 -17.0817 17.0503
3 3 3 -14.8413 -24.9574
3 3 4 22.9932 35.1466
3 3 5 -4.2817 -9.0252
3 3 6 -7.0462 -28.5517
3 3 7 -36.1715 -8.3993
3 3 8 -18.5328 -35.4104
3 3 9 15.8196 -12.5998
3 3 10 -20.9043 -35.5581
3 3 11 -0.2588 17.8539
3 3 12 24.5660 -20.3098
3 3 13 25.8605 18.0334
3 3 14 -11.5212 -4.6775
3 3 15 -25.6713 -4.8368
3 3 16 -4.9329 3.2954
3 3 17 8.6498 3.5497
3 3 18 -4.7762 16.5385
3 3 19 -1.0711 -4.5579
3 3 20 1.7737 17.0765
3 3 21 2.6119 -7.6150
3 3 22 7.8057 14.6405
3 3 23 1.4611 -9.4025
3 3 24 1.6874 -6.9312
3 3 25 10.4499 -0.3075
3 3 26 -6.1735 -2.3564
3 3 27 14.2144 -4.4511
3 3 28 -14.5161 -6.3018
3 3 29 0.8822 -8.3812
3 3 30 -2.9280 -3.4672
3 3 31 -0.6843 19.6161
3 3 32 -3.6641 7.6262
3 3 33 7.6024 9.0188
3 3 34 -0.8520 7.7840
3 3 35 -1.5164 -2.0085
3 3 36 4.3404 10.7394
3 3 37 -15.1557 2.2709
3 3 38 -1.1605 6.2996
3 3 39 -0.1011 2.8357
3 3 40 0.6314 7.1030
3 3 41 6.5358 0.7533
3 3 42 5.6262 -8.3355
3 3 43 -0.3447 -6.8187
3 3 44 3.0319 -7.0467
3 3 45 3.4826 -9.2994
3 3 46 7.2327 3.9944
3 4 0 -3.7245 0.2458
3 4 1 57.6627 -17.3820
3 4 2 -16.2463 43.2337
3 4 3 -20.5949 17.1245
3 4 4 -7.3083 49.5892
3 4 5 -6.1140 -29.3063
3 4 6 15.0286 -15.8730
3 4 7 0.6560 4.4584
3 4 8 -0.8896 8.9204
3 4 9 -41.7111 -9.7799
3 4 10 10.8624 22.6359
3 4 11 -33.9319 -5.3392
3 4 12 -4.2627 0.8763
3 4 13 0.0654 -22.1352
3 4 14 15.8634 -12.1465
3 4 15 8.8282 -18.8590
3 4 16 -4.4389 -0.2393
3 4 17 -2.0460 20.1068
3 4 18 -4.6792 8.3508
3 4 19 9.6318 -11.7799
3 4 20 -0.1881 -2.7457
3 4 21 11.6395 -4.5250
3 4 22 1.3753 0.6825
3 4 23 6.1867 -1.7594
3 4 24 1.4932 -15.0426
3 4 25 2.8445 15.8200
3 4 26 -4.1674 -4.0652
3 4 27 -0.0911 -1.6018
3 4 28 9.5609 2.3166
3 4 29 -1.3464 -0.4693
3 4 30 -2.2393 -2.1727
3 4 31 1.9752 9.0179
3 4 32 -3.4594 3.8727
3 4 33 13.7574 -4.1263
3 4 34 7.3831 12.2838
3 4 35 6.2497 -9.7278
3 4 36 -0.6293 -1.0721
3 4 37 9.9118 1.8665
3 4 38 -1.5812 -1.3016
3 4 39 3.1566 3.1194
3 4 40 3.7961 8.6116
3 4 41 2.1294 -3.1994
3 4 42 -4.0427 0.3744
3 4 43 8.2696 -2.8440
3 4 44 1.1669 -2.5303
3 4 45 1.1839 0.8836
3 4 46 -1.8172 -4.5596
3 5 0 3.2036 -13.3828
3 5 1 45.7822 -34.3891
3 5 2 -32.8693 -36.3135
3 5 3 11.6568 -32.1402
3 5 4 2.9540 -13.6601
3 5 5 31.7558 20.8080
3 5 6 15.8382 22.2199
3 5 7 11.8947 -18.6048
3 5 8 -44.1643 15.5734
3 5 9 5.6367 -19.1312
3 5 10 -4.3464 7.1620
3 5 11 4.7346 2.9822
3 5 12 -21.4625 17.3240
3 5 13 7.6157 -0.4303
3 5 14 1.9353 2.8143
3 5 15 -18.6023 -7.9956
3 5 16 -27.0230 -10.8550
3 5 17 -6.2895 -9.3317
3 5 18 3.1664 -1.6802
3 5 19 17.1899 9.9086
3 5 20 -1.8998 -3.8172
3 5 21 -2.3840 -2.6358
3 5 22 7.3235 -8.1686
3 5 23 -13.0109 1.6100
3 5 24 -4.5134 -0.4275
3 5 25 2.0421 -4.9033
3 5 26 -4.4793 0.0631
3 5 27 5.4412 -4.0917
3 5 28 8.4578 -5.8860
3 5 29 -5.8355 1.1369
3 5 30 -2.1852 -9.6747
3 5 31 9.7137 -0.7045
3 5 32 -12.3161 -2.3004
3 5 33 7.2135 -1.8560
3 5 34 6.2239 -9.5962
3 5 35 -2.1965 2.5367
3 5 36 5.2827 -6.9641
3 5 37 -0.1934 -4.2118
3 5 38 -7.1958 0.0185
3 5 39 7.7321 2.4413
3 5 40 -1.9264 -8.1754
3 5 41 -0.8979 3.7512
3 5 42 0.6661 -2.5619
3 5 43 -4.0028 1.0333
3 5 44 8.5394 5.1981
3 5 45 -4.7514 -10.1636
3 6 0 -9.0982 -36.4122
3 6 1 -8.7362 -20.0816
3 6 2 16.1416 -44.3562
3 6 3 -26.6676 -11.4812
3 6 4 -43.1180 6.7905
3 6 5 -17.6208 21.8549
3 6 6 -24.3065 -16.9506
3 6 7 15.6763 -12.4655
3 6 8 15.1761 -16.5469
3 6 9 5.2237 9.2944
3 6 10 -12.8390 0.5188
3 6 11 5.2295 17.6023
3 6 12 -7.0886 12.1060
3 6 13 1.7145 5.3235
3 6 14 0.8833 4.5115
3 6 15 2.6557 4.1727
3 6 16 -1.0688 -3.6372
3 6 17 -9.6005 15.3185
3 6 18 -4.7732 10.3833
3 6 19 -3.6208 10.2570
3 6 20 1.1205 -0.9067
3 6 21 -0.0473 -15.3114
3 6 22 -2.0265 -8.5372
3 6 23 0.7433 4.4961
3 6 24 -4.3624 -7.0163
3 6 25 0.3376 -1.4606
3 6 26 5.3567 11.9703
3 6 27 0.0510 -3.4437
3 6 28 1.0375 -5.7952
3 6 29 -3.1782 5.4909
3 6 30 -3.0862 -6.6153
3 6 31 -4.9327 2.2382
3 6 32 4.3048 4.0910
3 6 33 -4.3991 -8.9563
3 6 34 -2.9193 6.6975
3 6 35 -2.2579 0.6519
3 6 36 -5.8641 -9.1042
3 6 37 -2.5213 1.4450
3 6 38 5.0655 -5.5333
3 6 39 -9.0362 -1.2283
3 6 40 1.9573 1.1663
3 6 41 6.0907 -6.7461
3 6 42 -3.5785 6.3127
3 6 43 -0.5438 -1.3509
3 6 44 -7.9661 3.1746
3 7 0 0.0613 38.4767
3 7 1 -8.2461 13.0919
3 7 2 -12.0828 2.2129
3 7 3 -15.3293 6.9827
3 7 4 -35.1475 -9.3454
3 7 5 -12.6374 6.1829
3 7 6 5.4950 31.8907
3 7 7 14.5346 19.1462
3 7 8 9.3301 6.5593
3 7 9 -12.5123 -0.4893
3 7 10 -15.6798 -15.1535
3 7 11 10.7407 -5.7309
3 7 12 6.8184 3.3920
3 7 13 5.7398 4.0140
3 7 14 16.4166 3.3932
3 7 15 5.0955 -3.5857
3 7 16 6.4086 -1.0057
3 7 17 -8.1509 2.2159
3 7 18 -0.1833 -3.1613
3 7 19 10.9718 1.3125
3 7 20 9.9730 -0.5409
3 7 21 -8.3471 5.0034
3 7 22 -0.6982 -0.7570
3 7 23 3.2928 -2.6320
3 7 24 -15.9174 -0.8227
3 7 25 -5.0331 -0.4280
3 7 26 -0.8985 -2.8075
3 7 27 -5.7791 0.4134
3 7 28 -1.5265 1.4559
3 7 29 -0.0012 -9.9403
3 7 30 -7.9915 -5.2162
3 7 31 11.3222 -3.4297
3 7 32 -2.3695 2.1414
3 7 33 -1.2066 2.3018
3 7 34 -0.5361 -7.2945
3 7 35 -5.4220 -2.4655
3 7 36 1.7944 7.2228
3 7 37 2.3436 -3.0307
3 7 38 -7.6150 2.1811
3 7 39 -5.1732 1.4016
3 7 40 -6.5532 2.6236
3 7 41 -0.7165 4.7655
3 7 42 1.0629 -6.1148
3 7 43 -4.7898 -1.8449
3 7 44 2.5560 -1.3143
3 8 0 0.1019 -12.2381
3 8 1 -2.2602 16.1253
3 8 2 16.0326 -11.5069
3 8 3 29.7484 10.1786
3 8 4 -1.6622 -1.0338
3 8 5 4.2179 14.5375
3 8 6 -8.4292 20.2837
3 8 7 5.1300 17.3569
3 8 8 10.5788 -15.8991
3 8 9 13.6574 -4.2850
3 8 10 2.6957 -12.0602
3 8 11 -5.5420 0.4226
3 8 12 -12.3171 11.9765
3 8 13 -4.8223 -6.9093
3 8 14 0.9232 -2.7905
3 8 15 0.9392 -13.6312
3 8 16 2.4739 -5.0618
3 8 17 -7.9111 -0.2794
3 8 18 -2.3691 5.7812
3 8 19 -6.0440 -5.9837
3 8 20 -2.4635 1.1782
3 8 21 0.4879 5.0407
3 8 22 -2.8574 -7.1603
3 8 23 -2.0432 5.9717
3 8 24 7.3055 7.3972
3 8 25 -2.3095 -3.4970
3 8 26 -13.0815 -1.2802
3 8 27 -2.0291 12.9480
3 8 28 1.2396 2.0219
3 8 29 5.8067 11.1768
3 8 30 -0.5475 1.7801
3 8 31 -10.3212 7.1615
3 8 32 -8.8978 2.7400
3 8 33 -5.8382 -6.6829
3 8 34 -1.8086 -5.7320
3 8 35 4.9345 8.0214
3 8 36 -8.3840 1.0272
3 8 37 -0.6760 0.6469
3 8 38 -0.3091 1.7805
3 8 39 0.1908 -3.3329
3 8 40 -2.8196 10.3164
3 8 41 2.9344 4.2636
3 8 42 4.1287 6.0231
3 9 0 10.6760 -10.9438
3 9 1 -13.0029 14.6826
3 9 2 -1.4028 -6.1153
3 9 3 -1.6417 1.7590
3 9 4 9.8388 -17.0639
3 9 5 -4.9173 -6.8900
3 9 6 12.1283 -11.0479
3 9 7 -1.3609 1.2781
3 9 8 18.1642 3.3478
3 9 9 10.6374 0.9179
3 9 10 -10.9173 -3.3715
3 9 11 -6.5083 -4.5261
3 9 12 -11.5490 1.8104
3 9 13 5.5089 10.9740
3 9 14 1.9429 11.8826
3 9 15 4.5921 6.1562
3 9 16 -8.4360 3.1570
3 9 17 1.6566 -2.1692
3 9 18 -4.3692 2.3097
3 9 19 1.1599 13.8639
3 9 20 10.9673 4.3385
3 9 21 -0.5936 -0.7705
3 9 22 -7.3274 6.9650
3 9 23 8.0836 0.3623
3 9 24 11.9129 -3.5607
3 9 25 -0.0679 2.5547
3 9 26 1.6276 -3.5990
3 9 27 -1.9549 0.1203
3 9 28 2.4322 8.9154
3 9 29 0.9104 6.3679
3 9 30 4.1667 -0.6505
3 9 31 9.3263 -13.6888
3 9 32 9.7373 -5.4932
3 9 33 -0.2192 14.3305
3 9 34 6.7947 2.5009
3 9 35 -0.8750 3.1125
3 9 36 -9.9715 -3.1275
3 9 37 6.2061 0.9786
3 9 38 -3.7055 -2.6391
3 9 39 3.9090 4.1919
3 9 40 -2.2261 -5.4283
3 9 41 -1.0757 7.2095
3 10 0 -2.6082 9.1885
3 10 1 -13.9713 -7.2679
3 10 2 -3.6714 1.8450
3 10 3 -2.3806 -1.2550
3 10 4 4.3456 10.0720
3 10 5 -1.3666 -9.0605
3 10 6 -6.5922 -2.2615
3 10 7 -3.4906 -3.6348
3 10 8 -4.4312 -4.7146
3 10 9 0.4269 -2.2018
3 10 10 1.2296 -11.6890
3 10 11 0.5231 -3.9541
3 10 12 8.1632 0.0941
3 10 13 -2.5295 18.2831
3 10 14 6.3959 -2.8925
3 10 15 9.2518 3.7888
3 10 16 18.3907 -9.8697
3 10 17 1.9788 -10.0508
3 10 18 8.2783 2.6003
3 10 19 4.0134 1.2996
3 10 20 1.1636 -6.7081
3 10 21 9.9010 -0.1988
3 10 22 8.1915 -3.5999
3 10 23 -6.1416 -6.7182
3 10 24 -4.2792 -0.9215
3 10 25 4.2078 -1.6982
3 10 26 -1.8774 -10.7433
3 10 27 -1.4547 -7.3892
3 10 28 -12.4242 -1.3618
3 10 29 4.1696 4.7361
3 10 30 7.4320 -0.1319
3 10 31 -1.9563 -4.2936
3 10 32 0.9433 3.2041
3 10 33 -11.2017 0.4208
3 10 34 -11.0128 -13.8630
3 10 35 -0.5917 -1.4143
3 10 36 4.8299 -8.5213
3 10 37 -8.4525 4.8873
3 10 38 -0.1375 4.8396
3 10 39 -6.7956 3.1981
3 10 40 2.0453 1.4935
3 11 0 5.2149 -3.0391
3 11 1 9.0953 1.4664
3 11 2 10.4530 2.8788
3 11 3 7.5132 8.9492
3 11 4 -7.7275 0.4585
3 11 5 4.8814 2.2746
3 11 6 1.7372 -2.3511
3 11 7 -2.1379 0.1384
3 11 8 -4.7523 -1.5634
3 11 9 -0.6193 -2.9469
3 11 10 3.8455 9.2377
3 11 11 -15.3626 -7.5849
3 11 12 7.4608 3.7322
3 11 13 -9.7339 -13.0709
3 11 14 1.4720 1.6982
3 11 15 14.8733 -13.9879
3 11 16 -0.3825 3.2220
3 11 17 -2.4225 -7.5426
3 11 18 -5.0782 -12.5094
3 11 19 -13.9800 -12.6731
3 11 20 -4.2011 -2.7691
3 11 21 5.5654 -5.8954
3 11 22 -3.0036 -5.7054
3 11 23 -6.3057 2.2529
3 11 24 -1.4468 -6.6582
3 11 25 -5.9737 9.8594
3 11 26 -0.7810 -0.4510
3 11 27 -6.3436 7.5808
3 11 28 -4.8106 -1.4346
3 11 29 -5.6635 3.1490
3 11 30 -3.8206 13.4892
3 11 31 -5.4558 7.1960
3 11 32 9.8971 -11.6490
3 11 33 -3.0718 -3.0905
3 11 34 5.5865 7.1729
3 11 35 1.3144 9.2406
3 11 36 -3.2286 11.4554
3 11 37 -9.0697 6.3604
3 11 38 -4.1059 6.6232
3 12 0 8.4819 12.3289
3 12 1 -6.3103 8.7652
3 12 2 -1.0002 -17.2104
3 12 3 -4.9179 -7.7624
3 12 4 1.7404 -16.8707
3 12 5 -1.6246 -7.3588
3 12 6 -0.8192 -7.7528
3 12 7 1.5666 0.5763
3 12 8 -8.4198 3.3119
3 12 9 3.9190 -13.0136
3 12 10 -9.2002 14.1426
3 12 11 8.7141 -6.1981
3 12 12 -9.8340 -5.7946
3 12 13 10.0507 10.5843
3 12 14 -12.4285 -7.0124
3 12 15 -5.1691 -1.6451
3 12 16 -11.0934 2.7437
3 12 17 0.1811 -4.9724
3 12 18 -1.6447 -3.3006
3 12 19 2.7417 3.1121
3 12 20 -5.5788 0.3188
3 12 21 -19.4069 10.0503
3 12 22 0.7524 5.3330
3 12 23 -4.8958 -5.9878
3 12 24 6.1190 2.3691
3 12 25 -7.1166 3.7186
3 12 26 4.7932 5.8697
3 12 27 0.5558 3.2566
3 12 28 5.5882 2.9279
3 12 29 -2.8252 -3.3489
3 12 30 9.7429 14.9596
3 12 31 5.5297 -0.0724
3 12 32 9.2962 3.5320
3 12 33 1.9495 4.6481
3 12 34 -1.3182 -1.3168
3 12 35 -10.4281 -6.0815
3 12 36 3.3079 -3.4453
3 13 0 9.4964 4.7670
3 13 1 -6.3283 -3.2609
3 13 2 8.5569 3.2699
3 13 3 0.3750 0.7123
3 13 4 0.4962 7.1180
3 13 5 -15.1392 7.7043
3 13 6 -17.5583 1.1437
3 13 7 0.5200 4.7145
3 13 8 -19.8557 2.2932
3 13 9 -1.8609 12.5020
3 13 10 7.7089 -3.8388
3 13 11 -11.0011 9.8139
3 13 12 0.8152 -8.4826
3 13 13 6.5535 4.2144
3 13 14 -5.0337 -2.5029
3 13 15 -3.8534 4.0127
3 13 16 -7.8940 2.5831
3 13 17 -3.6137 9.4095
3 13 18 6.7805 8.1073
3 13 19 0.7401 -4.7300
3 13 20 -0.0447 -1.6398
3 13 21 -1.8325 -9.8085
3 13 22 -0.7764 8.9098
3 13 23 3.6512 6.4939
3 13 24 5.8054 10.3400
3 13 25 -2.7156 -11.5113
3 13 26 0.3229 0.8567
3 13 27 11.0902 -2.5341
3 13 28 -1.6012 8.3950
3 13 29 6.7035 -1.3847
3 13 30 3.7249 -0.6778
3 13 31 -0.8338 -3.3281
3 13 32 7.8211 2.1953
3 13 33 3.6583 -13.6149
3 13 34 1.0859 -4.8539
3 14 0 3.1830 5.7053
3 14 1 9.5804 -2.8183
3 14 2 -1.5488 6.3734
3 14 3 3.1984 -3.2758
3 14 4 1.5054 -0.7259
3 14 5 7.3236 12.1801
3 14 6 4.7381 -8.2517
3 14 7 4.2563 -1.4586
3 14 8 6.1383 19.9346
3 14 9 -1.2913 5.7180
3 14 10 9.9926 0.2265
3 14 11 6.7800 14.1025
3 14 12 7.8948 -8.2228
3 14 13 -2.8568 1.4970
3 14 14 -7.6468 0.2745
3 14 15 -0.3182 -1.6667
3 14 16 3.7261 -3.5723
3 14 17 1.0432 9.3273
3 14 18 -1.9554 14.5859
3 14 19 7.6404 -1.4130
3 14 20 2.5573 -6.2535
3 14 21 -2.3595 -10.9732
3 14 22 -13.3464 6.8042
3 14 23 0.6765 -2.2767
3 14 24 -1.1078 -1.1139
3 14 25 9.8626 -0.1851
3 14 26 0.4549 -5.3769
3 14 27 -5.2983 -3.2157
3 14 28 -2.9409 -0.6123
3 14 29 2.1056 -10.7699
3 14 30 4.6123 -0.0252
3 14 31 5.7376 -6.6545
3 15 0 6.3949 -12.1224
3 15 1 15.3853 0.7766
3 15 2 6.4727 -10.3483
3 15 3 -8.6310 -2.0490
3 15 4 5.1895 -4.3528
3 15 5 12.8218 0.4018
3 15 6 -2.8242 -2.3049
3 15 7 4.1480 -1.5834
3 15 8 8.8386 -6.6835
3 15 9 -22.0508 -1.0253
3 15 10 13.7317 4.2368
3 15 11 10.6257 2.5871
3 15 12 -0.3082 -8.5025
3 15 13 -7.3668 -6.6152
3 15 14 3.5768 -2.1604
3 15 15 -3.4551 3.0008
3 15 16 -5.0024 8.5651
3 15 17 1.7249 3.6169
3 15 18 -5.5208 -0.2249
3 15 19 16.7877 -3.7665
3 15 20 1.6232 5.3332
3 15 21 6.7040 3.6200
3 15 22 -8.2607 -5.2974
3 15 23 -7.7061 3.0706
3 15 24 -1.4377 13.1087
3 15 25 3.9922 0.4177
3 15 26 -9.8262 1.3226
3 15 27 2.8904 -11.1057
3 15 28 -6.4000 5.4296
3 16 0 4.2068 0.7069
3 16 1 -7.6660 -13.5778
3 16 2 -7.9306 -11.1158
3 16 3 -4.6069 -7.6674
3 16 4 -1.1971 -12.5885
3 16 5 -8.9980 -1.6562
3 16 6 2.2727 15.8229
3 16 7 -0.1862 -24.6209
3 16 8 3.0430 -3.0425
3 16 9 0.6943 4.8935
3 16 10 0.5987 1.9701
3 16 11 0.5053 3.5031
3 16 12 8.4673 1.3933
3 16 13 11.6546 -8.1360
3 16 14 -2.8855 -2.5283
3 16 15 -5.6966 14.4177
3 16 16 -6.1409 -1.7846
3 16 17 17.6121 10.2641
3 16 18 1.9315 -5.7206
3 16 19 3.1792 8.7810
3 16 20 4.5158 -3.5928
3 16 21 5.4869 -10.0220
3 16 22 -4.3962 -6.8062
3 16 23 13.1234 3.9283
3 16 24 -9.0232 -5.6089
3 17 0 -4.8622 -5.7928
3 17 1 -1.7079 1.6121
3 17 2 -1.3470 2.3469
3 17 3 1.4849 0.4443
3 17 4 -26.1680 7.0432
3 17 5 2.2514 3.5931
3 17 6 -4.8147 2.5756
3 17 7 -6.8761 3.1040
3 17 8 9.3082 2.1014
3 17 9 -5.3181 -3.8434
3 17 10 -6.5420 -9.2039
3 17 11 -0.6615 -0.7288
3 17 12 13.5439 -2.9948
3 17 13 -1.0931 -2.1218
3 17 14 2.0908 -16.9084
3 17 15 -11.3318 -1.4267
3 17 16 7.3696 -10.3355
3 17 17 2.7317 4.7198
3 17 18 6.2998 4.2453
3 17 19 7.2189 -6.7389
3 17 20 1.4649 -20.0018
3 18 0 4.7878 -8.7392
3 18 1 -0.3709 11.5779
3 18 2 -0.7119 -12.0028
3 18 3 -5.0022 10.8372
3 18 4 1.5303 5.2533
3 18 5 3.7041 -7.3333
3 18 6 1.7434 13.5540
3 18 7 -1.0058 3.9231
3 18 8 7.3375 4.4043
3 18 9 -1.5717 -8.2344
3 18 10 3.6487 2.8398
3 18 11 -5.4050 -2.1437
3 18 12 -5.3577 4.9595
3 18 13 -9.2038 -5.8996
4 0 0 9.6810 -4.4663
4 0 1 -4.5397 22.6280
4 0 2 -7.6013 -9.3792
4 0 3 5.5064 36.4558
4 0 4 24.1470 -7.9904
4 0 5 2.3214 40.3710
4 0 6 -27.8488 8.6317
4 0 7 -15.4667 -21.7358
4 0 8 0.3221 18.4706
4 0 9 -13.1703 -20.0807
4 0 10 -25.1160 4.5514
4 0 11 3.9569 -3.0106
4 0 12 -23.9111 -7.8088
4 0 13 8.0117 4.2252
4 0 14 20.6314 -3.7995
4 0 15 0.4692 -16.2466
4 0 16 23.7859 -6.7977
4 0 17 2.0701 14.3207
4 0 18 13.6067 -9.2514
4 0 19 9.0400 6.3048
4 0 20 10.5568 0.2387
4 0 21 1.8132 -0.6641
4 0 22 23.8624 10.0779
4 0 23 -11.2886 -19.0622
4 0 24 -8.3644 11.6849
4 0 25 -10.3690 1.4512
4 0 26 6.1633 6.4860
4 0 27 1.5157 -12.4488
4 0 28 -7.7121 -1.6609
4 0 29 7.2438 -20.1618
4 0 30 -8.4194 -10.0629
4 0 31 2.4352 2.6617
4 0 32 -11.0045 -6.8474
4 0 33 -0.0920 -3.4606
4 0 34 2.1935 -0.6841
4 0 35 5.5642 7.1823
4 0 36 -2.0695 -2.3054
4 0 37 2.8828 7.0238
4 0 38 -14.7590 2.8586
4 0 39 -9.6348 -0.3977
4 0 40 -5.6803 13.5134
4 0 41 -11.2983 2.9479
4 0 42 -12.5904 7.6551
4 0 43 3.5201 -5.0855
4 0 44 -4.5888 -7.4685
4 0 45 8.1657 10.2818
4 0 46 -7.3689 -7.5684
4 1 0 16.7913 2.9408
4 1 1 -8.9825 5.5706
4 1 2 31.6772 -2.0797
4 1 3 -20.4577 0.1892
4 1 4 1.0417 -4.0154
4 1 5 22.3323 -9.2746
4 1 6 -8.8664 -17.1102
4 1 7 19.2024 -7.7351
4 1 8 0.8257 1.6692
4 1 9 -5.5453 52.6061
4 1 10 10.0991 -27.6137
4 1 11 -12.9668 9.3414
4 1 12 -13.0581 12.9852
4 1 13 -0.1955 -2.2694
4 1 14 3.6474 2.6752
4 1 15 -11.7623 -27.2780
4 1 16 15.3273 2.9404
4 1 17 -13.0567 -12.2478
4 1 18 -0.4095 -8.3639
4 1 19 4.1912 -29.3777
4 1 20 -16.9902 9.2981
4 1 21 6.9445 -18.3182
4 1 22 -10.4031 -2.2777
4 1 23 6.3181 -16.3273
4 1 24 -1.5055 3.8089
4 1 25 8.3799 7.6294
4 1 26 -9.0817 3.9758
4 1 27 14.7423 17.3517
4 1 28 9.4909 -8.6485
4 1 29 -8.1362 9.6234
4 1 30 -3.0514 -1.1352
4 1 31 -7.8571 1.8737
4 1 32 -7.1546 1.6230
4 1 33 -5.0277 1.9530
4 1 34 3.0235 -0.3159
4 1 35 -10.1886 14.1720
4 1 36 -4.7413 -8.1163
4 1 37 3.2656 -12.6118
4 1 38 0.8186 0.9811
4 1 39 3.6889 -7.8702
4 1 40 -4.1229 7.3003
4 1 41 0.9440 18.3630
4 1 42 14.4281 6.4475
4 1 43 -8.9420 20.0094
4 1 44 8.7746 0.1633
4 1 45 -0.1902 4.4287
4 1 46 -5.3808 -0.9027
4 2 0 15.3241 -11.6795
4 2 1 16.4242 -21.0665
4 2 2 -4.4246 4.1922
4 2 3 -10.8481 5.7216
4 2 4 -6.7866 -13.7918
4 2 5 6.4287 10.8226
4 2 6 17.0339 17.2418
4 2 7 -56.7426 -8.4230
4 2 8 19.4199 9.4419
4 2 9 -13.7598 -6.0703
4 2 10 7.3292 5.6393
4 2 11 13.4087 0.1323
4 2 12 -2.9346 5.4319
4 2 13 7.4888 -7.1455
4 2 14 -17.5324 32.3762
4 2 15 9.4225 -9.2922
4 2 16 -22.6030 -5.9546
4 2 17 0.6542 0.1915
4 2 18 -21.9484 -10.0063
4 2 19 8.0715 1.5556
4 2 20 -22.3530 1.7152
4 2 21 -9.4028 0.3705
4 2 22 -16.1325 11.9259
4 2 23 0.2273 16.1807
4 2 24 1.7297 -8.5388
4 2 25 -18.4723 5.6408
4 2 26 9.8542 1.0635
4 2 27 3.4830 -10.9202
4 2 28 10.8407 0.9847
4 2 29 6.9565 -4.8328
4 2 30 3.0780 -12.9530
4 2 31 5.0227 -2.6453
4 2 32 7.5392 5.8909
4 2 33 -4.2314 0.0051
4 2 34 0.1452 3.6162
4 2 35 6.8024 1.4248
4 2 36 -5.5650 2.9561
4 2 37 13.4447 9.4578
4 2 38 -6.0936 4.9455
4 2 39 -11.0007 -3.6143
4 2 40 -7.9887 7.3988
4 2 41 -10.9188 -13.3865
4 2 42 12.9237 7.6508
4 2 43 7.1162 2.1736
4 2 44 8.0965 -6.5715
4 2 45 12.0410 -0.8425
4 2 46 3.4550 3.7522
4 3 0 -15.5150 -6.0405
4 3 1 -19.8713 11.6071
4 3 2 -5.1220 -17.6886
4 3 3 1.0947 -10.7908
4 3 4 -15.3744 21.7554
4 3 5 13.9310 -15.3400
4 3 6 -2.6672 41.9245
4 3 7 16.9853 -18.8404
4 3 8 3.6369 -7.1715
4 3 9 8.3232 15.4658
4 3 10 -3.6429 19.3777
4 3 11 22.6980 -5.6500
4 3 12 -14.1573 -19.4965
4 3 13 17.2358 17.2206
4 3 14 4.0789 -3.9737
4 3 15 1.8358 9.8546
4 3 16 7.9961 -9.9615
4 3 17 6.4499 15.9492
4 3 18 -24.8347 7.1174
4 3 19 6.0904 11.6849
4 3 20 -11.7020 -5.5341
4 3 21 -4.4643 11.3325
4 3 22 9.6100 17.0234
4 3 23 -0.3258 1.6009
4 3 24 5.8098 8.2332
4 3 25 18.6589 -2.5236
4 3 26 -2.2284 0.3649
4 3 27 -3.4085 6.4852
4 3 28 6.1843 0.5041
4 3 29 -5.0181 -7.7128
4 3 30 -2.2989 -8.1078
4 3 31 0.1081 -3.6163
4 3 32 -10.0747 -11.7879
4 3 33 -3.1181 2.5917
4 3 34 1.1862 -10.7095
4 3 35 -1.8375 6.3785
4 3 36 -1.1084 -3.4536
4 3 37 3.3239 2.4652
4 3 38 -4.7118 -3.4829
4 3 39 15.0855 -5.2456
4 3 40 1.0166 7.4869
4 3 41 -3.3032 3.2540
4 3 42 2.4759 7.1427
4 3 43 -3.8867 10.6212
4 3 44 -7.3202 -1.1140
4 3 45 6.8207 -6.8482
4 3 46 0.5631 -3.7767
4 4 0 14.7427 -10.7561
4 4 1 21.1384 -5.1191
4 4 2 18.1560 -10.1565
4 4 3 25.3222 26.3076
4 4 4 -32.5454 0.7448
4 4 5 5.4038 3.1635
4 4 6 15.4232 1.9092
4 4 7 19.5199 3.5511
4 4 8 -8.2141 -10.9540
4 4 9 12.9422 4.1855
4 4 10 -1.5151 -18.7554
4 4 11 -3.9892 14.7574
4 4 12 5.8775 -3.6318
4 4 13 -3.4625 -14.7552
4 4 14 -2.1844 -10.0549
4 4 15 6.6723 9.2197
4 4 16 8.1053 -27.7296
4 4 17 -0.1350 13.0190
4 4 18 -2.0092 -10.5950
4 4 19 -2.9046 7.1224
4 4 20 7.9769 15.7619
4 4 21 9.2346 6.2799
4 4 22 -1.2626 -1.6100
4 4 23 3.0686 10.7804
4 4 24 10.4569 -5.9148
4 4 25 2.0912 -4.3526
4 4 26 -7.5454 1.7721
4 4 27 -2.3376 -9.7077
4 4 28 5.5515 -1.7265
4 4 29 -4.3507 6.2362
4 4 30 9.3593 -5.4372
4 4 31 -11.8124 -1.7894
4 4 32 -1.1128 -0.0197
4 4 33 -7.9007 -0.7581
4 4 34 -1.3220 2.8405
4 4 35 -5.4148 2.7738
4 4 36 0.1965 -5.7049
4 4 37 0.9398 7.0833
4 4 38 -1.5729 3.9239
4 4 39 4.6297 -0.3471
4 4 40 1.5119 2.4312
4 4 41 -3.7145 -1.1183
4 4 42 -0.6919 -6.3479
4 4 43 6.2977 -0.3488
4 4 44 3.2636 2.4764
4 4 45 5.5839 6.1991
4 5 0 13.4693 5.9272
4 5 1 -19.5935 2.3021
4 5 2 -9.3613 -15.4490
4 5 3 -4.1319 -16.9974
4 5 4 -5.3848 -36.6543
4 5 5 12.7529 -8.5135
4 5 6 4.8886 -15.6812
4 5 7 2.5905 24.9198
4 5 8 16.3738 -17.9801
4 5 9 -8.3149 -16.4071
4 5 10 0.2931 -9.0474
4 5 11 6.0977 13.9923
4 5 12 3.4697 -12.4471
4 5 13 -8.6924 5.1800
4 5 14 18.4815 3.8535
4 5 15 -22.1034 11.9240
4 5 16 -1.2873 -4.9757
4 5 17 -4.3235 -13.3781
4 5 18 -4.7580 -3.0982
4 5 19 -5.1803 10.2933
4 5 20 8.0639 8.0496
4 5 21 -0.7979 -3.4441
4 5 22 15.4780 -3.4223
4 5 23 10.0206 2.2521
4 5 24 -0.3647 -6.1236
4 5 25 6.1310 -3.5396
4 5 26 6.0962 4.4307
4 5 27 -4.1014 -3.7652
4 5 28 3.2650 11.6122
4 5 29 0.9970 -2.2663
4 5 30 1.3408 0.2103
4 5 31 3.9142 -1.0830
4 5 32 -2.8321 2.9201
4 5 33 -6.0454 -0.1923
4 5 34 1.3316 0.1062
4 5 35 -1.7590 5.2414
4 5 36 -2.7004 -0.8077
4 5 37 -2.9782 0.9273
4 5 38 0.2443 0.7347
4 5 39 0.0752 -2.6915
4 5 40 5.8570 -4.7072
4 5 41 7.1174 1.6020
4 5 42 2.1563 -6.0345
4 5 43 2.2396 0.9321
4 5 44 -2.2337 1.2863
4 5 45 -7.5769 2.7399
4 6 0 -6.4544 1.5152
4 6 1 -16.1711 -1.8333
4 6 2 10.1720 -16.2851
4 6 3 -9.0072 20.7543
4 6 4 11.1696 -0.5780
4 6 5 -40.3225 6.9566
4 6 6 -23.9181 2.6454
4 6 7 -15.8406 -12.3223
4 6 8 4.9269 -5.8681
4 6 9 -13.7734 -2.5209
4 6 10 14.0461 -12.3992
4 6 11 -16.1213 -10.1266
4 6 12 -0.8974 12.5748
4 6 13 -2.4588 -10.3835
4 6 14 1.3409 -3.3534
4 6 15 2.5294 0.2607
4 6 16 10.5366 3.0261
4 6 17 3.5557 -0.5723
4 6 18 -1.5411 9.9591
4 6 19 -3.4046 -6.6499
4 6 20 3.3443 4.4036
4 6 21 3.6333 4.2655
4 6 22 12.7251 -6.2035
4 6 23 0.8188 -5.1106
4 6 24 -7.6632 -1.7120
4 6 25 4.6744 -12.5567
4 6 26 -0.4159 -6.2345
4 6 27 -3.7356 -6.0378
4 6 28 -0.4386 -8.1545
4 6 29 5.2376 0.8989
4 6 30 -0.3530 -1.2198
4 6 31 0.1159 -6.7906
4 6 32 4.8483 -3.4015
4 6 33 -3.2163 -2.1388
4 6 34 4.7697 3.8465
4 6 35 -0.9415 1.3275
4 6 36 -3.1569 3.9677
4 6 37 2.0684 -2.6520
4 6 38 2.0811 3.4765
4 6 39 -6.0803 6.7203
4 6 40 1.0643 -3.9907
4 6 41 -4.9391 0.5814
4 6 42 -2.0287 -0.3591
4 6 43 -2.8929 -6.6738
4 6 44 0.6553 -7.3397
4 7 0 30.3704 5.1236
4 7 1 -11.0833 -15.5149
4 7 2 8.3986 15.9466
4 7 3 -11.6757 6.7721
4 7 4 -7.1296 9.1730
4 7 5 2.1095 3.4461
4 7 6 1.7215 2.8948
4 7 7 -7.3827 7.3442
4 7 8 4.1252 37.6457
4 7 9 -3.8635 3.6393
4 7 10 -14.7967 -1.5783
4 7 11 -3.6495 0.4722
4 7 12 -6.1070 1.1537
4 7 13 -5.6779 0.1642
4 7 14 0.8041 1.5876
4 7 15 7.2265 -1.3656
4 7 16 -6.4681 6.1098
4 7 17 6.2009 -5.0625
4 7 18 1.6326 -8.3057
4 7 19 -1.1408 -10.3731
4 7 20 5.6368 6.0497
4 7 21 -2.4894 -1.3123
4 7 22 -7.4470 -11.7653
4 7 23 4.9270 -4.5821
4 7 24 -0.9529 3.5399
4 7 25 -4.4549 -7.0530
4 7 26 3.3551 -6.3331
4 7 27 -5.8227 6.5326
4 7 28 -8.8981 -1.3551
4 7 29 -6.8355 1.4667
4 7 30 -6.2628 4.6092
4 7 31 6.6131 -5.2578
4 7 32 -1.3225 2.5974
4 7 33 -2.0437 -0.5884
4 7 34 -7.9676 -4.0699
4 7 35 4.6113 -0.3814
4 7 36 4.1343 -0.4206
4 7 37 -1.0054 -3.3842
4 7 38 4.1813 1.3054
4 7 39 -0.8467 -1.0206
4 7 40 -0.1166 0.5667
4 7 41 -3.0135 3.4261
4 7 42 2.9228 3.1045
4 7 43 -0.5006 6.2720
4 8 0 -0.6617 7.1571
4 8 1 -2.2694 -12.9119
4 8 2 -4.9677 -15.5758
4 8 3 -10.5821 -3.2250
4 8 4 12.3951 12.0503
4 8 5 13.3019 2.2917
4 8 6 4.6348 16.5310
4 8 7 4.8523 8.0045
4 8 8 8.0319 2.0520
4 8 9 7.2015 9.2056
4 8 10 16.3993 0.7510
4 8 11 5.7811 2.8697
4 8 12 -0.3391 7.5899
4 8 13 -2.3200 11.6648
4 8 14 -4.2072 -0.3400
4 8 15 2.0876 1.4331
4 8 16 -0.6116 -2.4846
4 8 17 7.4740 -8.3262
4 8 18 -4.0381 3.7709
4 8 19 -4.6290 -4.3642
4 8 20 -4.3298 -6.2355
4 8 21 -4.1744 2.2931
4 8 22 -8.8563 -0.5414
4 8 23 3.3468 -3.8004
4 8 24 1.9061 8.3790
4 8 25 -15.0354 3.7132
4 8 26 4.4085 -1.0677
4 8 27 -3.9999 -1.5038
4 8 28 -8.8147 -10.9427
4 8 29 1.5280 6.9661
4 8 30 5.3910 0.8503
4 8 31 1.1300 7.5941
4 8 32 -0.1455 -5.8325
4 8 33 -3.9914 -3.4876
4 8 34 -0.7530 -5.5484
4 8 35 1.8915 0.0462
4 8 36 0.3227 2.5781
4 8 37 -3.9485 -3.7432
4 8 38 -0.2398 -5.2695
4 8 39 -6.4872 -4.3855
4 8 40 -0.5949 3.6931
4 8 41 -2.4277 -4.0445
4 8 42 4.9538 6.5856
4 9 0 12.0302 -1.8388
4 9 1 12.6507 -7.1228
4 9 2 -6.7824 3.8585
4 9 3 0.9201 -9.0969
4 9 4 -13.9220 5.7839
4 9 5 -1.8930 2.7166
4 9 6 9.7672 3.5550
4 9 7 7.2852 -15.3876
4 9 8 17.7724 -3.2651
4 9 9 9.7163 -3.3769
4 9 10 6.6289 -0.8462
4 9 11 3.1436 -15.0677
4 9 12 3.0322 -6.8443
4 9 13 3.1592 -2.4671
4 9 14 1.1170 -0.4754
4 9 15 10.6073 8.9502
4 9 16 -4.1733 -1.4475
4 9 17 2.6086 3.4210
4 9 18 -3.4670 -3.0521
4 9 19 -3.4128 -0.5552
4 9 20 -3.3563 -1.2748
4 9 21 4.6250 14.0538
4 9 22 -6.4505 9.6033
4 9 23 -4.2757 -9.8688
4 9 24 1.9646 9.0593
4 9 25 -4.6971 -0.4908
4 9 26 10.3326 -2.9968
4 9 27 -1.9246 2.5385
4 9 28 9.2595 10.7425
4 9 29 -10.0463 3.2657
4 9 30 -4.1770 3.8719
4 9 31 -8.0288 -2.5262
4 9 32 7.0580 -0.2384
4 9 33 -1.0880 0.9610
4 9 34 -6.2450 5.5161
4 9 35 -8.9449 1.0966
4 9 36 -0.3504 7.4000
4 9 37 -3.3612 -8.6964
4 9 38 -4.0026 -1.1352
4 9 39 -0.9225 1.3763
4 9 40 -6.1901 5.9261
4 9 41 0.3426 4.8702
4 10 0 -17.2571 7.6707
4 10 1 2.2636 12.3075
4 10 2 2.4890 -8.8682
4 10 3 4.9395 -8.4446
4 10 4 -9.4512 -0.5687
4 10 5 4.7855 4.9283
4 10 6 1.0812 10.9579
4 10 7 6.9203 0.8171
4 10 8 -4.8252 -3.6270
4 10 9 4.2944 -7.0623
4 10 10 -9.4727 -11.8829
4 10 11 5.0200 -5.5239
4 10 12 -0.4363 -6.4701
4 10 13 -10.5896 5.2116
4 10 14 -0.3881 -5.2188
4 10 15 -7.2339 7.6714
4 10 16 8.3398 -3.4573
4 10 17 1.4652 3.7060
4 10 18 8.0493 -5.8012
4 10 19 -3.4348 5.0393
4 10 20 3.0538 -3.1963
4 10 21 8.9423 -0.8587
4 10 22 4.0453 7.0084
4 10 23 10.6923 -4.6748
4 10 24 8.6190 6.7819
4 10 25 -0.8952 -4.1343
4 10 26 -6.2560 10.5023
4 10 27 2.0093 -6.1668
4 10 28 0.6767 2.0919
4 10 29 5.1313 -12.5990
4 10 30 2.8155 3.1912
4 10 31 8.0101 -0.5833
4 10 32 1.5257 5.6069
4 10 33 3.8331 -0.1832
4 10 34 -5.0261 5.6817
4 10 35 10.6507 -7.0734
4 10 36 4.3674 6.7319
4 10 37 3.5043 4.9829
4 10 38 1.0420 0.6084
4 10 39 -5.2604 2.8551
4 11 0 -2.3270 5.7563
4 11 1 4.5678 8.2095
4 11 2 12.9043 3.5485
4 11 3 3.5791 4.4527
4 11 4 1.1521 -8.5582
4 11 5 -2.0584 -5.9996
4 11 6 -0.7358 -5.4721
4 11 7 4.5693 5.7907
4 11 8 11.1229 -17.9507
4 11 9 5.0571 -0.2555
4 11 10 0.7253 -0.0907
4 11 11 -5.3070 1.4368
4 11 12 2.6722 3.1064
4 11 13 -7.9671 -9.5364
4 11 14 7.9503 5.2250
4 11 15 -4.1139 -7.7809
4 11 16 11.3126 4.9403
4 11 17 3.3016 -4.0214
4 11 18 8.3635 4.1686
4 11 19 4.3830 -5.9828
4 11 20 -4.1386 -1.4328
4 11 21 3.1591 -7.7480
4 11 22 -5.4146 -3.1145
4 11 23 4.7528 -12.8898
4 11 24 -4.2724 -10.8183
4 11 25 11.5236 -8.4812
4 11 26 -6.4947 -4.3025
4 11 27 5.0935 -0.7965
4 11 28 -5.2933 -1.0280
4 11 29 4.0269 4.6655
4 11 30 -3.9737 -3.9335
4 11 31 -2.9075 0.1416
4 11 32 -11.8688 -6.8517
4 11 33 7.8320 -1.8701
4 11 34 -3.9519 -5.5014
4 11 35 -1.8027 -6.1712
4 11 36 -2.1335 0.4872
4 11 37 -0.5864 -3.3507
4 12 0 3.2032 15.5422
4 12 1 -3.1818 5.5620
4 12 2 -1.5630 10.2422
4 12 3 11.8570 -0.9183
4 12 4 7.0386 -5.3282
4 12 5 -11.6811 -6.6243
4 12 6 3.7002 -3.5236
4 12 7 -7.3587 1.1220
4 12 8 -4.9437 -3.6897
4 12 9 -10.3298 -3.4878
4 12 10 -9.5114 -6.8581
4 12 11 -4.2836 -12.1957
4 12 12 -2.2411 4.8899
4 12 13 13.5938 -7.9147
4 12 14 -3.9904 0.3405
4 12 15 -0.2815 -3.2641
4 12 16 -9.2373 -1.4309
4 12 17 -1.3318 -3.3722
4 12 18 -11.6878 -9.4994
4 12 19 6.9581 -6.2251
4 12 20 -0.9199 -9.5491
4 12 21 7.6660 -3.0303
4 12 22 -7.9214 -8.4774
4 12 23 -3.8888 9.7257
4 12 24 -8.9356 -5.8103
4 12 25 -6.2819 4.2662
4 12 26 -9.5637 -6.2845
4 12 27 -10.3451 -1.0790
4 12 28 -0.8419 -1.3454
4 12 29 -5.7193 7.4864
4 12 30 -0.9303 -1.3300
4 12 31 2.3333 5.8699
4 12 32 -1.5681 1.0218
4 12 33 6.2799 2.7355
4 12 34 -6.4188 6.0610
4 12 35 -5.4469 6.1971
4 13 0 -0.1198 -9.5002
4 13 1 7.8614 5.7348
4 13 2 7.2635 -0.4163
4 13 3 9.5138 -5.3066
4 13 4 7.3105 6.6464
4 13 5 -2.0598 -3.7093
4 13 6 0.1811 -5.7929
4 13 7 -10.6297 -0.4651
4 13 8 -1.0795 7.1351
4 13 9 2.3477 -6.2932
4 13 10 -6.4091 6.7084
4 13 11 -1.5695 17.3273
4 13 12 -4.3628 6.0344
4 13 13 -5.5752 1.2013
4 13 14 -1.2639 -4.4394
4 13 15 -4.0340 -4.3183
4 13 16 -2.7504 -8.7620
4 13 17 -3.3601 6.8639
4 13 18 -0.9529 0.8623
4 13 19 -2.4932 15.3261
4 13 20 -2.9160 -1.3942
4 13 21 -13.4964 2.3278
4 13 22 4.0197 -8.9686
4 13 23 -11.4137 -1.6019
4 13 24 -5.9909 -1.2913
4 13 25 -1.1719 2.7966
4 13 26 4.5265 4.5552
4 13 27 -2.2076 0.6228
4 13 28 -1.9048 6.6159
4 13 29 -0.5837 9.8356
4 13 30 1.2942 -2.0472
4 13 31 10.0409 10.7636
4 13 32 2.9692 -2.4926
4 13 33 -1.3144 2.0835
4 14 0 6.2974 5.2214
4 14 1 5.6043 8.5297
4 14 2 -5.0736 -1.7534
4 14 3 -1.3161 -8.7715
4 14 4 8.4960 -0.8801
4 14 5 4.8451 -7.6709
4 14 6 -8.7112 1.3638
4 14 7 10.6498 2.4095
4 14 8 -4.7766 4.3532
4 14 9 -4.9283 5.6175
4 14 10 -4.4205 4.8604
4 14 11 3.5080 -4.1022
4 14 12 1.9912 3.5520
4 14 13 12.8021 3.0210
4 14 14 6.6250 1.4201
4 14 15 -6.2092 -2.9196
4 14 16 -0.8008 0.4094
4 14 17 -6.8718 9.5505
4 14 18 2.4927 0.2332
4 14 19 -5.4187 -5.6435
4 14 20 7.6616 12.2609
4 14 21 6.9843 -3.4097
4 14 22 5.1838 1.8256
4 14 23 -4.7671 3.5364
4 14 24 -3.5367 2.5452
4 14 25 0.3864 5.7433
4 14 26 -5.0163 7.0500
4 14 27 -4.9355 5.4893
4 14 28 4.0780 -4.0343
4 14 29 -3.4562 1.1760
4 14 30 8.9227 0.3946
4 15 0 2.0138 -2.4916
4 15 1 8.0948 -4.2444
4 15 2 6.9285 -1.4357
4 15 3 10.2501 2.3738
4 15 4 1.9352 -10.0325
4 15 5 -3.0209 7.6191
4 15 6 -2.2802 -7.7810
4 15 7 1.6482 -7.3780
4 15 8 -0.9042 -4.5034
4 15 9 8.0811 5.2556
4 15 10 6.3908 -7.4347
4 15 11 3.6439 8.4347
4 15 12 1.4351 8.7119
4 15 13 2.9365 -3.2626
4 15 14 3.3668 -6.0839
4 15 15 -6.9670 -6.9487
4 15 16 3.5249 0.0141
4 15 17 0.4454 0.1013
4 15 18 -9.6144 2.5777
4 15 19 12.9820 -0.8346
4 15 20 2.7456 1.2353
4 15 21 -4.7892 -2.1567
4 15 22 5.7580 -4.2799
4 15 23 6.2244 -3.3982
4 15 24 0.5567 -7.4309
4 15 25 -2.2160 2.5273
4 15 26 0.4874 1.4220
4 15 27 8.7577 -2.7663
4 16 0 9.1979 0.6823
4 16 1 -4.4611 5.6552
4 16 2 6.9286 3.6391
4 16 3 -10.7078 -11.0767
4 16 4 -3.3411 -9.8984
4 16 5 7.0218 -7.0403
4 16 6 -0.0529 -7.1202
4 16 7 -9.0640 -1.5397
4 16 8 2.6550 4.2405
4 16 9 -4.0899 -2.2597
4 16 10 -9.4909 0.4616
4 16 11 0.8399 -3.0452
4 16 12 -0.7269 -4.9951
4 16 13 2.7383 -8.1824
4 16 14 8.1066 4.6646
4 16 15 -2.4581 -0.5730
4 16 16 -6.0011 -11.0750
4 16 17 -3.8908 9.6703
4 16 18 -2.0081 5.5064
4 16 19 -1.4488 -4.6788
4 16 20 0.9695 0.2487
4 16 21 -4.6891 0.5919
4 16 22 5.8480 -5.3564
4 16 23 -8.6241 0.0260
4 17 0 -6.4150 -3.5167
4 17 1 2.9182 -14.6966
4 17 2 -3.2299 -13.0011
4 17 3 2.2285 3.6344
4 17 4 1.5820 -4.2142
4 17 5 -1.3555 0.9924
4 17 6 -17.5973 3.9881
4 17 7 -1.8959 1.9864
4 17 8 -8.1604 -9.0424
4 17 9 -2.4281 6.5556
4 17 10 2.9485 1.3926
4 17 11 4.5995 -0.7742
4 17 12 1.1876 5.4537
4 17 13 -1.7844 1.0566
4 17 14 4.1139 3.5723
4 17 15 -5.0085 -1.7388
4 17 16 -1.4715 -2.8064
4 17 17 4.2099 -1.0372
4 17 18 -1.7863 9.2191
4 18 0 7.6200 -9.0046
4 18 1 -10.5984 -1.1927
4 18 2 0.4228 -0.0191
4 18 3 -11.7273 9.5727
4 18 4 -7.9279 -8.7682
4 18 5 -11.5300 8.6272
4 18 6 6.5845 -3.6681
4 18 7 -2.0698 2.9194
4 18 8 1.9484 8.8561
4 18 9 0.2523 3.9433
4 18 10 -0.3189 6.4408
4 18 11 1.1628 -0.8328
5 0 1 -10.3859 -12.7656
5 0 2 -45.0418 -1.3200
5 0 3 -15.4949 -17.0429
5 0 4 18.3118 -4.9288
5 0 5 -5.4961 59.2066
5 0 6 -0.4315 -11.1962
5 0 7 -1.9955 -4.2200
5 0 8 -14.1577 -6.4186
5 0 9 -1.1252 -20.0644
5 0 10 -12.4711 12.9533
5 0 11 6.7171 10.5135
5 0 12 -23.2313 13.3730
5 0 13 12.6478 3.1215
5 0 14 -48.4841 -5.3668
5 0 15 4.3988 -14.9338
5 0 16 0.3018 -5.3550
5 0 17 -7.0915 -9.0454
5 0 18 -6.4733 5.5978
5 0 19 -9.8430 5.6384
5 0 20 -6.0359 -4.4964
5 0 21 -5.3381 -5.3234
5 0 22 3.3549 -16.9224
5 0 23 -1.2506 10.0226
5 0 24 21.3147 0.1006
5 0 25 1.9017 -7.4278
5 0 26 -1.0758 18.3886
5 0 27 6.4748 1.9191
5 0 28 9.4351 6.9451
5 0 29 8.6662 -9.6476
5 0 30 6.6514 -5.2481
5 0 31 5.0794 1.2501
5 0 32 -17.3128 2.5016
5 0 33 -5.4650 -11.8148
5 0 34 4.4901 3.2138
5 0 35 -10.9049 -8.5503
5 0 36 2.2571 -9.7760
5 0 37 -4.9620 9.6434
5 0 38 -0.1330 -11.2501
5 0 39 1.6721 -0.1994
5 0 40 4.2752 4.2495
5 0 41 2.1821 -1.0292
5 0 42 -2.0463 9.5846
5 0 43 4.2098 0.1076
5 0 44 6.1603 2.6063
5 0 45 9.3766 1.9364
5 0 46 -3.9574 0.4441
5 1 0 4.0879 -15.5473
5 1 1 24.3600 -24.1485
5 1 2 26.1529 42.3811
5 1 3 -24.1191 20.7554
5 1 4 14.3378 44.5229
5 1 5 -16.7640 16.6601
5 1 6 -4.3081 15.8262
5 1 7 30.8684 1.7351
5 1 8 15.2337 6.1094
5 1 9 -18.4268 19.7711
5 1 10 -17.1139 0.5999
5 1 11 -14.6291 48.0999
5 1 12 7.7855 -23.2526
5 1 13 -5.0643 20.5243
5 1 14 -2.9651 -2.8108
5 1 15 5.0771 4.7653
5 1 16 -11.0184 5.8880
5 1 17 -15.2438 4.0583
5 1 18 -9.8539 -8.6502
5 1 19 -1.0886 2.2598
5 1 20 19.0450 3.4271
5 1 21 -5.3356 0.3404
5 1 22 -11.1708 8.6067
5 1 23 3.3496 -0.4694
5 1 24 -19.5006 -4.6692
5 1 25 7.5944 3.5162
5 1 26 -4.2210 -10.4853
5 1 27 10.9554 -7.7610
5 1 28 6.5437 1.3638
5 1 29 15.2010 1.6499
5 1 30 -1.1231 -17.7413
5 1 31 5.6181 -9.1670
5 1 32 -10.5303 2.5036
5 1 33 7.4952 -10.8113
5 1 34 10.9091 12.9442
5 1 35 -7.0716 4.8891
5 1 36 2.2994 -0.1380
5 1 37 -5.3997 6.9719
5 1 38 -5.3191 0.3979
5 1 39 -0.8468 5.1845
5 1 40 -11.9964 -3.0280
5 1 41 1.6409 -9.3491
5 1 42 -0.7239 -1.5038
5 1 43 0.8369 2.8112
5 1 44 3.9285 -8.7336
5 1 45 6.7023 3.3090
5 1 46 -2.7742 -4.6091
5 2 0 -5.1733 15.6606
5 2 1 34.8559 -20.7771
5 2 2 -8.8773 3.0128
5 2 3 6.8027 -30.8767
5 2 4 3.0275 -39.0835
5 2 5 51.5522 -2.5834
5 2 6 22.7666 24.2869
5 2 7 20.8093 -5.3538
5 2 8 28.6993 2.5420
5 2 9 -9.2336 -19.4646
5 2 10 29.0723 -1.5540
5 2 11 -6.3889 -1.6004
5 2 12 23.6775 16.7455
5 2 13 21.1061 21.0045
5 2 14 12.6016 5.9841
5 2 15 -11.0212 9.8105
5 2 16 4.9229 3.9279
5 2 17 -5.1675 3.6006
5 2 18 -1.0781 5.0068
5 2 19 -7.7894 7.3615
5 2 20 -5.1928 0.8440
5 2 21 -7.0463 4.4660
5 2 22 6.8983 -20.1860
5 2 23 -10.7692 1.5964
5 2 24 7.1543 6.0991
5 2 25 6.7407 10.5693
5 2 26 -0.2277 -6.6126
5 2 27 -3.8624 7.8747
5 2 28 3.9254 -5.4363
5 2 29 -3.5741 -0.6150
5 2 30 -4.0471 -16.0030
5 2 31 9.6226 -10.3899
5 2 32 -11.1476 -2.6093
5 2 33 -8.7085 -2.0141
5 2 34 0.3631 0.5495
5 2 35 -5.5136 -3.2793
5 2 36 7.4117 -6.4660
5 2 37 -1.9586 -2.2514
5 2 38 0.7348 -1.7732
5 2 39 7.5687 9.8430
5 2 40 -4.1773 3.8934
5 2 41 -0.2944 4.5941
5 2 42 3.7222 7.5918
5 2 43 -9.4194 7.3727
5 2 44 -5.6019 -0.4970
5 2 45 7.1394 -2.7291
5 3 0 6.1264 -9.1774
5 3 1 17.4151 -13.9797
5 3 2 19.4987 -40.8174
5 3 3 -1.1440 10.8055
5 3 4 -25.3026 -23.1238
5 3 5 -6.7768 8.4963
5 3 6 -40.7652 -5.4592
5 3 7 -12.4586 -19.8111
5 3 8 11.3751 -12.1242
5 3 9 17.9605 -23.3324
5 3 10 -6.4983 -15.3613
5 3 11 -23.0286 -1.8802
5 3 12 -0.4649 1.2918
5 3 13 -0.4164 -12.3835
5 3 14 11.7124 -2.8536
5 3 15 7.2501 -15.2907
5 3 16 27.5075 -7.1118
5 3 17 9.5303 4.4452
5 3 18 4.7335 11.4028
5 3 19 -9.6318 -5.9434
5 3 20 -2.8252 16.9177
5 3 21 8.3325 0.1589
5 3 22 -5.1499 11.4387
5 3 23 -9.9328 9.6790
5 3 24 -1.6427 2.3743
5 3 25 -8.5969 -0.2270
5 3 26 2.7098 4.1904
5 3 27 -0.5121 -11.4883
5 3 28 -4.9155 -5.6009
5 3 29 0.0185 5.2831
5 3 30 1.2029 -0.5199
5 3 31 -5.3865 -7.2052
5 3 32 -6.0122 2.4074
5 3 33 -10.1180 -8.1066
5 3 34 -1.8502 4.6042
5 3 35 2.3784 2.2712
5 3 36 1.9021 2.3376
5 3 37 -3.2080 3.5785
5 3 38 0.1292 -5.5478
5 3 39 -1.9404 3.0141
5 3 40 2.7346 5.6939
5 3 41 4.3494 -0.7001
5 3 42 7.3767 -4.0892
5 3 43 9.2236 8.3432
5 3 44 0.8143 -6.8402
5 3 45 4.3553 -0.0280
5 4 0 -6.4501 4.5616
5 4 1 -30.3523 -12.4490
5 4 2 23.0766 -17.1142
5 4 3 -29.0974 6.9697
5 4 4 -8.7625 -18.5096
5 4 5 -19.3203 -13.8092
5 4 6 9.1119 12.3180
5 4 7 0.2091 25.2657
5 4 8 9.6040 25.2606
5 4 9 -7.2950 -1.5944
5 4 10 1.8350 6.8044
5 4 11 -4.7321 -12.6164
5 4 12 -13.0288 6.5679
5 4 13 -1.4761 6.7373
5 4 14 15.0292 19.0356
5 4 15 -1.9712 -6.3766
5 4 16 -6.9286 -4.5529
5 4 17 7.3780 -9.5845
5 4 18 -8.8660 -27.1211
5 4 19 10.5432 -1.0432
5 4 20 5.7088 -5.1772
5 4 21 -2.4748 13.2682
5 4 22 8.7937 10.2161
5 4 23 11.8385 -2.1086
5 4 24 0.7249 -1.3798
5 4 25 14.2757 14.0610
5 4 26 4.1760 4.2205
5 4 27 2.7033 3.6692
5 4 28 -3.2112 6.0222
5 4 29 2.5721 4.5310
5 4 30 -12.5136 8.8713
5 4 31 6.5522 -0.6706
5 4 32 0.4047 2.2648
5 4 33 -4.8286 1.5725
5 4 34 -5.3001 3.0572
5 4 35 -3.8863 0.9815
5 4 36 0.7906 1.1094
5 4 37 2.2684 -6.9532
5 4 38 -3.5160 -2.6255
5 4 39 -2.2899 -3.7935
5 4 40 6.3990 -0.9656
5 4 41 -3.0327 4.3444
5 4 42 5.4720 -8.6711
5 4 43 5.3461 -3.4848
5 4 44 -3.2364 -0.1745
5 4 45 1.3661 -8.7261
5 5 0 -0.8921 39.5805
5 5 1 -0.0721 2.8964
5 5 2 1.0156 25.9321
5 5 3 -0.1879 -11.9392
5 5 4 -14.8149 15.4981
5 5 5 -2.3395 -2.7826
5 5 6 -8.7999 11.3010
5 5 7 4.0611 -3.3144
5 5 8 -15.0828 5.6721
5 5 9 26.9014 -8.6245
5 5 10 20.5028 -7.1713
5 5 11 3.9556 -13.8186
5 5 12 -8.7402 5.4248
5 5 13 6.1156 -9.4606
5 5 14 8.5553 1.2610
5 5 15 -1.9458 3.2824
5 5 16 11.2771 -16.4868
5 5 17 -9.8388 -6.4685
5 5 18 6.8353 2.8744
5 5 19 -14.0034 -7.7773
5 5 20 -16.1886 -0.0618
5 5 21 -8.8491 -1.6921
5 5 22 14.4605 -8.3214
5 5 23 2.8352 5.3348
5 5 24 2.8262 -6.0268
5 5 25 3.0642 -4.0479
5 5 26 3.4894 -5.1863
5 5 27 6.4122 3.2867
5 5 28 3.4620 -13.7806
5 5 29 6.3601 0.4109
5 5 30 2.0668 -1.2267
5 5 31 9.8464 0.6927
5 5 32 3.9752 4.5482
5 5 33 3.7679 0.0252
5 5 34 -0.4691 -5.5567
5 5 35 3.8419 7.6284
5 5 36 -4.6001 1.7995
5 5 37 -1.0874 2.4733
5 5 38 -0.2881 5.1635
5 5 39 -11.6126 -2.5278
5 5 40 0.1994 3.2500
5 5 41 -5.9795 4.8630
5 5 42 -1.0668 -5.7769
5 5 43 3.0764 1.5391
5 5 44 -0.0536 -1.0594
5 6 0 -0.1612 -3.2280
5 6 1 19.7251 1.0036
5 6 2 -0.7379 -20.6040
5 6 3 14.6362 -2.6477
5 6 4 6.2713 -3.5953
5 6 5 -0.9576 13.8800
5 6 6 -5.2269 -14.2580
5 6 7 2.4471 9.4221
5 6 8 -6.5727 8.1089
5 6 9 4.3335 -3.1825
5 6 10 -10.7829 -6.1442
5 6 11 7.2908 -11.0155
5 6 12 -8.2572 -8.7029
5 6 13 -15.7197 -10.2828
5 6 14 -3.2024 9.0589
5 6 15 2.3609 -9.8749
5 6 16 -8.2392 1.8775
5 6 17 -1.7145 2.1874
5 6 18 -13.1033 6.2069
5 6 19 -5.2201 -3.1960
5 6 20 3.6023 9.4267
5 6 21 -3.0833 3.0153
5 6 22 -0.8539 5.5615
5 6 23 0.7958 8.3714
5 6 24 0.1689 -3.8004
5 6 25 -3.2602 -8.2982
5 6 26 6.1833 2.5275
5 6 27 -0.2878 1.4394
5 6 28 6.6710 -9.5372
5 6 29 3.3105 -0.2136
5 6 30 -5.5011 -2.4615
5 6 31 -6.0186 -0.2772
5 6 32 5.9743 -5.8225
5 6 33 -1.2340 -0.2103
5 6 34 6.6954 -7.0171
5 6 35 -1.4364 -1.6351
5 6 36 -3.5530 5.3253
5 6 37 4.3435 -5.3989
5 6 38 4.1306 8.0722
5 6 39 0.9613 -2.7010
5 6 40 4.8907 4.0814
5 6 41 0.8268 2.9083
5 6 42 2.0538 7.3760
5 6 43 -2.3459 -2.2303
5 7 0 4.7199 -8.9119
5 7 1 -14.1079 -6.7288
5 7 2 3.3514 -0.3761
5 7 3 -10.2038 -10.9088
5 7 4 -4.6293 -0.6015
5 7 5 -16.9940 -3.3902
5 7 6 -10.9143 -1.9010
5 7 7 3.9475 9.2621
5 7 8 -1.9620 -0.5785
5 7 9 -7.7730 13.2119
5 7 10 1.6964 6.8326
5 7 11 8.3139 -1.9685
5 7 12 -18.9678 3.5209
5 7 13 -10.4519 6.1229
5 7 14 -4.9761 -1.6965
5 7 15 0.2368 13.2490
5 7 16 0.8752 0.0509
5 7 17 2.5650 1.6844
5 7 18 -2.2163 1.8288
5 7 19 14.3836 7.4534
5 7 20 12.4489 4.1362
5 7 21 -5.3698 5.0783
5 7 22 1.7832 -8.2971
5 7 23 14.1518 -4.8878
5 7 24 -1.7164 1.8927
5 7 25 -0.9182 -3.7803
5 7 26 3.4794 -0.2789
5 7 27 -2.5767 -2.2668
5 7 28 -3.2203 -3.9065
5 7 29 -4.3004 -10.1794
5 7 30 1.9574 -5.3396
5 7 31 -4.0851 -9.5938
5 7 32 3.6324 3.8499
5 7 33 1.1443 1.7415
5 7 34 -6.3154 -5.9881
5 7 35 6.0653 -5.6598
5 7 36 -7.8190 -0.6649
5 7 37 5.5066 -1.9158
5 7 38 2.0728 1.0130
5 7 39 6.7464 -3.6691
5 7 40 -5.8824 -1.4182
5 7 41 2.9216 -4.1513
5 7 42 -2.6302 -1.3053
5 8 0 -4.3818 9.5451
5 8 1 4.3825 11.8218
5 8 2 -8.4604 10.4761
5 8 3 5.3424 3.2373
5 8 4 -5.8089 -5.5645
5 8 5 -8.3914 5.7967
5 8 6 -1.5011 17.7367
5 8 7 -1.3121 1.7063
5 8 8 -0.0690 13.6857
5 8 9 11.0326 16.4290
5 8 10 3.1876 -2.1657
5 8 11 5.5273 5.1920
5 8 12 14.3626 0.7634
5 8 13 -3.0112 -1.8350
5 8 14 6.2441 12.0841
5 8 15 -1.4508 11.9352
5 8 16 9.3049 -2.2185
5 8 17 0.3928 0.0339
5 8 18 5.3463 -2.0256
5 8 19 -7.0361 -8.7387
5 8 20 6.8942 -6.5222
5 8 21 0.5336 -1.7029
5 8 22 -3.2014 -13.8827
5 8 23 -0.2165 -1.7949
5 8 24 -6.2670 -0.4905
5 8 25 -4.0827 -3.9739
5 8 26 -4.9709 -6.4189
5 8 27 0.2700 -0.2563
5 8 28 -3.9272 8.6604
5 8 29 1.1175 -1.1130
5 8 30 -2.9035 6.6418
5 8 31 -8.8306 5.8547
5 8 32 -3.3106 -5.5448
5 8 33 -5.1867 4.3023
5 8 34 -6.5725 -8.1046
5 8 35 4.1984 2.6510
5 8 36 -7.5223 -1.1624
5 8 37 -0.8613 3.7505
5 8 38 -3.8726 -5.7497
5 8 39 0.0813 0.5829
5 8 40 -3.9064 -10.7950
5 8 41 -2.9072 -0.8979
5 9 0 -1.3432 -14.3601
5 9 1 -5.0171 6.9953
5 9 2 3.7111 -1.5518
5 9 3 12.7334 2.6585
5 9 4 1.1218 1.2847
5 9 5 15.7683 6.3584
5 9 6 -11.2641 -1.6134
5 9 7 -2.1102 13.9448
5 9 8 16.6231 3.7426
5 9 9 6.0339 1.2516
5 9 10 3.8774 3.9302
5 9 11 13.9157 -8.0692
5 9 12 6.9664 2.5034
5 9 13 1.3478 -10.3253
5 9 14 -3.1118 1.5845
5 9 15 -2.6221 -11.0417
5 9 16 7.7185 4.9870
5 9 17 5.5437 -6.3761
5 9 18 -2.2396 2.9827
5 9 19 -7.6498 -5.1260
5 9 20 0.7446 -3.3331
5 9 21 -6.1614 6.3919
5 9 22 -5.5961 3.4039
5 9 23 -3.5207 5.0008
5 9 24 0.4739 3.1669
5 9 25 -2.9721 7.4545
5 9 26 -10.1850 2.5639
5 9 27 3.8453 1.0828
5 9 28 -4.3066 6.8502
5 9 29 -3.9512 -2.5732
5 9 30 10.2068 5.0008
5 9 31 2.5848 -4.6402
5 9 32 10.9169 -8.0404
5 9 33 -1.3103 9.1446
5 9 34 -0.0695 -3.1731
5 9 35 -2.3201 8.0655
5 9 36 0.3867 0.3964
5 9 37 -7.4267 2.7024
5 9 38 5.8130 -2.2912
5 9 39 -1.1090 1.1432
5 9 40 -0.3403 0.0357
5 10 0 4.3216 -4.8368
5 10 1 -6.4863 2.9062
5 10 2 -5.3566 -3.2777
5 10 3 -7.7147 21.3980
5 10 4 12.8169 -9.2113
5 10 5 -1.8315 -8.3490
5 10 6 5.1375 -2.0523
5 10 7 5.6746 3.8357
5 10 8 3.6095 -2.5459
5 10 9 9.7249 2.6470
5 10 10 4.2297 -5.4748
5 10 11 8.5607 -1.9585
5 10 12 -5.9253 -2.7652
5 10 13 10.2449 -4.4307
5 10 14 -6.0124 -3.3379
5 10 15 5.1878 -2.9852
5 10 16 -4.6375 5.2262
5 10 17 -2.5560 5.8782
5 10 18 1.9949 2.4075
5 10 19 -1.5975 -0.3777
5 10 20 1.6584 0.9164
5 10 21 -1.0968 5.7971
5 10 22 2.1195 2.4323
5 10 23 2.1934 2.5148
5 10 24 9.5922 -4.3614
5 10 25 13.5110 7.0760
5 10 26 -1.4663 -3.0395
5 10 27 11.2994 -2.7715
5 10 28 -1.2018 7.7755
5 10 29 3.5659 -2.5343
5 10 30 5.1948 7.9178
5 10 31 -4.7688 -0.9170
5 10 32 2.3714 -2.2490
5 10 33 -7.7481 -5.0226
5 10 34 -6.0061 -3.5831
5 10 35 -2.6363 -7.4346
5 10 36 5.0917 5.2210
5 10 37 0.1231 -1.6021
5 10 38 3.4986 4.6262
5 11 0 3.5969 3.0908
5 11 1 -13.5371 -5.1851
5 11 2 1.3851 8.1084
5 11 3 -5.4388 0.7130
5 11 4 5.5032 8.7443
5 11 5 1.9416 5.5603
5 11 6 12.1775 -1.2532
5 11 7 -10.0845 -6.3155
5 11 8 1.0206 -1.4085
5 11 9 7.6935 -1.2730
5 11 10 5.4089 -8.7197
5 11 11 -4.5323 0.7226
5 11 12 -3.1043 -11.9974
5 11 13 7.3783 4.9700
5 11 14 3.5770 2.0250
5 11 15 -2.9300 -4.2739
5 11 16 -2.5497 -1.9983
5 11 17 0.0611 -6.9288
5 11 18 6.9283 2.0608
5 11 19 4.3965 2.3288
5 11 20 11.1321 1.8755
5 11 21 -0.4805 -4.5885
5 11 22 2.3891 1.6021
5 11 23 -3.8663 2.2141
5 11 24 4.6780 -12.5461
5 11 25 2.8905 1.0845
5 11 26 -5.0577 -9.3755
5 11 27 6.4354 -8.0071
5 11 28 -7.6164 -5.5176
5 11 29 -1.2626 -5.4557
5 11 30 -2.6429 -5.0632
5 11 31 2.6038 2.0140
5 11 32 3.4958 -6.5361
5 11 33 9.2462 2.0729
5 11 34 -3.1713 4.7066
5 11 35 0.6095 1.8619
5 11 36 -4.0049 4.6553
5 12 0 3.9718 10.8460
5 12 1 5.8424 -0.2146
5 12 2 1.3696 -0.8004
5 12 3 4.4525 -4.5420
5 12 4 0.4288 20.2571
5 12 5 9.1228 -2.8928
5 12 6 3.1451 -6.1590
5 12 7 9.6875 -5.4917
5 12 8 2.1366 -1.7158
5 12 9 -3.7817 -1.7335
5 12 10 3.6277 -5.1180
5 12 11 -2.6462 -3.8860
5 12 12 -3.2570 -4.6806
5 12 13 -1.2231 0.7080
5 12 14 -3.4494 0.3236
5 12 15 11.6524 -4.6388
5 12 16 5.0425 -5.5396
5 12 17 0.2524 -1.0956
5 12 18 -6.1099 12.2241
5 12 19 -1.3572 -2.8248
5 12 20 -5.3580 -3.6526
5 12 21 3.6990 -8.2272
5 12 22 7.4083 -3.3709
5 12 23 -3.7826 -1.1695
5 12 24 0.3764 0.0333
5 12 25 -0.2500 10.3582
5 12 26 -6.2532 -8.6374
5 12 27 -7.2541 -2.0344
5 12 28 3.3550 -4.7303
5 12 29 -12.1713 4.6242
5 12 30 2.8173 1.6864
5 12 31 -11.0913 10.2323
5 12 32 -1.4241 1.3411
5 12 33 -0.7781 -1.1111
5 12 34 -2.0545 -4.3621
5 13 0 -4.7064 -3.7484
5 13 1 5.2309 6.2583
5 13 2 -2.9205 -2.9192
5 13 3 2.2866 1.7080
5 13 4 -0.1735 -7.2374
5 13 5 -1.4403 2.9346
5 13 6 7.5589 -6.1216
5 13 7 4.6980 -2.5405
5 13 8 -6.2097 -8.8887
5 13 9 -11.7056 -6.4296
5 13 10 0.8329 -3.7719
5 13 11 -0.3118 0.3453
5 13 12 -3.2976 -4.1083
5 13 13 -5.4962 3.7758
5 13 14 2.2257 -0.4195
5 13 15 2.7210 1.7130
5 13 16 -5.9819 -3.9678
5 13 17 1.4440 -7.8088
5 13 18 -0.2714 -13.7013
5 13 19 6.6257 4.6328
5 13 20 6.6166 3.5854
5 13 21 8.9944 0.8323
5 13 22 0.5568 2.6261
5 13 23 -9.1467 4.1815
5 13 24 5.7480 -6.1482
5 13 25 -1.1931 -6.4078
5 13 26 8.6158 4.8776
5 13 27 -1.0719 -2.4304
5 13 28 -0.0889 10.9948
5 13 29 -10.6816 -5.0384
5 13 30 -3.6616 5.9297
5 13 31 6.8392 1.0498
5 13 32 5.6348 2.4193
5 14 0 2.0306 7.5225
5 14 1 -4.7939 7.5455
5 14 2 -2.1302 10.8798
5 14 3 -5.5724 -9.4482
5 14 4 9.0379 -3.0659
5 14 5 -5.6601 6.6133
5 14 6 2.8836 2.7662
5 14 7 -2.0936 -6.8979
5 14 8 0.3249 -1.7084
5 14 9 -5.5027 -0.7272
5 14 10 -8.6864 5.3261
5 14 11 -7.5320 5.0370
5 14 12 0.1971 2.8012
5 14 13 -0.7195 -0.4220
5 14 14 -2.4137 -3.0060
5 14 15 0.4025 -0.3815
5 14 16 7.1797 -5.1586
5 14 17 -6.0417 -0.3310
5 14 18 -3.8168 -5.7305
5 14 19 -1.7168 3.4515
5 14 20 -3.2525 -8.9784
5 14 21 -5.0321 -12.1606
5 14 22 6.3607 -3.3630
5 14 23 4.1875 -15.2524
5 14 24 4.8802 -4.0525
5 14 25 4.6135 -1.5610
5 14 26 -2.7018 0.9397
5 14 27 -0.9834 -5.4674
5 14 28 -5.3588 -9.0015
5 14 29 5.9286 4.2183
5 15 0 -4.1453 0.6392
5 15 1 9.8608 -6.7969
5 15 2 7.9450 7.5044
5 15 3 7.0662 -1.4583
5 15 4 6.8546 10.6733
5 15 5 -0.3000 4.5294
5 15 6 -5.3358 0.7818
5 15 7 2.7584 0.6680
5 15 8 5.2689 -3.2632
5 15 9 -2.8909 0.7926
5 15 10 -4.3028 1.8118
5 15 11 -1.5299 6.9244
5 15 12 4.3870 7.1382
5 15 13 1.9333 6.1277
5 15 14 0.7364 4.5775
5 15 15 -5.9816 -1.9395
5 15 16 1.3534 -2.9980
5 15 17 -13.5312 4.7567
5 15 18 -2.0182 -3.4683
5 15 19 -2.6156 -3.2583
5 15 20 -8.7947 7.6701
5 15 21 -1.3371 -3.4778
5 15 22 -6.4429 -2.2082
5 15 23 -10.6479 -2.7151
5 15 24 -5.5679 3.4794
5 15 25 -14.3832 -8.9072
5 15 26 -3.2382 -10.8635
5 16 0 5.3408 -4.7433
5 16 1 11.8959 -2.9115
5 16 2 0.9491 3.4264
5 16 3 -7.0865 -3.6264
5 16 4 3.5558 -10.6757
5 16 5 0.7018 -11.6327
5 16 6 11.0935 -2.1370
5 16 7 3.3967 0.0799
5 16 8 5.4453 0.0998
5 16 9 -0.3581 -3.2727
5 16 10 -0.3643 1.3312
5 16 11 0.1258 -0.2285
5 16 12 4.2280 3.1243
5 16 13 5.7242 1.4655
5 16 14 12.9837 4.3549
5 16 15 -2.2164 -3.6971
5 16 16 8.6483 2.7815
5 16 17 5.4292 5.3623
5 16 18 -7.6655 6.2404
5 16 19 0.4815 7.9240
5 16 20 2.3620 5.3824
5 16 21 3.7219 -1.4433
5 16 22 -7.0415 11.7371
5 17 0 -1.4897 8.4339
5 17 1 3.7996 -8.1577
5 17 2 -0.7471 0.9280
5 17 3 2.1578 -15.2465
5 17 4 3.1102 2.8230
5 17 5 -0.2793 1.0402
5 17 6 -5.2534 5.0740
5 17 7 -8.6707 -3.5614
5 17 8 -9.5901 -5.0559
5 17 9 3.8507 -3.5360
5 17 10 1.1210 -0.3093
5 17 11 -4.5713 -4.3380
5 17 12 1.0676 4.9426
5 17 13 0.1385 -9.0986
5 17 14 5.2085 -0.9635
5 17 15 2.2223 -3.2671
5 17 16 -0.0418 -11.5076
5 17 17 3.1163 -4.8792
5 18 0 -2.8064 -1.9125
5 18 1 15.8717 -5.1279
5 18 2 1.9102 -1.5980
5 18 3 3.2371 -4.0445
5 18 4 -5.9561 -0.1201
5 18 5 -5.5088 -3.1757
5 18 6 -1.5630 -10.1486
5 18 7 2.2098 2.2149
5 18 8 1.8878 4.4035
6 0 0 16.2394 -16.5411
6 0 1 8.3840 10.9189
6 0 2 -15.9273 -4.4370
6 0 3 5.0546 -36.6197
6 0 4 -6.6606 10.8503
6 0 5 -2.6802 27.5575
6 0 6 -28.7490 5.4041
6 0 7 -12.5668 40.4999
6 0 8 -1.3279 -2.2610
6 0 9 -8.5197 6.3194
6 0 10 2.9585 7.7103
6 0 11 -0.4980 -7.4785
6 0 12 -10.3248 9.2415
6 0 13 0.6047 25.6760
6 0 14 -10.0671 -9.0295
6 0 15 5.3302 1.5751
6 0 16 -3.8731 -16.5420
6 0 17 11.0822 1.7928
6 0 18 5.5464 -3.9625
6 0 19 4.0001 -8.9110
6 0 20 -2.4349 6.3345
6 0 21 -6.6289 3.4897
6 0 22 11.1712 4.7526
6 0 23 -6.4534 -2.2159
6 0 24 -5.7984 1.5413
6 0 25 -4.7485 5.8968
6 0 26 8.9336 4.0719
6 0 27 -4.9527 0.1328
6 0 28 6.7089 4.8518
6 0 29 2.6788 2.0834
6 0 30 10.0239 -4.1366
6 0 31 10.6036 1.4704
6 0 32 -5.3353 -13.8648
6 0 33 4.7572 -10.3197
6 0 34 -3.4072 -7.8748
6 0 35 -1.5843 -4.3617
6 0 36 -1.8913 8.2292
6 0 37 -1.2845 -13.4595
6 0 38 -10.5282 8.0184
6 0 39 -5.4371 -4.6200
6 0 40 -0.9150 -1.6996
6 0 41 -9.5527 -3.4814
6 0 42 -0.6505 2.1837
6 0 43 -1.6276 -7.5139
6 0 44 1.2857 6.2599
6 0 45 6.0229 5.5015
6 1 0 -49.4441 -6.7564
6 1 1 27.3106 -3.8183
6 1 2 -8.2552 -18.1970
6 1 3 -1.1143 8.2121
6 1 4 3.3186 -9.7660
6 1 5 -16.4472 9.0787
6 1 6 6.4432 -4.8239
6 1 7 20.0002 -13.1976
6 1 8 12.8074 19.7541
6 1 9 34.7993 17.4052
6 1 10 24.1785 -2.3220
6 1 11 -5.7147 2.4474
6 1 12 19.1465 0.7091
6 1 13 -6.7057 9.4620
6 1 14 25.9909 -2.9882
6 1 15 -0.9965 6.3149
6 1 16 1.1699 7.9190
6 1 17 -8.3374 5.8055
6 1 18 -23.9466 -2.4170
6 1 19 -1.6737 -20.4143
6 1 20 -8.4067 3.3837
6 1 21 2.5264 -6.1504
6 1 22 -0.4675 1.8904
6 1 23 4.1473 -3.3164
6 1 24 0.3616 11.0060
6 1 25 -1.3549 -4.2540
6 1 26 1.7121 12.2137
6 1 27 7.2822 5.6235
6 1 28 12.8783 0.9373
6 1 29 -4.5334 7.7467
6 1 30 4.8918 -0.0987
6 1 31 2.5090 2.0502
6 1 32 0.1461 -6.3336
6 1 33 -5.5739 -7.5788
6 1 34 -19.7256 1.0673
6 1 35 1.7069 7.2479
6 1 36 -20.9618 -1.6763
6 1 37 2.4220 1.2718
6 1 38 1.1905 6.4718
6 1 39 -4.9545 2.2301
6 1 40 -3.9166 4.7611
6 1 41 0.9911 5.5796
6 1 42 -5.5875 1.0835
6 1 43 -5.0079 9.8270
6 1 44 5.2207 -2.3735
6 1 45 -4.5906 6.9123
6 2 0 11.2981 -6.6357
6 2 1 -5.7320 36.0563
6 2 2 6.5155 40.2125
6 2 3 -29.8017 8.3878
6 2 4 -7.6181 -16.8516
6 2 5 14.0460 6.5777
6 2 6 -12.0531 -6.6122
6 2 7 -14.6257 10.8855
6 2 8 -7.0230 6.2870
6 2 9 -7.6391 -25.0429
6 2 10 -0.3996 2.7160
6 2 11 7.9785 -39.5591
6 2 12 4.1574 -15.1048
6 2 13 -3.7484 -21.4321
6 2 14 -0.4174 3.2192
6 2 15 -0.1060 -6.0464
6 2 16 0.6784 -18.2727
6 2 17 10.2011 6.9816
6 2 18 -2.2157 0.1629
6 2 19 7.8947 21.8743
6 2 20 -4.1792 7.7341
6 2 21 -12.9825 12.8745
6 2 22 -14.0738 4.8870
6 2 23 5.2921 -0.4971
6 2 24 -1.8448 1.2249
6 2 25 -5.0079 -0.0865
6 2 26 8.6652 10.8034
6 2 27 5.9124 -3.5643
6 2 28 8.8162 -3.0358
6 2 29 4.3958 -5.0338
6 2 30 4.5984 -8.9222
6 2 31 10.9300 0.4246
6 2 32 9.7208 -6.3627
6 2 33 0.2328 6.9906
6 2 34 2.3282 -15.7562
6 2 35 1.4099 16.7160
6 2 36 -1.0787 12.1172
6 2 37 6.7185 6.2367
6 2 38 6.4617 8.6526
6 2 39 -2.0944 2.8147
6 2 40 8.4769 2.7631
6 2 41 -1.9527 -0.2534
6 2 42 10.4268 7.4860
6 2 43 -0.9061 1.2872
6 2 44 5.0282 6.4087
6 2 45 2.4030 -3.7670
6 3 0 -15.6947 -1.3979
6 3 1 -5.0901 -19.6306
6 3 2 32.0478 -4.4340
6 3 3 19.3580 7.6768
6 3 4 34.6428 -1.8099
6 3 5 7.4677 11.0392
6 3 6 -10.7217 15.1727
6 3 7 10.6848 0.1289
6 3 8 -19.8197 -8.9493
6 3 9 14.3171 22.8808
6 3 10 1.8011 16.7458
6 3 11 1.4766 1.2970
6 3 12 -14.5454 3.3386
6 3 13 -18.7088 -4.0118
6 3 14 -17.9613 6.7480
6 3 15 -21.5895 1.7412
6 3 16 8.9339 -4.2804
6 3 17 -10.2152 4.0501
6 3 18 6.6664 8.2129
6 3 19 -4.6802 -10.6234
6 3 20 9.9124 -4.5946
6 3 21 13.8264 -0.9031
6 3 22 5.9485 9.8412
6 3 23 13.7294 4.5246
6 3 24 2.8034 8.5387
6 3 25 7.6424 3.3414
6 3 26 2.0119 2.2544
6 3 27 2.0311 1.6310
6 3 28 12.6338 -5.7720
6 3 29 0.7439 -6.6062
6 3 30 -2.0909 -5.2899
6 3 31 -11.7707 -3.6576
6 3 32 8.6278 -4.9226
6 3 33 -12.3021 -6.4637
6 3 34 -0.6614 -13.9492
6 3 35 -2.8887 -2.1510
6 3 36 -5.3868 -2.0033
6 3 37 6.1897 -9.5870
6 3 38 6.8548 -0.1050
6 3 39 10.0772 -9.4501
6 3 40 2.5825 -0.1972
6 3 41 -0.7933 -3.7937
6 3 42 3.3766 -1.0773
6 3 43 4.9222 -2.1135
6 3 44 -2.1365 0.1187
6 4 0 -0.1206 6.3633
6 4 1 -8.9100 -10.4462
6 4 2 5.6991 6.0307
6 4 3 -6.2195 4.7339
6 4 4 -17.5989 -15.1617
6 4 5 -9.6366 -13.7284
6 4 6 22.8038 -28.7410
6 4 7 -6.2183 1.3727
6 4 8 1.4448 4.0322
6 4 9 8.1258 -1.2285
6 4 10 -10.7594 7.7973
6 4 11 13.0504 2.9108
6 4 12 0.8887 1.2047
6 4 13 7.1679 -12.4880
6 4 14 -0.3714 18.1658
6 4 15 2.4376 8.5120
6 4 16 -5.7537 26.8357
6 4 17 9.3209 -3.5257
6 4 18 -9.1321 0.5141
6 4 19 6.9370 -3.0301
6 4 20 -0.1693 -6.6811
6 4 21 -0.7569 4.2000
6 4 22 -5.4308 -7.8240
6 4 23 -4.6442 -2.6237
6 4 24 7.9776 -8.1767
6 4 25 4.8037 -9.7293
6 4 26 -0.1288 -7.4464
6 4 27 -0.8848 -3.9412
6 4 28 7.5401 -1.9264
6 4 29 -1.9561 -5.4435
6 4 30 -2.5227 -2.0191
6 4 31 -7.9926 -10.2765
6 4 32 2.2315 6.1510
6 4 33 -5.5966 6.0741
6 4 34 -2.1689 0.6022
6 4 35 -3.2273 1.5406
6 4 36 -7.0201 4.8668
6 4 37 -2.8618 7.3039
6 4 38 -4.6778 4.3184
6 4 39 -5.3239 -6.3016
6 4 40 -6.1588 0.0154
6 4 41 -5.5416 -3.4921
6 4 42 -2.9619 -4.3102
6 4 43 5.0693 1.8794
6 4 44 0.0679 -0.2891
6 5 0 13.0713 7.8626
6 5 1 0.1142 -6.2220
6 5 2 -0.8383 -6.3488
6 5 3 1.2344 -9.4937
6 5 4 5.6684 16.3776
6 5 5 -0.2039 -10.1816
6 5 6 -8.9729 9.8928
6 5 7 -2.5567 21.5054
6 5 8 -14.0678 -16.6866
6 5 9 2.6196 3.6545
6 5 10 -4.1000 -0.8245
6 5 11 17.1824 14.7848
6 5 12 -3.2247 0.3740
6 5 13 16.3289 1.8982
6 5 14 -6.8040 -1.4592
6 5 15 10.2098 12.9518
6 5 16 1.1744 -6.5550
6 5 17 17.2942 1.0650
6 5 18 12.5438 2.1231
6 5 19 -7.3018 7.2913
6 5 20 -4.5536 4.7223
6 5 21 -6.9394 -8.4751
6 5 22 3.3695 1.2640
6 5 23 -2.8270 7.5932
6 5 24 4.8085 2.6946
6 5 25 -4.4119 -4.3491
6 5 26 -1.4062 3.6836
6 5 27 -8.7486 -1.6055
6 5 28 -4.7991 4.3973
6 5 29 0.5325 -0.9971
6 5 30 1.5936 1.7807
6 5 31 -1.6149 -2.8545
6 5 32 -3.4356 5.2999
6 5 33 0.2081 1.3067
6 5 34 0.3057 2.3480
6 5 35 7.1773 -0.3006
6 5 36 -0.3713 2.1809
6 5 37 3.5288 0.3993
6 5 38 -0.5450 0.4065
6 5 39 7.0958 3.6400
6 5 40 4.0162 2.0168
6 5 41 -2.7810 4.4697
6 5 42 -0.9136 6.0353
6 5 43 -3.8112 2.2226
6 6 0 -0.1710 -1.8720
6 6 1 3.1132 -0.4481
6 6 2 -12.7787 -9.3976
6 6 3 10.0183 -4.7410
6 6 4 -1.2793 -6.4149
6 6 5 -17.1350 1.8680
6 6 6 11.1828 -10.6895
6 6 7 -1.2144 5.7809
6 6 8 8.6694 -0.1563
6 6 9 -5.5357 16.6010
6 6 10 3.5431 -13.0439
6 6 11 3.1870 8.3448
6 6 12 8.4417 -12.1037
6 6 13 6.6786 1.0084
6 6 14 6.1949 -19.2881
6 6 15 4.1567 -3.8469
6 6 16 6.6127 -2.3956
6 6 17 6.5172 -5.3912
6 6 18 0.3217 -9.4611
6 6 19 1.5705 -12.2593
6 6 20 5.2155 3.8143
6 6 21 4.8384 0.0120
6 6 22 4.7837 13.5516
6 6 23 -0.2269 -2.3530
6 6 24 -3.5499 2.6888
6 6 25 3.5617 -2.2679
6 6 26 5.1686 0.7710
6 6 27 -3.5259 -4.5311
6 6 28 -3.5516 3.4254
6 6 29 5.0788 2.3508
6 6 30 1.5415 1.9213
6 6 31 1.4500 -0.5984
6 6 32 0.0875 -7.0965
6 6 33 3.1087 2.5286
6 6 34 -0.3233 -3.5863
6 6 35 2.2284 1.0830
6 6 36 2.6140 -4.7453
6 6 37 -3.4408 0.1561
6 6 38 -0.4909 -0.0990
6 6 39 1.7659 0.7577
6 6 40 -1.0708 -0.5523
6 6 41 3.9530 -4.6626
6 6 42 -0.3271 5.2304
6 7 0 -3.3229 4.4539
6 7 1 -0.4670 6.7168
6 7 2 1.5800 1.1480
6 7 3 -5.2595 -5.7777
6 7 4 1.2090 10.1876
6 7 5 -6.5521 -4.4570
6 7 6 -4.7615 -1.3634
6 7 7 -14.9558 -6.7842
6 7 8 6.7999 4.7919
6 7 9 -9.6658 -0.7060
6 7 10 17.7539 -7.4754
6 7 11 -5.4392 8.2763
6 7 12 5.6857 3.6677
6 7 13 -7.1631 -6.2357
6 7 14 -6.4566 -12.6339
6 7 15 -9.9934 -4.8738
6 7 16 -7.4689 4.1833
6 7 17 -6.2078 -4.7971
6 7 18 -4.5620 -6.2544
6 7 19 5.8792 -5.8282
6 7 20 -11.7214 4.6469
6 7 21 -2.4794 -0.6157
6 7 22 1.6223 -6.6168
6 7 23 6.4460 -10.7091
6 7 24 5.8749 6.8518
6 7 25 6.9238 -2.8983
6 7 26 -0.1203 -2.5115
6 7 27 6.6761 2.9304
6 7 28 -1.8265 1.1635
6 7 29 -1.5564 -1.3639
6 7 30 0.6332 6.2768
6 7 31 0.3379 4.1351
6 7 32 7.1860 0.0690
6 7 33 -2.9583 -0.1216
6 7 34 -1.4035 -0.9507
6 7 35 -5.3170 -1.3135
6 7 36 0.7192 -0.5201
6 7 37 -2.8007 1.0317
6 7 38 2.3751 -3.0579
6 7 39 2.3348 5.8149
6 7 40 1.5266 0.5992
6 7 41 3.8157 -1.7086
6 8 0 0.7433 1.0961
6 8 1 5.3938 1.1275
6 8 2 -6.2205 3.4076
6 8 3 -2.3642 3.6145
6 8 4 -0.8433 -1.0240
6 8 5 4.3090 -0.9700
6 8 6 -6.4727 3.6335
6 8 7 -11.6684 -7.8343
6 8 8 3.9429 20.0042
6 8 9 -7.5132 -0.0916
6 8 10 -8.6391 11.7322
6 8 11 -2.7424 -1.8976
6 8 12 1.1803 -5.5927
6 8 13 6.3703 -1.3041
6 8 14 0.9682 4.0307
6 8 15 -1.3049 -0.6127
6 8 16 -8.7174 7.0142
6 8 17 -0.6408 13.8684
6 8 18 2.6372 3.4862
6 8 19 2.7532 -1.4324
6 8 20 -2.4983 -1.7195
6 8 21 5.0492 -5.7208
6 8 22 -4.8118 2.1525
6 8 23 3.5108 1.5309
6 8 24 -2.9141 -5.4122
6 8 25 -10.2265 1.6111
6 8 26 -3.0841 -15.3252
6 8 27 7.4616 -4.4765
6 8 28 -5.1784 -9.2896
6 8 29 1.0145 -4.6950
6 8 30 0.1814 0.3217
6 8 31 2.3569 -1.9690
6 8 32 9.0930 0.2774
6 8 33 6.0718 -7.9783
6 8 34 6.2578 -3.8698
6 8 35 -2.6991 -7.7089
6 8 36 2.3859 5.4613
6 8 37 -0.2114 0.1181
6 8 38 0.5420 3.0942
6 8 39 -0.5473 -3.2352
6 8 40 2.7754 -6.1509
6 9 0 5.7510 0.0315
6 9 1 -3.0242 5.2490
6 9 2 6.1317 1.4046
6 9 3 -3.4428 -1.0738
6 9 4 3.8789 6.1265
6 9 5 4.7307 0.6991
6 9 6 -7.2829 12.5155
6 9 7 6.7908 3.5233
6 9 8 -7.3244 1.4809
6 9 9 -1.0208 17.7858
6 9 10 7.5677 4.5234
6 9 11 7.5403 -1.9157
6 9 12 5.6133 8.7446
6 9 13 6.9238 14.3684
6 9 14 -4.1307 0.1456
6 9 15 1.4288 -9.6508
6 9 16 -0.3616 -3.5643
6 9 17 6.2780 2.2816
6 9 18 -0.9522 4.8081
6 9 19 7.8559 -0.4821
6 9 20 -0.8059 -5.5066
6 9 21 -3.3710 -3.9491
6 9 22 -5.8787 -2.3031
6 9 23 -14.5057 -7.4032
6 9 24 9.3303 -1.7743
6 9 25 -7.6122 8.9428
6 9 26 1.7835 -2.4286
6 9 27 -7.1857 10.0316
6 9 28 -7.4857 4.0851
6 9 29 -8.5574 0.2006
6 9 30 -7.2756 1.4868
6 9 31 -2.7314 -0.7051
6 9 32 -3.8916 6.5120
6 9 33 2.9286 -5.2007
6 9 34 -7.6938 -7.7310
6 9 35 -4.3847 -6.3673
6 9 36 -9.8996 -2.2818
6 9 37 -4.0990 1.0159
6 9 38 1.0742 -2.1429
6 9 39 -2.4894 -1.8421
6 10 0 -6.1525 0.8464
6 10 1 9.3608 -13.7111
6 10 2 5.5989 2.4990
6 10 3 10.1331 -4.6647
6 10 4 -6.6409 -1.3548
6 10 5 -1.9370 2.4953
6 10 6 16.8193 -0.7364
6 10 7 -3.8737 -1.8880
6 10 8 2.8454 1.7820
6 10 9 15.1911 2.2669
6 10 10 8.7497 2.0763
6 10 11 5.8217 7.1402
6 10 12 4.8804 -5.9633
6 10 13 1.8989 0.4556
6 10 14 2.1728 -10.8330
6 10 15 13.1848 3.4883
6 10 16 -0.0879 -6.3381
6 10 17 -1.5886 3.2769
6 10 18 -12.7765 -2.5143
6 10 19 2.5325 0.7849
6 10 20 2.4124 2.7342
6 10 21 2.5470 -1.7480
6 10 22 -3.5102 12.0455
6 10 23 -12.2329 -2.8299
6 10 24 1.0627 11.0387
6 10 25 -9.1899 6.5474
6 10 26 0.9720 3.8917
6 10 27 2.8175 -2.0658
6 10 28 5.0238 2.9338
6 10 29 7.8000 5.1588
6 10 30 4.1540 2.8255
6 10 31 2.0840 3.7105
6 10 32 2.4602 2.6298
6 10 33 2.9173 3.2548
6 10 34 3.3330 2.6481
6 10 35 -1.2700 -3.2404
6 10 36 -3.1438 5.4191
6 10 37 -3.2669 1.7000
6 11 0 -11.2908 0.3389
6 11 1 -5.1415 10.4454
6 11 2 -13.3130 2.6379
6 11 3 -3.4064 -10.3277
6 11 4 -6.8069 -0.3765
6 11 5 0.8797 -11.4967
6 11 6 -1.3904 -0.3726
6 11 7 -2.2598 7.5881
6 11 8 7.4420 -9.5341
6 11 9 -3.7377 -5.5287
6 11 10 3.9767 8.1669
6 11 11 -4.4022 -5.6601
6 11 12 10.9051 -16.2129
6 11 13 0.4565 -3.4205
6 11 14 9.2067 -2.9877
6 11 15 -5.6575 10.8368
6 11 16 1.5062 -9.4571
6 11 17 1.6978 -0.3054
6 11 18 0.3569 -0.8924
6 11 19 -0.5459 3.5534
6 11 20 -1.3730 8.3467
6 11 21 8.0284 0.1677
6 11 22 5.1809 3.2719
6 11 23 2.7780 -8.9078
6 11 24 4.1241 6.2926
6 11 25 6.6330 6.1520
6 11 26 6.2505 6.6717
6 11 27 4.1140 0.2379
6 11 28 5.3480 4.9665
6 11 29 3.6189 -5.5161
6 11 30 -3.1501 -1.7298
6 11 31 3.0659 -4.4411
6 11 32 -6.0243 -5.4698
6 11 33 4.9653 0.9696
6 11 34 -2.8417 -2.9208
6 11 35 4.9366 -2.9173
6 12 0 -6.8485 -4.6273
6 12 1 -4.1564 3.4562
6 12 2 -2.5393 -4.4590
6 12 3 14.6400 7.9883
6 12 4 9.2916 12.7522
6 12 5 -14.3497 2.8797
6 12 6 -1.9035 11.2856
6 12 7 3.9383 -2.7889
6 12 8 -6.4023 5.1065
6 12 9 1.6597 -6.7356
6 12 10 0.3328 -2.7313
6 12 11 -0.3084 -4.2399
6 12 12 10.8667 8.5859
6 12 13 -6.0030 -4.4898
6 12 14 -2.8528 -1.5006
6 12 15 -10.2195 -7.1435
6 12 16 0.1467 -7.0129
6 12 17 11.1870 -3.6999
6 12 18 3.2412 -0.9664
6 12 19 -0.4949 -3.4636
6 12 20 -2.2357 -0.5404
6 12 21 9.2674 -3.0474
6 12 22 -0.6902 -0.3709
6 12 23 5.7488 -6.2285
6 12 24 -1.8772 -2.5156
6 12 25 1.5446 -3.7955
6 12 26 -7.4984 2.3109
6 12 27 11.4053 -4.5653
6 12 28 1.3710 -12.9441
6 12 29 0.2428 0.0116
6 12 30 2.9714 -8.3946
6 12 31 -4.0644 1.4593
6 12 32 3.8125 -1.2122
6 12 33 -4.4844 5.1421
6 13 0 6.0748 -5.9686
6 13 1 5.4861 -1.8221
6 13 2 -10.5033 11.7351
6 13 3 -0.3986 -4.1195
6 13 4 -8.4892 2.6482
6 13 5 5.3716 -10.2227
6 13 6 3.7876 -13.0578
6 13 7 9.4539 5.2183
6 13 8 7.9953 4.0868
6 13 9 4.0906 -6.2075
6 13 10 -4.7114 -0.5776
6 13 11 -3.0671 -2.2284
6 13 12 -11.3539 2.2476
6 13 13 -1.3243 -6.5038
6 13 14 8.3550 -11.6174
6 13 15 1.0657 1.4265
6 13 16 -3.6216 5.4160
6 13 17 -7.3236 3.5116
6 13 18 -3.4781 -0.2727
6 13 19 -4.9285 -2.4940
6 13 20 -5.8694 -13.5536
6 13 21 1.5994 1.6139
6 13 22 -1.1894 0.0929
6 13 23 0.6668 3.5255
6 13 24 -7.9777 -8.4116
6 13 25 1.1334 4.0352
6 13 26 7.0579 -2.9277
6 13 27 -1.9241 2.6599
6 13 28 0.7402 4.2138
6 13 29 -4.8425 -3.1709
6 13 30 -8.5083 2.3088
6 13 31 -3.9621 -5.5294
6 14 0 -8.2465 -1.8510
6 14 1 4.8837 13.0088
6 14 2 -19.7432 0.0571
6 14 3 0.9114 -3.5833
6 14 4 6.6478 3.1123
6 14 5 3.2435 8.5415
6 14 6 -9.5248 9.5069
6 14 7 -8.9762 0.3306
6 14 8 -7.2511 -2.2804
6 14 9 -0.4675 -2.3632
6 14 10 -1.0393 -9.9666
6 14 11 -7.2770 -5.9880
6 14 12 -1.6498 10.1558
6 14 13 -3.4153 6.6943
6 14 14 -1.4964 13.1706
6 14 15 -4.2827 -4.2787
6 14 16 -6.2116 5.8638
6 14 17 -7.3807 -7.2878
6 14 18 7.1828 2.1141
6 14 19 1.4739 4.8631
6 14 20 3.8723 6.1494
6 14 21 -4.1070 5.7393
6 14 22 -3.3991 -0.0962
6 14 23 -5.8286 1.0805
6 14 24 7.1372 -0.0308
6 14 25 4.8008 -0.8680
6 14 26 0.5111 1.2353
6 14 27 -3.8743 0.3302
6 14 28 1.2948 -11.0223
6 15 0 -1.7733 -8.5093
6 15 1 8.9529 11.5371
6 15 2 6.6077 -1.1964
6 15 3 9.1038 8.2695
6 15 4 0.0744 4.6629
6 15 5 1.1201 6.6619
6 15 6 -0.8632 -2.2817
6 15 7 3.5647 -5.4824
6 15 8 9.1040 7.3075
6 15 9 7.9983 7.5179
6 15 10 -5.5376 7.8925
6 15 11 3.8581 -0.9412
6 15 12 -10.8626 4.2686
6 15 13 7.2081 2.1234
6 15 14 -6.1548 10.4240
6 15 15 20.5924 -3.4599
6 15 16 4.3330 3.3963
6 15 17 7.4897 1.3338
6 15 18 -1.0402 5.7826
6 15 19 3.5509 3.4751
6 15 20 -0.8745 1.5798
6 15 21 1.4442 -6.2328
6 15 22 7.2876 -4.3960
6 15 23 9.0389 -0.2552
6 15 24 1.4794 5.1359
6 16 0 6.6920 -3.8558
6 16 1 1.5021 2.5148
6 16 2 6.5228 0.7624
6 16 3 -3.0906 2.0304
6 16 4 0.2085 -5.9211
6 16 5 10.8054 -6.5860
6 16 6 5.4435 1.1309
6 16 7 3.3513 4.5749
6 16 8 -4.5875 -3.8764
6 16 9 -0.4916 5.5808
6 16 10 -3.7957 -9.2010
6 16 11 11.3510 1.7822
6 16 12 -5.0476 -10.6156
6 16 13 7.7938 10.6719
6 16 14 -0.6509 -4.4766
6 16 15 0.7468 3.8670
6 16 16 3.8369 -9.8870
6 16 17 5.1102 -0.9822
6 16 18 -3.2889 -9.4322
6 16 19 -1.2788 -8.1329
6 16 20 4.9250 -3.9485
6 17 0 1.9482 -2.7633
6 17 1 -3.1508 -5.7911
6 17 2 -4.9290 -1.4538
6 17 3 3.8322 -1.3083
6 17 4 3.3462 -5.6495
6 17 5 2.9494 -0.5891
6 17 6 1.7206 -0.2415
6 17 7 -6.2555 -2.9007
6 17 8 3.5416 -12.8617
6 17 9 2.9921 4.1242
6 17 10 5.2615 -2.0272
6 17 11 -3.2187 11.3792
6 17 12 3.5386 1.8540
6 17 13 -5.6998 -4.2923
6 17 14 4.9987 0.1391
7 0 1 -0.8272 -3.1517
7 0 2 -9.6181 -8.3283
7 0 3 -4.7017 -44.1821
7 0 4 9.5435 -8.2214
7 0 5 -5.3372 -25.1251
7 0 6 -14.6705 1.6404
7 0 7 2.5559 -25.8351
7 0 8 -7.1409 0.3636
7 0 9 4.6930 -4.9667
7 0 10 -0.7862 -0.1415
7 0 11 0.6840 -7.0722
7 0 12 0.7421 9.6295
7 0 13 6.4599 -13.1364
7 0 14 -17.8905 13.1495
7 0 15 10.0797 3.7516
7 0 16 -0.7080 -1.4631
7 0 17 -5.8065 4.9573
7 0 18 -10.7360 -14.6299
7 0 19 -14.8610 -0.5271
7 0 20 3.3839 -9.7761
7 0 21 -1.5114 -15.4136
7 0 22 6.0338 -0.1582
7 0 23 4.8532 7.2409
7 0 24 5.5744 0.8416
7 0 25 -3.5520 -12.4818
7 0 26 -4.4235 0.2027
7 0 27 0.8261 -1.2159
7 0 28 2.3962 8.8092
7 0 29 13.5912 16.2525
7 0 30 2.1732 12.4372
7 0 31 6.2150 10.9818
7 0 32 -1.5456 -0.4852
7 0 33 -9.1089 -3.3318
7 0 34 6.7664 -13.5951
7 0 35 -7.2579 2.4768
7 0 36 -8.1363 -8.3962
7 0 37 0.1811 3.6043
7 0 38 -1.3247 1.5453
7 0 39 -1.3336 -10.1958
7 0 40 -2.7471 0.9326
7 0 41 -1.2079 -5.3855
7 0 42 -4.2050 0.4696
7 0 43 6.8576 -3.5487
7 0 44 -4.0937 7.0583
7 1 0 2.6440 -2.6221
7 1 1 -3.2310 -17.7067
7 1 2 -22.4741 21.4306
7 1 3 -10.5653 6.7923
7 1 4 -26.5727 1.2259
7 1 5 -24.2223 16.5180
7 1 6 -35.7977 -6.1013
7 1 7 -17.2324 16.2939
7 1 8 -15.1905 -1.6036
7 1 9 -17.4268 4.6356
7 1 10 -24.8081 -3.3684
7 1 11 9.7885 11.1777
7 1 12 -8.3997 -22.1011
7 1 13 -1.2942 5.3552
7 1 14 0.3377 -10.6389
7 1 15 -4.2488 -5.3226
7 1 16 27.1503 0.3711
7 1 17 -2.4337 -8.9109
7 1 18 -2.3772 -0.6899
7 1 19 4.4951 1.5161
7 1 20 -14.2999 8.1750
7 1 21 -5.8699 11.1997
7 1 22 -15.9316 2.3295
7 1 23 6.0146 -5.2281
7 1 24 -12.6213 -0.7953
7 1 25 10.3997 -2.2809
7 1 26 -3.2387 -4.3681
7 1 27 -4.4662 6.7178
7 1 28 -3.9635 9.0070
7 1 29 6.0219 3.6999
7 1 30 9.9782 0.1675
7 1 31 12.7937 -17.2620
7 1 32 20.6234 9.8662
7 1 33 4.0186 -8.1197
7 1 34 14.9821 2.4294
7 1 35 -8.0882 4.1374
7 1 36 -11.9989 5.4970
7 1 37 6.1667 9.3579
7 1 38 -9.8351 6.5217
7 1 39 4.4085 7.4737
7 1 40 -1.8496 -2.9593
7 1 41 -1.0476 3.8724
7 1 42 -6.4441 -3.1545
7 1 43 2.4350 5.7651
7 1 44 -9.2958 -0.5835
7 2 0 -4.9624 -19.6751
7 2 1 20.5720 -3.9389
7 2 2 6.2374 15.8114
7 2 3 -16.6118 16.4118
7 2 4 17.0886 8.0986
7 2 5 2.4235 14.6172
7 2 6 16.5341 27.5804
7 2 7 0.1691 22.4877
7 2 8 11.3480 13.7385
7 2 9 -2.1994 29.5804
7 2 10 15.7699 13.8396
7 2 11 -11.0453 14.3119
7 2 12 2.6843 15.3898
7 2 13 6.6941 -8.9883
7 2 14 -11.5482 10.0743
7 2 15 -10.5145 -10.1459
7 2 16 -7.6706 -4.1677
7 2 17 -7.4750 1.8938
7 2 18 -0.5132 -24.6240
7 2 19 -11.8829 -2.0518
7 2 20 -2.2574 -10.4813
7 2 21 0.7669 21.1248
7 2 22 4.5811 -12.1329
7 2 23 1.0097 18.3695
7 2 24 9.7462 3.3643
7 2 25 -0.6904 9.7465
7 2 26 -0.8027 -3.9984
7 2 27 4.9257 3.8443
7 2 28 -6.8848 4.8157
7 2 29 17.9031 2.9096
7 2 30 -1.8284 5.7524
7 2 31 13.5691 -9.7053
7 2 32 -3.8042 3.0964
7 2 33 -6.9202 -14.4516
7 2 34 -0.2705 -16.5253
7 2 35 0.4565 -2.8111
7 2 36 -2.8307 -14.6886
7 2 37 -4.1759 7.3640
7 2 38 9.4090 3.7547
7 2 39 7.9012 1.2480
7 2 40 8.6574 -1.1087
7 2 41 1.6687 2.5631
7 2 42 1.5171 -3.7363
7 2 43 -0.0004 9.9535
7 2 44 -4.0668 1.8867
7 3 0 -8.2891 12.1277
7 3 1 -4.6178 -19.0394
7 3 2 -6.7880 -6.5901
7 3 3 4.3205 -11.6858
7 3 4 1.0341 -0.1029
7 3 5 17.9166 -4.7892
7 3 6 7.7443 2.3040
7 3 7 -3.0964 -8.5230
7 3 8 12.6881 2.3786
7 3 9 23.3685 -5.8438
7 3 10 -3.7566 -11.7351
7 3 11 16.8448 5.4664
7 3 12 2.0417 -10.2514
7 3 13 14.1659 -2.3273
7 3 14 1.1302 5.8960
7 3 15 -17.7097 -8.4202
7 3 16 -3.0220 9.8772
7 3 17 -8.8587 7.6071
7 3 18 -0.3745 10.5776
7 3 19 -27.1639 -2.1510
7 3 20 6.0960 6.8258
7 3 21 -20.7975 -3.2958
7 3 22 0.0024 16.5158
7 3 23 -9.1780 -5.5710
7 3 24 7.3451 0.6733
7 3 25 4.1536 5.4976
7 3 26 5.6253 -13.5591
7 3 27 7.2941 0.2046
7 3 28 -1.5527 -8.4633
7 3 29 6.9325 1.5086
7 3 30 1.4064 1.2803
7 3 31 8.0787 -11.4607
7 3 32 3.6749 -5.3244
7 3 33 -2.7881 0.2356
7 3 34 6.0754 -1.0093
7 3 35 -8.5362 1.0407
7 3 36 -7.8311 7.0431
7 3 37 -8.7888 2.1704
7 3 38 -1.1034 3.8418
7 3 39 -0.2008 5.8919
7 3 40 4.3733 -3.3190
7 3 41 -2.9033 -5.0184
7 3 42 0.4448 -9.1914
7 3 43 2.9307 -0.3377
7 4 0 -3.5280 0.4987
7 4 1 -0.3021 2.1114
7 4 2 12.7696 -7.5198
7 4 3 0.5240 19.6662
7 4 4 -13.2281 3.1017
7 4 5 -5.2048 -7.9261
7 4 6 -1.1600 -5.7147
7 4 7 -8.8563 11.7510
7 4 8 10.1804 -16.2996
7 4 9 -11.0522 10.6257
7 4 10 15.5755 -7.7863
7 4 11 4.5783 2.7313
7 4 12 -18.5459 2.5943
7 4 13 3.0709 1.9093
7 4 14 -4.7444 -1.5210
7 4 15 -2.4808 8.9792
7 4 16 -3.8239 7.5909
7 4 17 2.8738 8.5449
7 4 18 -2.5799 30.2542
7 4 19 18.7232 -2.3279
7 4 20 -11.4558 12.9980
7 4 21 7.1117 6.5866
7 4 22 -3.9229 13.4555
7 4 23 -0.4788 6.7086
7 4 24 11.0249 9.5552
7 4 25 1.1125 11.5490
7 4 26 -0.1220 2.1756
7 4 27 8.9172 -7.5339
7 4 28 -10.7709 -7.2429
7 4 29 -1.3807 -0.5031
7 4 30 -4.6952 -0.7524
7 4 31 -2.7475 -5.6847
7 4 32 4.4175 -1.6410
7 4 33 -3.3298 -4.0021
7 4 34 -8.6622 -0.9118
7 4 35 3.5133 -8.0359
7 4 36 5.4638 2.1595
7 4 37 -2.9359 -3.7793
7 4 38 7.1872 6.4762
7 4 39 2.4248 3.7611
7 4 40 7.5671 2.4718
7 4 41 3.8625 -1.8224
7 4 42 -5.5161 -0.8385
7 4 43 0.3011 -1.1018
7 5 0 2.6853 13.9800
7 5 1 -9.0599 8.6639
7 5 2 4.6824 1.9554
7 5 3 2.9106 -4.8088
7 5 4 1.8269 0.8415
7 5 5 -4.3842 -12.5198
7 5 6 20.6595 13.5372
7 5 7 -10.3005 -11.0202
7 5 8 -0.3495 10.8339
7 5 9 -4.9521 7.4073
7 5 10 7.4578 -8.7658
7 5 11 -8.8436 1.6959
7 5 12 8.8593 -11.2767
7 5 13 -6.2712 -7.1798
7 5 14 21.3066 8.1096
7 5 15 7.7556 6.8202
7 5 16 -6.6269 -4.8089
7 5 17 20.1709 9.5638
7 5 18 12.9531 -4.6182
7 5 19 15.0968 10.0034
7 5 20 8.9231 -7.5660
7 5 21 11.7866 -4.4344
7 5 22 6.6865 6.3680
7 5 23 7.8280 5.2726
7 5 24 -2.0703 -4.5757
7 5 25 10.2368 8.2764
7 5 26 9.9180 -9.4249
7 5 27 7.0163 1.1773
7 5 28 0.3730 -2.7078
7 5 29 -2.2885 -7.3549
7 5 30 -6.9885 3.7788
7 5 31 -3.1366 3.6075
7 5 32 -4.1335 -2.5861
7 5 33 3.1579 2.7934
7 5 34 -7.7839 -0.0517
7 5 35 8.7730 -5.9641
7 5 36 -4.4019 7.2229
7 5 37 -2.0223 -4.5123
7 5 38 -5.0604 -3.7148
7 5 39 0.4034 -0.4908
7 5 40 -3.2112 -6.6888
7 5 41 7.7818 1.9269
7 5 42 -0.6157 -5.2471
7 6 0 -4.3486 1.8269
7 6 1 4.0673 4.7553
7 6 2 -6.5377 -5.2090
7 6 3 16.0484 -6.5178
7 6 4 -5.1076 10.5437
7 6 5 7.7324 -4.6903
7 6 6 -5.3789 -3.2976
7 6 7 0.8034 -11.7421
7 6 8 0.3196 9.9764
7 6 9 -9.1815 -12.0198
7 6 10 -0.1922 15.9561
7 6 11 10.1284 -8.9586
7 6 12 -1.2945 15.5346
7 6 13 -6.4427 3.8108
7 6 14 -6.4511 -7.7495
7 6 15 -1.6866 1.6845
7 6 16 4.5326 -11.4021
7 6 17 -4.6182 -8.9428
7 6 18 0.5447 -5.7243
7 6 19 3.2171 -4.2809
7 6 20 4.3782 -16.1481
7 6 21 2.1763 -2.1058
7 6 22 1.4414 -10.2224
7 6 23 -3.0346 -2.2165
7 6 24 9.3728 -5.8497
7 6 25 3.8417 -4.1428
7 6 26 1.1570 3.4686
7 6 27 5.0130 5.4255
7 6 28 2.2211 -5.4970
7 6 29 -1.4470 -4.5183
7 6 30 0.8555 0.1139
7 6 31 -7.5186 7.5873
7 6 32 -0.6470 -0.2064
7 6 33 4.6189 13.3545
7 6 34 -5.1415 0.0566
7 6 35 2.3079 1.6215
7 6 36 -1.2541 -4.1869
7 6 37 -4.4480 -0.1480
7 6 38 0.2731 -7.1044
7 6 39 -4.0791 4.8164
7 6 40 -2.0055 2.9068
7 6 41 -1.9801 4.0426
7 7 0 5.4807 -17.4303
7 7 1 -6.4028 2.8801
7 7 2 -8.6571 -5.9401
7 7 3 1.1870 4.0384
7 7 4 -3.4310 -5.0925
7 7 5 2.6536 2.1209
7 7 6 -14.0467 -3.7222
7 7 7 13.1167 -3.1759
7 7 8 -18.1152 -8.0579
7 7 9 1.6049 0.1603
7 7 10 -5.4119 1.9695
7 7 11 4.8332 8.1935
7 7 12 9.7250 1.6491
7 7 13 -7.3628 -0.5221
7 7 14 9.6263 -2.2835
7 7 15 13.7417 3.7113
7 7 16 0.2882 2.8762
7 7 17 -12.9085 -0.2700
7 7 18 -0.5930 -0.0645
7 7 19 -6.8356 6.2873
7 7 20 -0.6858 1.6547
7 7 21 -3.4927 -0.1816
7 7 22 -5.1244 -6.6828
7 7 23 5.3444 -3.1872
7 7 24 -1.4941 0.4916
7 7 25 -7.7218 -5.1152
7 7 26 -2.0735 -3.6685
7 7 27 3.8356 -10.3997
7 7 28 3.0840 -0.7147
7 7 29 6.8872 -9.5380
7 7 30 6.0714 -1.5931
7 7 31 -3.1300 -2.1876
7 7 32 -0.0182 -0.6998
7 7 33 4.8748 5.7062
7 7 34 8.7741 1.5987
7 7 35 4.0116 -1.6957
7 7 36 5.8329 -1.9389
7 7 37 -2.9386 2.6043
7 7 38 -2.6380 1.1859
7 7 39 -1.4376 4.1825
7 7 40 -0.5286 3.6399
7 8 0 1.1230 -0.8201
7 8 1 -7.0558 11.1163
7 8 2 -1.2971 6.5572
7 8 3 -8.7410 11.3402
7 8 4 -0.0978 -4.8043
7 8 5 -4.5403 13.3793
7 8 6 0.3545 -3.9464
7 8 7 -2.8790 3.5299
7 8 8 2.0477 -1.2306
7 8 9 -6.1081 6.3080
7 8 10 -9.3355 15.6141
7 8 11 -3.3650 -8.3490
7 8 12 1.6875 0.8657
7 8 13 3.9484 1.9684
7 8 14 3.2544 -0.9465
7 8 15 -0.0915 -1.8656
7 8 16 5.1936 -1.4141
7 8 17 0.2897 -9.4506
7 8 18 1.8733 -5.0389
7 8 19 -5.4286 11.1622
7 8 20 7.0811 0.7936
7 8 21 4.9341 5.4712
7 8 22 -1.4692 -4.3514
7 8 23 5.6102 -3.9150
7 8 24 -6.6798 -2.2105
7 8 25 2.5547 0.2664
7 8 26 -7.2285 -8.2884
7 8 27 2.7602 5.6641
7 8 28 -10.2259 1.0924
7 8 29 -5.5101 2.6524
7 8 30 -6.9672 -7.8550
7 8 31 -3.9086 -1.4405
7 8 32 -2.1976 -5.0505
7 8 33 -0.7847 -0.5314
7 8 34 2.6707 2.0002
7 8 35 0.5876 -4.6251
7 8 36 4.6582 -6.9075
7 8 37 -2.9036 -1.7791
7 8 38 -2.8792 5.5862
7 8 39 1.0959 -7.9053
7 9 0 11.6324 3.1834
7 9 1 3.1203 -3.1177
7 9 2 6.2385 0.1715
7 9 3 5.8857 2.0964
7 9 4 12.5417 3.7215
7 9 5 7.3084 -0.9815
7 9 6 3.5936 5.6657
7 9 7 1.6522 2.1003
7 9 8 -3.2825 1.2141
7 9 9 8.5145 7.8331
7 9 10 -8.6005 -4.5147
7 9 11 3.0582 4.9538
7 9 12 12.8657 8.3374
7 9 13 -0.8765 3.0250
7 9 14 -8.1725 5.3774
7 9 15 -1.1540 -0.7587
7 9 16 13.3278 -0.0086
7 9 17 -1.7148 -4.9196
7 9 18 -0.6360 -1.3443
7 9 19 -9.2355 -3.4487
7 9 20 1.1730 -3.2955
7 9 21 3.0150 7.1745
7 9 22 3.1471 -4.7055
7 9 23 -4.1354 -1.6114
7 9 24 2.5084 -7.6677
7 9 25 -12.4399 3.9894
7 9 26 0.5166 -3.9425
7 9 27 -9.8315 0.2286
7 9 28 1.3049 -0.6872
7 9 29 -8.8709 3.0422
7 9 30 6.2086 2.9931
7 9 31 3.1824 7.6843
7 9 32 2.3098 2.0289
7 9 33 -2.3584 -0.7732
7 9 34 -1.1092 0.0568
7 9 35 2.4954 -2.6455
7 9 36 -4.4700 -3.6367
7 9 37 5.9580 -2.7265
7 9 38 -9.9724 -3.2018
7 10 0 -1.4887 -5.5461
7 10 1 -6.3668 -9.5238
7 10 2 -1.3356 -6.4579
7 10 3 1.4583 -0.6251
7 10 4 -5.8960 -4.3263
7 10 5 1.7649 -8.9161
7 10 6 2.6307 -7.7258
7 10 7 -7.8832 4.0373
7 10 8 6.3793 -9.0625
7 10 9 0.7870 -5.8129
7 10 10 1.9661 4.9259
7 10 11 5.7775 3.5273
7 10 12 -0.0628 2.0497
7 10 13 1.7095 -2.0566
7 10 14 6.0915 0.6458
7 10 15 5.4896 -2.9404
7 10 16 6.2336 5.0722
7 10 17 4.2581 2.3599
7 10 18 1.1475 -6.5338
7 10 19 -2.4138 -7.5713
7 10 20 -1.8814 2.1221
7 10 21 -0.3193 4.7274
7 10 22 -0.3207 7.8086
7 10 23 -0.5414 -7.4185
7 10 24 2.3240 4.7637
7 10 25 -1.6048 -4.2032
7 10 26 -6.0644 10.1118
7 10 27 -0.9349 0.5503
7 10 28 4.0845 10.7206
7 10 29 -7.2721 4.3270
7 10 30 -0.1040 10.7959
7 10 31 -2.2435 3.5373
7 10 32 5.6556 -2.4062
7 10 33 0.1294 -4.0248
7 10 34 -0.7760 -5.7181
7 10 35 -4.5789 4.9707
7 10 36 -0.8050 -4.0404
7 11 0 7.4497 4.1221
7 11 1 9.5206 9.6827
7 11 2 -1.2441 -0.5686
7 11 3 -8.1843 4.2623
7 11 4 -6.5617 5.8741
7 11 5 -1.6638 -0.9455
7 11 6 -3.3991 5.8323
7 11 7 -1.9376 1.3043
7 11 8 -5.0858 -2.3024
7 11 9 3.1306 5.7164
7 11 10 1.3088 3.9908
7 11 11 -10.4410 -3.1985
7 11 12 -3.6949 -0.2883
7 11 13 8.2572 -3.7877
7 11 14 7.4229 1.1574
7 11 15 -6.5500 -2.6246
7 11 16 1.6848 -8.2466
7 11 17 2.0222 -2.5051
7 11 18 3.5260 -5.4952
7 11 19 0.6935 -0.0059
7 11 20 -4.0294 -7.2988
7 11 21 -0.2652 -0.9287
7 11 22 -4.8057 -1.1434
7 11 23 8.4581 -0.1977
7 11 24 1.6261 -5.1699
7 11 25 3.2230 1.0524
7 11 26 -6.2408 5.1631
7 11 27 3.1267 -4.0354
7 11 28 2.0680 3.2562
7 11 29 7.7914 -7.4281
7 11 30 7.8067 4.1708
7 11 31 8.8071 -2.2817
7 11 32 7.5634 7.0205
7 11 33 5.7496 -0.7203
7 11 34 -1.4283 0.6738
7 12 0 1.7402 5.9625
7 12 1 -4.3254 -5.5118
7 12 2 -2.9281 -20.1714
7 12 3 11.5443 -5.9334
7 12 4 4.3809 -6.0096
7 12 5 -2.3815 9.3525
7 12 6 8.5575 -1.6805
7 12 7 2.5925 3.8166
7 12 8 -0.4034 12.3273
7 12 9 2.9710 -0.6537
7 12 10 -1.0916 -2.3720
7 12 11 6.0337 -3.8282
7 12 12 3.5663 1.7356
7 12 13 0.5548 1.6332
7 12 14 4.0204 12.2974
7 12 15 -3.9090 -4.6189
7 12 16 -1.3793 -1.5813
7 12 17 -5.3517 -2.2731
7 12 18 -2.4581 3.2304
7 12 19 -5.2793 0.4727
7 12 20 2.2692 -4.8259
7 12 21 0.1456 -0.8076
7 12 22 -4.9206 -0.9638
7 12 23 -7.9687 1.3867
7 12 24 -6.4895 -0.9508
7 12 25 -0.6183 1.2319
7 12 26 -7.0206 -2.5247
7 12 27 5.4535 0.8335
7 12 28 -1.8445 4.8099
7 12 29 6.2055 3.1600
7 12 30 -13.0552 -7.5212
7 12 31 -5.0896 -1.7719
7 12 32 -2.2860 -9.9393
7 13 0 4.6255 -15.8857
7 13 1 -4.5474 8.2723
7 13 2 11.2960 4.6812
7 13 3 -10.1883 -1.5761
7 13 4 -10.4968 4.1231
7 13 5 -10.5736 -6.2684
7 13 6 -8.5553 -6.1579
7 13 7 4.8830 -1.0933
7 13 8 0.4522 -3.9592
7 13 9 5.4171 -3.4471
7 13 10 13.4765 1.9513
7 13 11 11.2668 -0.8204
7 13 12 -10.2349 3.5832
7 13 13 0.4506 -6.3181
7 13 14 -8.1821 -5.8606
7 13 15 10.6985 2.3719
7 13 16 5.3982 -2.6971
7 13 17 5.7452 -2.9277
7 13 18 -0.0391 7.4273
7 13 19 -0.9367 10.8243
7 13 20 -0.2310 -0.5998
7 13 21 3.6299 -2.3263
7 13 22 -0.7879 -1.2390
7 13 23 -5.3152 2.1559
7 13 24 -3.4858 1.9676
7 13 25 1.8512 9.2158
7 13 26 1.4311 5.8380
7 13 27 2.2190 12.2612
7 13 28 5.3975 -4.3038
7 13 29 -2.2311 0.0614
7 14 0 5.1579 9.4142
7 14 1 -2.5946 5.8045
7 14 2 -12.1807 2.0104
7 14 3 -1.6715 -4.6553
7 14 4 6.4532 -9.3944
7 14 5 4.2586 8.2158
7 14 6 -4.1089 6.4844
7 14 7 1.2030 3.1006
7 14 8 -6.2332 5.2074
7 14 9 -0.4321 3.4928
7 14 10 -7.7510 -10.2020
7 14 11 0.4706 0.3226
7 14 12 6.0848 -26.1934
7 14 13 -4.0284 -4.0011
7 14 14 3.2306 -4.6035
7 14 15 2.9429 7.5750
7 14 16 -2.3616 1.6442
7 14 17 -5.8259 -1.4163
7 14 18 3.6488 -10.6855
7 14 19 2.0727 -6.9516
7 14 20 3.7864 -2.0946
7 14 21 9.9852 0.7505
7 14 22 2.3471 0.9533
7 14 23 -2.0402 -1.5931
7 14 24 -1.6146 -1.8504
7 14 25 1.5850 6.0089
7 14 26 5.2696 5.5241
7 15 0 2.5748 -2.2636
7 15 1 0.3453 -6.6689
7 15 2 8.0371 0.3355
7 15 3 -1.9153 6.5212
7 15 4 2.9050 1.9946
7 15 5 -2.1046 10.1981
7 15 6 -9.1850 -5.7117
7 15 7 -1.3619 -0.4206
7 15 8 10.4267 -2.7681
7 15 9 -10.8013 1.0192
7 15 10 9.1453 3.6003
7 15 11 -8.5304 -1.2530
7 15 12 -0.4396 3.7024
7 15 13 -11.2043 4.3511
7 15 14 -12.2229 -2.4069
7 15 15 -17.7021 -5.9072
7 15 16 -4.4608 2.2494
7 15 17 5.2057 -2.8996
7 15 18 0.0477 -8.9098
7 15 19 1.4295 8.1823
7 15 20 -10.1216 -0.2854
7 15 21 -7.7542 -2.8802
7 15 22 -1.9661 -9.4772
7 15 23 1.1583 0.7296
7 16 0 3.1370 3.3085
7 16 1 4.3727 -9.2224
7 16 2 4.9861 -0.4227
7 16 3 -8.7609 -2.7079
7 16 4 1.2724 -12.3412
7 16 5 1.1767 -2.3898
7 16 6 5.1353 7.5546
7 16 7 4.0488 -4.2090
7 16 8 0.2922 8.6953
7 16 9 -1.6909 -1.8274
7 16 10 -0.9206 1.3082
7 16 11 -5.1011 2.5820
7 16 12 -0.3678 5.9016
7 16 13 4.8081 0.3459
7 16 14 -2.7895 2.6462
7 16 15 -0.4387 13.5719
7 16 16 10.8052 1.3228
7 16 17 -9.2670 19.3355
7 16 18 -1.2887 5.2375
7 17 0 -4.5757 1.9101
7 17 1 -1.7099 -1.0690
7 17 2 5.0697 -1.5106
7 17 3 -9.9352 -6.0489
7 17 4 -9.6336 -1.3320
7 17 5 -3.4888 4.2403
7 17 6 -5.6181 3.6794
7 17 7 -7.8748 -2.0344
7 17 8 3.0508 -1.2230
7 17 9 1.4746 -2.7080
7 17 10 1.4324 -0.7591
8 0 0 17.8490 -7.1752
8 0 1 10.1864 25.8743
8 0 2 -4.2993 -4.9640
8 0 3 -13.7833 0.3538
8 0 4 4.1170 -0.9893
8 0 5 -11.1568 0.6534
8 0 6 -20.4839 2.4178
8 0 7 -0.6389 -11.7891
8 0 8 -10.5401 8.5330
8 0 9 -5.9171 -5.7666
8 0 10 -6.0900 7.2786
8 0 11 -14.0416 -6.7725
8 0 12 -2.2736 -3.0648
8 0 13 0.6327 -4.5305
8 0 14 -6.1463 -6.0416
8 0 15 16.0043 -6.5560
8 0 16 -6.9658 0.4860
8 0 17 10.5150 12.9937
8 0 18 6.4705 -0.9475
8 0 19 -1.7607 9.5119
8 0 20 -7.9059 -5.8349
8 0 21 -6.6891 13.0817
8 0 22 10.3881 1.8790
8 0 23 -5.5521 5.9545
8 0 24 4.2848 10.9272
8 0 25 -5.0738 -2.8205
8 0 26 9.4969 3.3067
8 0 27 -4.3065 -14.6954
8 0 28 6.1391 -6.5573
8 0 29 -0.5600 -6.3078
8 0 30 4.6199 -1.6107
8 0 31 9.8970 7.4166
8 0 32 6.1962 1.1290
8 0 33 13.7852 2.1620
8 0 34 7.6238 -5.2086
8 0 35 0.4246 1.7845
8 0 36 8.5662 -2.9355
8 0 37 -11.2339 -6.7632
8 0 38 -1.1394 7.2061
8 0 39 -4.5686 6.7090
8 0 40 0.4937 7.6904
8 0 41 -0.3899 -4.5633
8 0 42 0.5808 1.4871
8 0 43 -6.0957 -5.9250
8 1 0 15.1211 2.6070
8 1 1 12.7090 -17.8335
8 1 2 12.1567 -3.8093
8 1 3 5.0269 -16.5540
8 1 4 -8.8440 -2.7850
8 1 5 8.5540 11.1729
8 1 6 -4.5695 1.8003
8 1 7 8.1473 3.6663
8 1 8 -7.0501 17.3329
8 1 9 3.1613 8.2138
8 1 10 0.7745 2.0934
8 1 11 -2.8723 6.2585
8 1 12 4.8513 4.1707
8 1 13 0.4810 26.8360
8 1 14 -2.4942 -4.4951
8 1 15 -9.5499 0.3014
8 1 16 -0.7280 -2.8984
8 1 17 -13.0747 -3.7211
8 1 18 13.7900 -6.2546
8 1 19 -2.8378 -15.9965
8 1 20 9.0793 5.1059
8 1 21 -1.1959 -3.5340
8 1 22 -9.1959 6.8738
8 1 23 8.0591 -2.0162
8 1 24 -2.2145 2.5368
8 1 25 6.2204 -9.0770
8 1 26 2.6017 2.8691
8 1 27 3.9154 5.0521
8 1 28 0.0782 -0.2180
8 1 29 -14.2640 3.3106
8 1 30 -10.4243 -0.5043
8 1 31 -5.3261 2.5374
8 1 32 -1.2475 -4.0544
8 1 33 -2.2650 -10.1834
8 1 34 -1.6746 2.2471
8 1 35 4.3214 -18.7701
8 1 36 -3.8204 -2.0404
8 1 37 -2.0556 -8.3475
8 1 38 -8.4564 1.0642
8 1 39 2.1820 6.9254
8 1 40 -0.9079 5.1924
8 1 41 9.9061 0.1631
8 1 42 7.4210 3.4685
8 1 43 1.3211 0.3080
8 2 0 -12.1648 -4.6944
8 2 1 16.2928 -2.9463
8 2 2 2.6382 -10.3940
8 2 3 -14.1873 -3.7727
8 2 4 -13.9223 -15.9720
8 2 5 1.9264 3.6620
8 2 6 -13.3406 -1.5328
8 2 7 -4.7314 1.1235
8 2 8 4.9756 -5.4556
8 2 9 1.1757 -6.8451
8 2 10 12.7757 6.7959
8 2 11 -4.7674 0.3633
8 2 12 2.0201 -3.8058
8 2 13 3.8113 -3.6332
8 2 14 8.4028 1.7389
8 2 15 11.9750 -11.5722
8 2 16 6.2924 6.6052
8 2 17 0.1091 -3.7860
8 2 18 -16.9462 10.5970
8 2 19 -1.5418 3.8432
8 2 20 -4.0019 -10.0541
8 2 21 -10.5779 2.3133
8 2 22 -7.2307 -4.6660
8 2 23 1.0124 5.0248
8 2 24 4.0104 4.5731
8 2 25 -14.1480 5.4390
8 2 26 1.7627 1.3562
8 2 27 -2.8147 3.8448
8 2 28 4.0078 -2.3241
8 2 29 4.3391 2.0339
8 2 30 2.5354 -0.6308
8 2 31 8.9333 11.9918
8 2 32 -3.0975 7.9388
8 2 33 9.8388 10.6041
8 2 34 -5.8852 0.9533
8 2 35 4.0267 7.8269
8 2 36 -3.5593 6.0657
8 2 37 -7.9470 2.4433
8 2 38 -7.6918 -1.9555
8 2 39 -5.6797 5.8076
8 2 40 1.1595 8.2526
8 2 41 6.7719 -0.9954
8 2 42 7.6595 -3.6039
8 3 0 -3.4332 6.1784
8 3 1 -11.0668 2.6206
8 3 2 3.4915 -0.2560
8 3 3 -8.3098 8.2429
8 3 4 -2.4908 -16.8663
8 3 5 -7.8996 5.4082
8 3 6 -1.9085 11.0824
8 3 7 0.7789 -0.1091
8 3 8 -1.9399 7.9917
8 3 9 -5.1923 8.8923
8 3 10 0.3768 2.1815
8 3 11 -2.1293 5.2024
8 3 12 2.3762 -11.3824
8 3 13 7.1280 1.7760
8 3 14 -4.8740 11.6148
8 3 15 -1.4569 -2.2017
8 3 16 -4.3200 -14.8880
8 3 17 -5.8101 -6.3002
8 3 18 -3.6765 3.9456
8 3 19 -3.4397 -1.5824
8 3 20 8.4767 8.5897
8 3 21 3.6079 2.9902
8 3 22 -2.7240 15.3661
8 3 23 -5.9691 -9.0939
8 3 24 6.9846 13.4529
8 3 25 -1.8219 2.4568
8 3 26 8.5885 6.7957
8 3 27 1.5822 10.3434
8 3 28 13.8841 1.2189
8 3 29 2.8845 3.2074
8 3 30 6.2856 -8.5879
8 3 31 -1.8676 -0.2868
8 3 32 7.2250 -6.4502
8 3 33 6.9789 -0.8794
8 3 34 0.5325 -5.7582
8 3 35 10.2037 -0.1627
8 3 36 4.5065 -2.9734
8 3 37 7.8132 -6.4524
8 3 38 6.2963 -0.4746
8 3 39 6.1343 5.9545
8 3 40 1.9371 6.7701
8 3 41 -1.1131 5.7800
8 3 42 5.0938 -1.0356
8 4 0 -4.5723 -3.8265
8 4 1 -15.2248 -10.0244
8 4 2 21.7106 3.4994
8 4 3 -2.7056 4.9181
8 4 4 -1.8204 7.0623
8 4 5 -2.7103 -1.8419
8 4 6 -0.4649 7.7117
8 4 7 -10.0111 0.2804
8 4 8 3.5120 4.3016
8 4 9 -12.9293 -10.3210
8 4 10 15.7474 -0.5365
8 4 11 5.5923 4.4672
8 4 12 -0.5755 1.8920
8 4 13 5.3168 -8.8496
8 4 14 -2.8255 -5.8783
8 4 15 -0.9974 -0.2689
8 4 16 -0.3609 -5.3006
8 4 17 7.5376 1.0303
8 4 18 -8.6476 0.5986
8 4 19 -3.9745 6.5980
8 4 20 -8.3064 8.4029
8 4 21 14.1453 -2.5183
8 4 22 -7.6813 -1.9421
8 4 23 4.6898 -8.5831
8 4 24 6.9295 5.1822
8 4 25 -0.1173 -2.0285
8 4 26 2.0755 2.1810
8 4 27 -0.2352 -7.0345
8 4 28 12.3247 1.1626
8 4 29 9.6195 -6.4488
8 4 30 0.7111 -10.4867
8 4 31 -1.7750 -5.7895
8 4 32 1.3962 -13.2828
8 4 33 -6.3752 4.9820
8 4 34 -1.8039 -10.1375
8 4 35 -0.3335 -1.8252
8 4 36 -0.1858 0.0054
8 4 37 -0.7191 -0.5109
8 4 38 0.6946 -4.6917
8 4 39 -9.1170 -10.5239
8 4 40 -0.3579 -4.3437
8 4 41 2.8650 -5.3551
8 5 0 2.8448 8.7134
8 5 1 -2.4952 -13.4309
8 5 2 -9.3086 5.3791
8 5 3 3.5163 3.4998
8 5 4 -5.3671 7.2095
8 5 5 4.4929 -11.2607
8 5 6 -0.7992 10.3731
8 5 7 9.7184 -7.0474
8 5 8 4.9268 13.6748
8 5 9 5.6180 0.1336
8 5 10 -9.0936 7.4188
8 5 11 -8.5404 14.3568
8 5 12 -5.6668 -1.3603
8 5 13 -6.0289 -10.2068
8 5 14 6.7938 -5.0010
8 5 15 -15.8050 8.2363
8 5 16 -4.1782 3.7912
8 5 17 -0.0115 -4.0395
8 5 18 -5.3154 0.1172
8 5 19 -4.3560 5.6711
8 5 20 -2.1084 -5.9484
8 5 21 6.4354 3.0793
8 5 22 5.7281 7.1906
8 5 23 1.3864 3.4575
8 5 24 -7.7918 1.4268
8 5 25 2.9901 -5.7496
8 5 26 -2.0686 -1.5059
8 5 27 -0.4131 5.7090
8 5 28 1.6717 -1.6233
8 5 29 -5.9527 2.9863
8 5 30 6.2920 -2.4897
8 5 31 -9.9727 -9.9412
8 5 32 -2.1026 -1.5054
8 5 33 -11.2547 1.2639
8 5 34 -8.2769 -0.1054
8 5 35 -5.6892 0.7631
8 5 36 -1.4989 4.6239
8 5 37 0.6869 -3.3909
8 5 38 -0.7110 -1.3703
8 5 39 2.4149 -1.7353
8 5 40 -4.8138 -1.5040
8 5 41 -4.7395 3.9953
8 6 0 0.5202 -2.2476
8 6 1 -7.3603 2.6410
8 6 2 -10.7147 -9.5611
8 6 3 6.9757 -2.9467
8 6 4 -4.1432 0.9202
8 6 5 10.2704 2.3110
8 6 6 -1.9132 -2.4742
8 6 7 7.8224 5.2148
8 6 8 0.7717 -2.3876
8 6 9 -4.4691 -8.7789
8 6 10 -2.8468 -8.4700
8 6 11 12.5951 -11.2893
8 6 12 7.0847 21.8803
8 6 13 7.8406 5.1831
8 6 14 -2.1343 8.0919
8 6 15 5.2276 6.7592
8 6 16 -10.8483 3.4869
8 6 17 5.2112 7.4915
8 6 18 7.2799 2.3164
8 6 19 -1.5693 -4.7618
8 6 20 -3.1972 4.9191
8 6 21 -1.0630 8.5007
8 6 22 -1.0527 -2.6787
8 6 23 0.4393 0.5678
8 6 24 4.2402 -7.9726
8 6 25 2.1520 0.8257
8 6 26 7.8050 1.2479
8 6 27 -8.5757 -3.5505
8 6 28 -3.0873 1.6820
8 6 29 5.4315 -1.3011
8 6 30 5.3792 1.7630
8 6 31 -0.5175 -1.3423
8 6 32 1.4836 0.4597
8 6 33 -3.9638 0.2919
8 6 34 -2.7365 7.8351
8 6 35 -0.9746 6.1912
8 6 36 2.4598 6.9928
8 6 37 -3.0091 6.6535
8 6 38 0.5409 -1.7494
8 6 39 1.6983 -1.8556
8 6 40 -2.7489 -0.3795
8 7 0 2.5768 5.5968
8 7 1 1.2581 -1.1157
8 7 2 -3.1474 -6.6037
8 7 3 -6.3356 4.0626
8 7 4 -3.2836 4.5264
8 7 5 -4.5097 3.8101
8 7 6 -0.9936 -4.8431
8 7 7 0.3056 -5.7191
8 7 8 -5.1233 -9.4324
8 7 9 10.8987 6.5077
8 7 10 -8.8385 -11.1648
8 7 11 -1.9644 9.8137
8 7 12 -10.6130 -0.3001
8 7 13 -5.2419 6.6712
8 7 14 11.9914 -20.8614
8 7 15 8.4497 -0.5429
8 7 16 3.2667 4.8075
8 7 17 8.6663 1.1058
8 7 18 5.1485 -1.2800
8 7 19 -0.2559 0.0093
8 7 20 0.4738 2.2073
8 7 21 -9.8147 1.3879
8 7 22 6.3356 1.6921
8 7 23 1.3594 2.6929
8 7 24 5.5837 8.9579
8 7 25 -6.2297 -1.0055
8 7 26 -1.4297 1.0614
8 7 27 -2.6492 -1.9510
8 7 28 0.9874 2.4711
8 7 29 -1.5379 -2.1719
8 7 30 -2.4508 8.3492
8 7 31 1.4160 -2.2594
8 7 32 -3.2164 2.4532
8 7 33 4.1187 -4.4820
8 7 34 -0.3759 6.3587
8 7 35 0.0944 -1.9103
8 7 36 5.8106 1.5864
8 7 37 6.6936 4.1842
8 7 38 0.4617 -4.7364
8 7 39 3.8495 6.0511
8 8 0 1.8453 1.0126
8 8 1 4.8875 -4.1690
8 8 2 -3.5827 1.7754
8 8 3 -6.7456 2.0225
8 8 4 -1.8517 3.9123
8 8 5 -0.1281 6.0787
8 8 6 5.3532 -2.3679
8 8 7 -11.7443 2.5092
8 8 8 10.7889 -4.4050
8 8 9 -14.3695 7.5131
8 8 10 0.5688 0.2704
8 8 11 -14.3462 -5.7370
8 8 12 8.3073 2.2345
8 8 13 2.5390 4.7253
8 8 14 0.3188 4.3791
8 8 15 -0.7735 3.5763
8 8 16 -3.5761 -3.0045
8 8 17 -6.2112 -4.3597
8 8 18 4.6121 0.8144
8 8 19 5.8677 -9.8690
8 8 20 3.5857 1.1857
8 8 21 -1.6000 -1.5339
8 8 22 4.1089 11.8091
8 8 23 6.0947 -3.4510
8 8 24 1.4928 2.9038
8 8 25 6.4065 -4.1194
8 8 26 2.1659 -1.7419
8 8 27 12.6991 0.8643
8 8 28 -1.4200 1.2390
8 8 29 5.9576 1.6069
8 8 30 -6.5050 -6.4931
8 8 31 7.0423 3.4736
8 8 32 -0.9735 0.5384
8 8 33 9.9983 2.1872
8 8 34 3.5348 -0.7292
8 8 35 -0.1510 -3.1804
8 8 36 8.7699 -5.5383
8 8 37 -1.2154 2.6909
8 8 38 2.9157 -4.8766
8 9 0 -7.9553 3.3233
8 9 1 -4.8485 7.9564
8 9 2 -3.2175 3.6011
8 9 3 -1.4153 -3.5434
8 9 4 -2.0225 4.4374
8 9 5 -0.3016 0.8699
8 9 6 5.6209 13.6783
8 9 7 -0.4667 -9.1923
8 9 8 -1.1073 9.5925
8 9 9 -3.3550 -2.6039
8 9 10 -2.4256 6.3234
8 9 11 1.9816 0.7647
8 9 12 2.2512 1.1436
8 9 13 -4.9620 10.3586
8 9 14 -0.9521 6.0995
8 9 15 4.1351 -13.7934
8 9 16 1.9730 1.6442
8 9 17 6.1859 5.2013
8 9 18 -1.2711 7.8771
8 9 19 3.8681 -5.4357
8 9 20 -4.9998 -0.7973
8 9 21 3.4757 -6.1516
8 9 22 -3.0558 -4.8071
8 9 23 3.1166 -0.8540
8 9 24 7.2669 -7.0529
8 9 25 0.1806 0.3326
8 9 26 -1.6894 -8.9685
8 9 27 -5.1438 0.9924
8 9 28 3.0132 -9.2906
8 9 29 -4.3836 -0.8113
8 9 30 0.8080 -8.8388
8 9 31 -5.0509 2.9170
8 9 32 -4.7171 1.4092
8 9 33 0.0761 1.5014
8 9 34 5.0172 -3.9343
8 9 35 -1.8725 -6.5532
8 9 36 -0.5883 -3.8996
8 10 0 -2.8586 6.2243
8 10 1 6.4484 10.1424
8 10 2 13.4975 2.4068
8 10 3 6.5745 4.9735
8 10 4 1.2509 3.5064
8 10 5 4.6717 0.3404
8 10 6 -0.9741 3.6388
8 10 7 5.2860 3.0296
8 10 8 0.0880 -1.0747
8 10 9 1.5206 -2.2829
8 10 10 8.3462 4.8346
8 10 11 -0.4626 0.8588
8 10 12 -6.5591 2.5398
8 10 13 7.7397 3.3826
8 10 14 -2.0169 0.4590
8 10 15 6.8134 3.2036
8 10 16 -0.1168 -0.6936
8 10 17 0.0604 0.3324
8 10 18 -8.0228 -5.9525
8 10 19 5.7215 -1.5342
8 10 20 5.5933 -3.2133
8 10 21 0.8187 -0.5601
8 10 22 -3.8367 2.0778
8 10 23 -5.9551 -3.5491
8 10 24 -1.2317 -1.3680
8 10 25 -5.3914 -4.8968
8 10 26 -2.6167 -0.5692
8 10 27 -6.5857 -6.1807
8 10 28 -2.0298 5.5008
8 10 29 -1.2295 4.0396
8 10 30 2.2486 -0.5558
8 10 31 -6.5687 -1.0093
8 10 32 3.5139 5.2308
8 10 33 -2.4296 3.2100
8 10 34 7.0209 6.3916
8 11 0 10.5904 -4.0454
8 11 1 4.6676 -10.5968
8 11 2 7.1109 7.3717
8 11 3 9.5679 -8.2617
8 11 4 9.2923 -8.7645
8 11 5 0.0181 -9.8725
8 11 6 -0.6908 1.9242
8 11 7 2.1532 -5.0324
8 11 8 -0.5066 0.4101
8 11 9 5.7681 -0.5469
8 11 10 0.5775 0.4429
8 11 11 -4.6402 4.0330
8 11 12 2.0796 -6.8292
8 11 13 4.2131 0.1557
8 11 14 2.9277 6.6552
8 11 15 0.9366 5.5994
8 11 16 5.9657 -7.3297
8 11 17 2.0336 -0.7903
8 11 18 0.2734 0.9993
8 11 19 -4.7707 7.0240
8 11 20 -1.0566 1.7065
8 11 21 1.5299 3.7219
8 11 22 0.4788 -4.7753
8 11 23 1.8016 -3.4913
8 11 24 -0.7291 -2.3136
8 11 25 3.1778 4.8003
8 11 26 -7.2386 2.8020
8 11 27 -6.9183 6.6357
8 11 28 -4.0367 6.6012
8 11 29 0.2064 -0.4361
8 11 30 0.2157 7.9708
8 11 31 5.8528 -9.7221
8 11 32 -6.0335 2.2201
8 12 0 -14.4476 5.3536
8 12 1 -9.2585 -0.6572
8 12 2 -13.7483 -0.7268
8 12 3 5.6807 -8.0201
8 12 4 -8.7391 -4.4545
8 12 5 3.3544 -6.7415
8 12 6 -6.6718 -13.1904
8 12 7 -1.0688 -0.8986
8 12 8 -0.2105 5.5195
8 12 9 -1.6156 -0.3442
8 12 10 -3.1121 0.8929
8 12 11 7.1656 2.4023
8 12 12 2.3947 -0.6666
8 12 13 2.5344 0.3571
8 12 14 4.7560 1.9011
8 12 15 -1.0494 -2.9789
8 12 16 6.6069 -1.1545
8 12 17 0.6674 -6.4329
8 12 18 1.4996 0.9082
8 12 19 -5.9840 -4.0108
8 12 20 6.7540 -0.3418
8 12 21 4.8156 3.8532
8 12 22 11.0323 -0.9834
8 12 23 1.2648 -3.2603
8 12 24 -0.6602 -9.6736
8 12 25 -10.6051 -1.5788
8 12 26 -4.1099 -3.0035
8 12 27 4.3901 -0.7914
8 12 28 1.8474 2.8245
8 12 29 12.2425 14.2193
8 12 30 0.5562 0.8225
8 13 0 -1.6387 -5.6836
8 13 1 6.5492 4.0658
8 13 2 0.9845 -8.4376
8 13 3 -4.0344 14.3229
8 13 4 4.2037 2.7075
8 13 5 -0.4071 1.1346
8 13 6 -6.7000 -1.2492
8 13 7 -4.9767 4.1991
8 13 8 -9.9084 -7.2013
8 13 9 -6.0987 1.5426
8 13 10 8.2875 -5.5384
8 13 11 4.1174 0.6855
8 13 12 3.6493 3.5676
8 13 13 4.2563 -9.0567
8 13 14 1.9211 -2.8841
8 13 15 4.1502 -8.1560
8 13 16 -8.1442 -4.8481
8 13 17 4.1591 -4.2328
8 13 18 4.4636 1.8298
8 13 19 -5.8252 -1.7384
8 13 20 -3.0544 3.0517
8 13 21 -1.0935 -0.6918
8 13 22 5.5675 -2.3240
8 13 23 -5.9279 -8.7025
8 13 24 -2.5610 -7.7642
8 13 25 -5.4344 -3.7989
8 13 26 -5.2468 2.6537
8 13 27 -10.3046 11.1241
8 14 0 13.4499 2.7294
8 14 1 -0.9281 -1.7956
8 14 2 -3.6177 3.8647
8 14 3 -4.5993 -3.9981
8 14 4 2.1288 -4.8874
8 14 5 -5.3801 5.4228
8 14 6 3.7365 -4.3874
8 14 7 -4.5418 -6.3491
8 14 8 3.1494 6.6120
8 14 9 2.1610 2.5642
8 14 10 -6.0881 9.5837
8 14 11 -1.0708 1.1606
8 14 12 -8.1048 -3.4460
8 14 13 -0.5198 -1.0794
8 14 14 2.1773 -14.1741
8 14 15 -7.1899 -2.8186
8 14 16 -3.5567 3.7524
8 14 17 -7.7966 -4.1269
8 14 18 -5.9557 2.6898
8 14 19 -4.4823 -1.7186
8 14 20 5.8916 -1.2497
8 14 21 0.4445 -5.5871
8 14 22 1.1489 5.7291
8 14 23 -2.3198 0.8250
8 14 24 0.3617 -0.3638
8 15 0 -10.2373 -2.5887
8 15 1 -1.5032 3.3912
8 15 2 4.2225 4.8273
8 15 3 -3.9378 -7.4040
8 15 4 1.9861 2.7717
8 15 5 -2.1539 1.0554
8 15 6 -6.4174 2.6409
8 15 7 5.6054 5.0664
8 15 8 -7.0402 2.6686
8 15 9 -2.6910 4.6447
8 15 10 0.3684 -4.3326
8 15 11 -1.0583 -6.2107
8 15 12 10.0546 4.4220
8 15 13 2.2799 -5.0621
8 15 14 -4.8537 11.5107
8 15 15 2.8036 -0.5305
8 15 16 -7.2298 4.0175
8 15 17 -7.4232 -5.1151
8 15 18 3.1546 11.0993
8 15 19 8.4602 -0.3827
8 15 20 -3.3121 8.4613
8 16 0 -4.9265 3.2061
8 16 1 5.9782 1.4698
8 16 2 2.4815 6.4585
8 16 3 2.3671 1.2086
8 16 4 3.6973 -4.6588
8 16 5 3.3963 5.5456
8 16 6 -1.5386 -1.6670
8 16 7 -3.8174 3.2534
8 16 8 1.1310 3.1551
8 16 9 9.6314 -2.7441
8 16 10 -2.0771 3.0772
8 16 11 10.1296 4.4348
8 16 12 -11.3113 -0.9208
8 16 13 -1.4761 2.8839
8 16 14 -9.8119 -1.3630
8 17 0 6.6199 -6.1297
8 17 1 2.8769 -8.0090
8 17 2 5.4685 -3.3678
8 17 3 -1.8467 3.1069
9 0 1 3.8468 5.2570
9 0 2 10.9925 -0.9258
9 0 3 1.9673 -7.2137
9 0 4 13.2012 -14.9758
9 0 5 -9.0385 1.8169
9 0 6 4.4106 -10.4097
9 0 7 -7.5181 -17.6752
9 0 8 10.0055 3.1509
9 0 9 6.4121 -8.6886
9 0 10 1.1908 8.5099
9 0 11 10.5671 -9.7251
9 0 12 10.4003 4.4311
9 0 13 -1.5602 -16.9434
9 0 14 13.1602 6.9925
9 0 15 -5.8550 -17.7435
9 0 16 0.1266 3.3504
9 0 17 3.6029 -12.7054
9 0 18 -2.5589 -11.5526
9 0 19 3.3425 1.8573
9 0 20 5.6021 -13.0112
9 0 21 -9.5520 -4.7126
9 0 22 -5.1244 -1.7768
9 0 23 -8.8683 20.5300
9 0 24 -1.5316 1.8610
9 0 25 7.4295 13.9207
9 0 26 3.9325 2.4937
9 0 27 10.0232 6.3111
9 0 28 -4.9996 11.0655
9 0 29 -2.7895 -3.8549
9 0 30 -6.5795 9.8808
9 0 31 -4.5877 -5.7808
9 0 32 2.8217 -3.4410
9 0 33 5.6623 3.7945
9 0 34 7.3622 -9.6102
9 0 35 2.0361 -0.3531
9 0 36 -3.3881 -4.6065
9 0 37 -8.6089 -6.9275
9 0 38 8.6357 -3.6111
9 0 39 -4.7899 -6.3470
9 0 40 -1.9666 -2.5417
9 0 41 4.8088 5.8079
9 1 0 -0.5265 -0.0595
9 1 1 -9.9457 -2.5998
9 1 2 10.0893 4.6858
9 1 3 -11.0082 -7.4407
9 1 4 1.4833 -4.9937
9 1 5 -4.8137 -14.4098
9 1 6 -22.0716 -2.0925
9 1 7 0.2054 3.8193
9 1 8 -13.6070 -6.7289
9 1 9 -7.4630 5.0355
9 1 10 -18.6301 -6.0910
9 1 11 13.6588 -14.2471
9 1 12 -9.1623 0.0062
9 1 13 10.2337 -18.5792
9 1 14 -15.0507 -2.9414
9 1 15 2.3361 -5.3792
9 1 16 7.3617 -3.4477
9 1 17 -6.7078 -1.6569
9 1 18 -6.8056 8.1379
9 1 19 -2.0069 -10.8401
9 1 20 -2.5286 10.1565
9 1 21 -10.8852 -5.6306
9 1 22 0.1911 5.0706
9 1 23 -6.7733 11.5538
9 1 24 1.2434 11.9148
9 1 25 9.6862 13.0621
9 1 26 1.8409 -1.7224
9 1 27 11.7145 -4.5992
9 1 28 -2.5158 -4.6170
9 1 29 6.7794 -4.0935
9 1 30 12.3759 3.0346
9 1 31 -4.1653 0.5814
9 1 32 7.7607 10.0821
9 1 33 -4.2755 3.5480
9 1 34 -1.2159 -3.2511
9 1 35 -3.4722 -10.5108
9 1 36 -4.4153 2.5174
9 1 37 -2.0215 -3.0838
9 1 38 -5.2164 3.2862
9 1 39 -6.4418 8.6571
9 1 40 -11.1960 -3.2707
9 1 41 0.1852 4.3911
9 2 0 0.5215 9.2360
9 2 1 -0.3061 -17.0717
9 2 2 -3.9721 15.5606
9 2 3 -4.7204 2.4470
9 2 4 4.4752 -7.6913
9 2 5 -4.3135 3.9853
9 2 6 3.8973 8.1560
9 2 7 -12.7618 5.0516
9 2 8 -1.6600 -3.1967
9 2 9 6.0594 12.7898
9 2 10 -3.9008 0.2923
9 2 11 5.3960 17.6788
9 2 12 -10.9041 -0.6043
9 2 13 -1.5397 -0.7500
9 2 14 -12.2170 0.0073
9 2 15 -2.8123 -2.2843
9 2 16 -12.3721 -5.1037
9 2 17 10.8801 7.2238
9 2 18 -11.5755 -10.6016
9 2 19 7.2641 -5.8784
9 2 20 -2.7964 4.3818
9 2 21 2.0687 7.0820
9 2 22 3.7235 -4.7171
9 2 23 2.3458 6.0696
9 2 24 5.3090 0.7184
9 2 25 9.0740 10.3626
9 2 26 12.4446 -3.8556
9 2 27 9.3201 -5.0744
9 2 28 -0.7267 10.2566
9 2 29 -1.4736 -5.4113
9 2 30 -7.7589 5.0253
9 2 31 -0.5950 -4.8064
9 2 32 -2.6182 -4.0307
9 2 33 0.3505 -2.4843
9 2 34 2.8637 -2.1754
9 2 35 4.7365 0.2525
9 2 36 -3.1737 1.5897
9 2 37 -11.5774 5.2061
9 2 38 1.3886 1.9635
9 2 39 -0.8107 2.7068
9 2 40 7.0816 1.3394
9 2 41 -0.5459 8.5013
9 3 0 -3.3644 6.8967
9 3 1 15.2604 -9.5274
9 3 2 -0.6731 8.6059
9 3 3 0.2794 -2.6649
9 3 4 -9.8552 12.7242
9 3 5 7.4284 -4.5007
9 3 6 -2.7785 -3.3730
9 3 7 -3.6788 -2.5691
9 3 8 4.3502 -3.7704
9 3 9 -1.2079 1.3013
9 3 10 -6.8581 -4.8655
9 3 11 -4.7904 0.0486
9 3 12 1.6805 -12.1766
9 3 13 7.9612 7.3458
9 3 14 11.2062 -6.6496
9 3 15 -18.6177 8.9839
9 3 16 2.7750 -4.2126
9 3 17 0.7227 8.0206
9 3 18 -3.5337 -2.0266
9 3 19 -10.8768 -3.6158
9 3 20 1.6674 -2.7779
9 3 21 -8.6683 1.5237
9 3 22 0.4515 -0.9750
9 3 23 -4.0128 -7.0100
9 3 24 1.4317 -4.3651
9 3 25 8.2485 -1.8235
9 3 26 -6.3731 0.5385
9 3 27 8.9059 -5.6572
9 3 28 0.1693 -9.0156
9 3 29 -2.0646 -2.3207
9 3 30 9.6808 -2.1559
9 3 31 5.6165 0.6811
9 3 32 5.7870 5.9246
9 3 33 1.1855 4.9642
9 3 34 -0.4878 7.4291
9 3 35 -0.5845 0.0482
9 3 36 -6.1248 1.8591
9 3 37 0.6723 0.2804
9 3 38 0.2423 4.4654
9 3 39 5.8356 3.2204
9 3 40 1.4493 4.5773
9 3 41 1.3119 2.3853
9 4 0 -3.0766 -7.8969
9 4 1 15.3114 -7.7511
9 4 2 -3.0434 -23.1490
9 4 3 4.9794 8.0250
9 4 4 -3.7481 -6.3437
9 4 5 3.9782 1.3752
9 4 6 2.5375 5.5936
9 4 7 0.7271 10.1049
9 4 8 -10.5179 1.3303
9 4 9 -7.4348 1.2236
9 4 10 3.1548 0.7596
9 4 11 -13.6748 5.5887
9 4 12 -2.5906 20.1765
9 4 13 -10.5731 -4.4201
9 4 14 -2.0024 8.1207
9 4 15 -1.9536 0.3609
9 4 16 -7.8228 -7.3452
9 4 17 -3.4066 4.8793
9 4 18 0.3267 11.7534
9 4 19 0.8739 -2.0270
9 4 20 -2.7338 0.6141
9 4 21 -5.0361 5.3365
9 4 22 -4.6651 5.0901
9 4 23 1.9768 8.9581
9 4 24 -5.8795 -5.2369
9 4 25 -5.0011 8.9244
9 4 26 -4.5375 6.0297
9 4 27 -0.0785 -14.5257
9 4 28 7.0227 4.3114
9 4 29 -1.7794 -2.0452
9 4 30 -4.4030 4.6768
9 4 31 -0.0999 -2.2502
9 4 32 -2.5150 -6.8299
9 4 33 0.8959 -3.4940
9 4 34 3.4375 -11.1172
9 4 35 4.0385 -2.4760
9 4 36 10.6494 -5.8910
9 4 37 4.5506 3.8462
9 4 38 1.7684 4.3142
9 4 39 0.1834 4.2822
9 4 40 8.7697 -1.5242
9 5 0 5.8626 -8.7632
9 5 1 -10.5557 0.0297
9 5 2 7.5419 -11.5883
9 5 3 -2.8787 -2.4798
9 5 4 -11.8937 -4.3840
9 5 5 -4.7104 7.4957
9 5 6 1.1672 -3.1179
9 5 7 2.0786 2.0554
9 5 8 4.8919 2.6646
9 5 9 12.6078 -1.2060
9 5 10 1.5849 11.3755
9 5 11 11.7449 5.2419
9 5 12 -4.6866 1.0527
9 5 13 -1.2183 12.5738
9 5 14 23.3378 5.7916
9 5 15 1.2868 9.3777
9 5 16 -0.2059 -1.1278
9 5 17 1.9045 4.7259
9 5 18 5.2438 11.2644
9 5 19 0.3092 6.6724
9 5 20 3.6509 -3.3771
9 5 21 -0.7462 0.1657
9 5 22 6.7047 0.1990
9 5 23 -1.5635 7.4108
9 5 24 -4.8727 2.7910
9 5 25 15.8409 -3.8549
9 5 26 -4.7899 8.6123
9 5 27 8.6424 1.5587
9 5 28 -2.1511 3.5883
9 5 29 -2.0635 -2.5140
9 5 30 -2.2467 -5.1042
9 5 31 -0.1052 -3.7582
9 5 32 8.0355 2.2423
9 5 33 0.0146 -3.3890
9 5 34 -2.1331 6.2343
9 5 35 -4.5240 -2.1510
9 5 36 -5.6040 -0.6564
9 5 37 -7.8941 -5.0607
9 5 38 -2.6770 -4.2855
9 5 39 2.8303 -10.7298
9 6 0 1.1146 11.0694
9 6 1 -1.9457 10.5083
9 6 2 2.4031 -9.3244
9 6 3 -7.6632 0.8742
9 6 4 0.5585 -2.9957
9 6 5 -5.3969 -0.6213
9 6 6 3.6545 -0.9321
9 6 7 12.8249 6.5300
9 6 8 2.0543 -1.3096
9 6 9 -2.8745 3.9275
9 6 10 6.9756 -8.0223
9 6 11 1.2381 -18.5948
9 6 12 10.3461 6.1839
9 6 13 -2.7284 -12.1494
9 6 14 6.7371 2.3098
9 6 15 8.9450 0.5252
9 6 16 8.4690 -0.8494
9 6 17 1.3227 -8.8974
9 6 18 2.3612 -0.6355
9 6 19 3.0479 1.0675
9 6 20 13.1857 -1.2369
9 6 21 1.8352 -4.4745
9 6 22 -5.8168 -2.3552
9 6 23 3.8501 9.0506
9 6 24 -1.8412 -7.6431
9 6 25 6.8864 4.6456
9 6 26 -3.0086 -0.8462
9 6 27 0.4565 2.4126
9 6 28 0.7042 -5.8833
9 6 29 5.3530 -2.8974
9 6 30 -0.3905 1.6047
9 6 31 3.2763 4.4348
9 6 32 -8.5489 -2.1286
9 6 33 -1.7190 0.2848
9 6 34 -3.5641 -3.4328
9 6 35 0.7254 -4.4120
9 6 36 1.5894 2.5305
9 6 37 0.9311 3.1253
9 6 38 -0.8100 0.2309
9 7 0 6.2862 0.2380
9 7 1 -8.2597 -7.3647
9 7 2 2.1827 0.3478
9 7 3 6.5548 -7.1139
9 7 4 1.2112 -4.2238
9 7 5 -8.4841 5.3561
9 7 6 -2.3294 0.2947
9 7 7 -2.4511 -5.5796
9 7 8 -4.0140 -4.4978
9 7 9 6.8952 -17.7607
9 7 10 -9.5268 0.6320
9 7 11 9.5089 -2.1336
9 7 12 -4.1971 -1.8160
9 7 13 -11.6980 -6.2040
9 7 14 -9.8846 -1.9334
9 7 15 4.5416 -1.0988
9 7 16 2.3595 0.8828
9 7 17 -1.9518 -13.6884
9 7 18 2.2022 -2.5735
9 7 19 4.7510 -2.1561
9 7 20 -3.1740 -3.4569
9 7 21 -0.8447 -1.7067
9 7 22 1.3168 -8.1112
9 7 23 -1.6273 0.0750
9 7 24 5.0059 0.3251
9 7 25 -1.8725 1.3371
9 7 26 5.3279 -5.1440
9 7 27 -1.2175 -1.3058
9 7 28 3.4759 1.5282
9 7 29 -2.3292 3.8186
9 7 30 4.1095 -3.8117
9 7 31 -4.8960 -2.2372
9 7 32 -0.0068 -5.0747
9 7 33 4.2033 0.1913
9 7 34 -2.2910 5.1564
9 7 35 -0.7639 3.3753
9 7 36 1.5553 3.5259
9 7 37 -3.1839 -4.0297
9 8 0 -5.1852 -11.2708
9 8 1 1.8783 4.1293
9 8 2 -0.5905 3.2424
9 8 3 -6.4482 -0.0224
9 8 4 -3.0128 1.2591
9 8 5 -4.5295 0.3529
9 8 6 -9.6940 -3.5826
9 8 7 7.0324 7.1484
9 8 8 -5.0169 -2.9363
9 8 9 -3.1109 6.5305
9 8 10 -10.0389 7.4206
9 8 11 -11.1611 -2.5233
9 8 12 -0.5138 -3.3251
9 8 13 1.5262 0.8613
9 8 14 -9.1458 -0.5615
9 8 15 3.0520 3.0289
9 8 16 -2.3137 6.4444
9 8 17 2.1406 6.1297
9 8 18 -1.1914 -12.2916
9 8 19 -7.2273 3.5005
9 8 20 -4.2846 -4.5408
9 8 21 -0.0472 -3.7522
9 8 22 -2.5928 -0.7930
9 8 23 -5.0939 -3.7419
9 8 24 -0.1571 4.4357
9 8 25 0.6762 -4.0188
9 8 26 -4.0744 -1.3429
9 8 27 0.5695 -5.9276
9 8 28 -1.4323 3.3164
9 8 29 -4.2782 -1.7721
9 8 30 1.4929 -1.0460
9 8 31 1.7044 2.4667
9 8 32 -1.8962 -2.7328
9 8 33 -3.7915 3.1319
9 8 34 -5.8759 4.2395
9 8 35 4.9647 -2.4463
9 8 36 -0.8395 0.2935
9 9 0 3.9635 1.8790
9 9 1 -5.1253 1.6403
9 9 2 -12.2344 2.9758
9 9 3 -1.5357 2.7912
9 9 4 8.0643 -1.5834
9 9 5 2.2056 4.2685
9 9 6 -1.5664 -6.3622
9 9 7 1.9917 8.0707
9 9 8 -4.8722 6.7574
9 9 9 4.8377 -3.6597
9 9 10 -1.3981 4.7572
9 9 11 1.6094 2.4736
9 9 12 8.6482 3.0183
9 9 13 1.9728 9.8013
9 9 14 -6.6429 -0.9805
9 9 15 -13.8549 -0.4483
9 9 16 10.7534 5.4638
9 9 17 -4.6280 -1.2044
9 9 18 4.5257 -3.6640
9 9 19 -1.0659 -1.1831
9 9 20 -1.6475 0.9129
9 9 21 -1.0239 1.1818
9 9 22 -4.5945 3.5614
9 9 23 -2.8442 2.1884
9 9 24 -2.8743 -3.1795
9 9 25 0.6332 5.1693
9 9 26 -1.9775 -0.0348
9 9 27 -1.3514 -4.5680
9 9 28 1.0173 0.1183
9 9 29 -5.7548 0.3594
9 9 30 2.7327 1.9983
9 9 31 0.7810 3.5313
9 9 32 0.3498 -0.9047
9 9 33 3.6468 2.5005
9 9 34 0.5117 -4.3991
9 10 0 -2.1899 -8.6669
9 10 1 -0.5170 -3.8347
9 10 2 0.3364 1.7481
9 10 3 0.1785 9.9547
9 10 4 9.1269 1.2721
9 10 5 -1.1045 7.5390
9 10 6 -2.1937 -8.5539
9 10 7 0.9573 2.1412
9 10 8 -10.6358 -1.5306
9 10 9 5.7550 -0.1563
9 10 10 5.3823 2.2624
9 10 11 0.0252 3.4308
9 10 12 -0.9006 0.0260
9 10 13 4.7559 -9.2800
9 10 14 -3.2970 4.8480
9 10 15 5.6954 -4.5628
9 10 16 1.9664 9.7184
9 10 17 2.8644 7.6739
9 10 18 -0.7774 2.7691
9 10 19 0.2998 -2.7158
9 10 20 -5.0962 1.7098
9 10 21 -3.5356 1.4759
9 10 22 1.1590 3.7377
9 10 23 -0.5037 1.1892
9 10 24 1.8686 1.1592
9 10 25 1.8457 0.2020
9 10 26 -3.2398 7.1812
9 10 27 -0.2640 -2.9801
9 10 28 -2.4849 2.6045
9 10 29 -6.9992 -0.1078
9 10 30 -5.3698 -0.3197
9 10 31 -2.4252 3.4253
9 10 32 8.5674 -2.8887
9 10 33 -4.4959 0.6617
9 11 0 2.4521 -3.1524
9 11 1 0.3357 -1.8310
9 11 2 4.3677 0.1528
9 11 3 -10.5527 -5.2789
9 11 4 7.9470 -2.6094
9 11 5 7.2277 5.4257
9 11 6 5.0933 -10.4383
9 11 7 1.5469 -1.6919
9 11 8 2.1416 1.0986
9 11 9 -1.3299 6.3079
9 11 10 1.2273 1.9039
9 11 11 -0.4892 5.2704
9 11 12 -2.7856 -9.8897
9 11 13 8.5664 1.9793
9 11 14 -1.0559 2.4706
9 11 15 -2.8103 1.4242
9 11 16 -1.8684 -3.8671
9 11 17 5.8331 0.7345
9 11 18 3.1126 -4.6009
9 11 19 4.7042 -4.1957
9 11 20 -0.1224 -2.0442
9 11 21 2.5932 4.1296
9 11 22 3.1241 6.6445
9 11 23 5.0396 2.8045
9 11 24 0.9660 -3.6387
9 11 25 6.3707 -1.2496
9 11 26 -1.5400 -1.9295
9 11 27 -0.8143 -0.1895
9 11 28 3.6605 1.2938
9 11 29 1.0720 3.4566
9 11 30 3.1375 9.0921
9 11 31 -2.9798 3.6878
9 12 0 -0.5930 10.7459
9 12 1 -0.1427 -3.0694
9 12 2 2.3478 -1.0669
9 12 3 -9.3719 -1.0858
9 12 4 -2.0253 -2.1821
9 12 5 -5.9665 0.6857
9 12 6 -3.8041 -3.2841
9 12 7 0.1327 -9.5971
9 12 8 -0.3452 -2.1089
9 12 9 -11.2643 -5.9114
9 12 10 3.3106 -3.1343
9 12 11 5.0498 2.0772
9 12 12 0.0314 -1.3943
9 12 13 2.7828 4.8046
9 12 14 1.2101 -2.2617
9 12 15 -1.9089 -2.1412
9 12 16 3.9434 -3.2288
9 12 17 2.1906 0.6579
9 12 18 -1.0994 -1.4443
9 12 19 -4.0443 -0.5040
9 12 20 -5.1152 2.2899
9 12 21 -2.8600 -0.5062
9 12 22 -0.3119 -0.5709
9 12 23 1.3049 -1.2818
9 12 24 8.8593 -4.3266
9 12 25 0.2519 -6.9857
9 12 26 -6.9450 -5.0820
9 12 27 -7.5031 -3.1028
9 12 28 0.9786 1.1149
9 13 0 -1.6069 5.9950
9 13 1 -0.1213 -1.3886
9 13 2 4.4962 3.5638
9 13 3 -1.5383 -0.2302
9 13 4 -0.4629 -5.5632
9 13 5 0.2670 3.2530
9 13 6 -1.4309 9.1128
9 13 7 1.5317 2.9296
9 13 8 -7.5389 0.6451
9 13 9 -5.4262 5.6449
9 13 10 -0.3785 -1.7195
9 13 11 -7.6347 10.8271
9 13 12 1.1132 2.2862
9 13 13 1.3990 -4.9871
9 13 14 3.2791 -0.7662
9 13 15 0.4042 0.9791
9 13 16 -0.8037 -4.5376
9 13 17 -0.3927 -4.9827
9 13 18 -6.2164 -1.3141
9 13 19 0.9828 3.0969
9 13 20 -1.9059 1.4980
9 13 21 4.4931 -2.6652
9 13 22 4.1939 9.5501
9 13 23 3.3211 2.7326
9 13 24 0.7578 -2.9069
9 13 25 -4.3258 -7.3635
9 14 0 0.8145 -2.1149
9 14 1 -2.5174 -0.1156
9 14 2 3.8207 4.0876
9 14 3 4.4417 -3.9532
9 14 4 0.9839 -0.0359
9 14 5 -3.6495 5.6970
9 14 6 -0.1589 -6.3356
9 14 7 -9.4750 0.2185
9 14 8 9.6445 -1.5523
9 14 9 -1.5672 -1.1685
9 14 10 1.2931 5.7703
9 14 11 5.0889 2.9427
9 14 12 5.6062 1.4898
9 14 13 4.0423 -0.7655
9 14 14 4.8292 -2.3854
9 14 15 2.7615 -0.7576
9 14 16 -1.3095 -7.5225
9 14 17 -2.1377 4.4908
9 14 18 -4.7265 1.2758
9 14 19 1.6911 1.0898
9 14 20 -5.3219 2.5329
9 14 21 6.0916 1.5126
9 14 22 2.0654 1.8733
9 15 0 -4.0162 2.2534
9 15 1 4.4621 4.5678
9 15 2 -1.8358 1.5306
9 15 3 -10.5616 0.7946
9 15 4 8.3221 6.7116
9 15 5 -5.9192 -13.1576
9 15 6 5.1803 3.1976
9 15 7 0.5885 -0.4826
9 15 8 0.6305 7.5212
9 15 9 -3.8387 6.5122
9 15 10 -1.5998 1.4463
9 15 11 -0.2125 0.0315
9 15 12 1.7976 -1.1069
9 15 13 -1.9369 -3.3175
9 15 14 4.4515 -9.1641
9 15 15 -5.3557 -3.8746
9 15 16 -6.5973 -4.8900
9 15 17 0.7075 0.0600
9 16 0 3.9535 8.4575
9 16 1 3.6025 -9.4977
9 16 2 -3.7176 12.6282
9 16 3 11.9171 -10.4252
9 16 4 -0.7975 2.4164
9 16 5 7.4870 -1.0407
9 16 6 -2.5388 7.4749
9 16 7 -2.6275 -4.2670
9 16 8 -1.9720 -1.7761
9 16 9 -0.5633 -4.5237
9 16 10 6.6027 -0.1835
10 0 0 -6.6667 8.9085
10 0 1 1.7461 -1.2266
10 0 2 -3.6689 -2.4897
10 0 3 1.6162 2.9587
10 0 4 5.9063 -10.7705
10 0 5 0.5988 3.3158
10 0 6 -18.7688 3.2097
10 0 7 -13.2318 -5.5967
10 0 8 -2.3513 9.1993
10 0 9 -15.7224 5.1196
10 0 10 -6.8156 -3.1421
10 0 11 -1.7908 4.6207
10 0 12 -13.2794 -4.7016
10 0 13 10.8069 -0.9965
10 0 14 0.1497 2.8510
10 0 15 6.6214 -6.2601
10 0 16 8.2300 1.0797
10 0 17 2.9245 -7.6491
10 0 18 7.2227 -4.1594
10 0 19 8.0191 -2.1939
10 0 20 -1.6651 -2.1220
10 0 21 1.5117 -5.9434
10 0 22 12.3756 1.9282
10 0 23 -15.0351 -1.6731
10 0 24 0.8985 2.4372
10 0 25 -14.7577 8.3667
10 0 26 8.3393 2.3326
10 0 27 3.1752 14.8905
10 0 28 7.8932 -1.4620
10 0 29 9.1799 12.3207
10 0 30 1.1532 -4.0208
10 0 31 2.4958 2.8332
10 0 32 -2.7612 0.2249
10 0 33 3.4108 -3.2662
10 0 34 3.2426 2.2334
10 0 35 8.4197 4.4074
10 0 36 10.7291 -3.9453
10 0 37 -1.8473 -3.3553
10 0 38 0.4385 -0.2199
10 0 39 -12.2088 -2.5783
10 0 40 2.0908 6.9942
10 1 0 -2.2413 1.3520
10 1 1 1.5392 0.7654
10 1 2 9.6579 1.1620
10 1 3 -3.0482 1.5817
10 1 4 -5.9314 -7.7161
10 1 5 3.1276 -3.7506
10 1 6 -4.0028 0.8830
10 1 7 -3.1957 -5.2928
10 1 8 6.9078 13.1781
10 1 9 -3.3242 24.5406
10 1 10 11.1896 -8.3417
10 1 11 4.6014 21.7857
10 1 12 1.5388 -1.5614
10 1 13 3.4415 12.1000
10 1 14 -7.1366 -2.6545
10 1 15 1.5285 -10.6024
10 1 16 1.1880 -7.3692
10 1 17 1.4722 2.1569
10 1 18 -2.1495 -12.5371
10 1 19 0.7128 -16.1416
10 1 20 -12.7704 2.4742
10 1 21 -0.1515 -22.8243
10 1 22 -7.7257 6.7844
10 1 23 1.1882 -12.7948
10 1 24 4.9412 8.9256
10 1 25 -1.0095 4.6882
10 1 26 9.4538 10.3003
10 1 27 -0.7268 11.0722
10 1 28 10.2953 -3.0925
10 1 29 3.5862 0.2201
10 1 30 5.2157 -8.7914
10 1 31 8.1921 -0.7174
10 1 32 0.6953 -4.1136
10 1 33 -3.4375 -6.0500
10 1 34 -2.7405 2.8025
10 1 35 -3.2595 -7.7756
10 1 36 2.1214 -4.0071
10 1 37 3.5299 -14.9558
10 1 38 -7.8054 -0.5677
10 1 39 6.1359 -7.3947
10 2 0 -3.0147 8.2191
10 2 1 3.6061 9.9156
10 2 2 4.6748 1.2001
10 2 3 -5.6357 -0.6924
10 2 4 -7.7759 -2.2560
10 2 5 3.2425 -4.6584
10 2 6 -2.2833 14.6253
10 2 7 -20.7930 -4.1703
10 2 8 14.3077 5.5350
10 2 9 -9.6058 -2.3114
10 2 10 21.3730 -1.6642
10 2 11 0.3659 -5.0127
10 2 12 10.7167 -9.0441
10 2 13 6.1054 -8.6100
10 2 14 9.7422 -5.4472
10 2 15 -2.9946 1.3016
10 2 16 -0.0999 -3.9035
10 2 17 -3.2146 5.3057
10 2 18 -19.1357 -10.3671
10 2 19 10.2350 4.5394
10 2 20 -15.1718 -8.4410
10 2 21 -6.4502 8.0748
10 2 22 -17.9191 4.4542
10 2 23 -6.1886 7.6022
10 2 24 -2.3420 3.9682
10 2 25 -7.8532 -3.5546
10 2 26 3.6191 -5.6273
10 2 27 4.7678 -2.0107
10 2 28 14.5206 -0.4111
10 2 29 1.8998 0.1904
10 2 30 0.1306 -3.1058
10 2 31 5.1953 -2.8183
10 2 32 -6.4099 -2.7758
10 2 33 1.7747 -5.4859
10 2 34 -6.4772 0.0683
10 2 35 -1.0532 7.3043
10 2 36 -6.2628 5.1473
10 2 37 -1.1769 9.7188
10 2 38 -13.1089 -5.0410
10 2 39 -9.4983 -3.9907
10 3 0 0.0494 2.5969
10 3 1 5.5485 1.5218
10 3 2 8.1614 -1.3023
10 3 3 19.3030 4.8204
10 3 4 -6.9271 3.4101
10 3 5 7.3775 -5.9944
10 3 6 -5.1894 17.1637
10 3 7 4.9573 -6.8163
10 3 8 3.9199 8.8389
10 3 9 9.4332 -0.2729
10 3 10 -4.6575 7.4176
10 3 11 2.2532 -10.2422
10 3 12 -3.4927 -6.4966
10 3 13 -9.1886 -8.4179
10 3 14 -1.5711 -0.2469
10 3 15 -15.3121 -0.6930
10 3 16 2.7099 -17.7455
10 3 17 -10.0562 6.6758
10 3 18 2.4772 4.9790
10 3 19 -8.5932 4.5128
10 3 20 3.9285 1.9894
10 3 21 -4.8973 3.9876
10 3 22 0.9048 8.8276
10 3 23 -3.4824 3.7608
10 3 24 11.2331 9.5066
10 3 25 5.5081 6.3995
10 3 26 -0.5514 8.1956
10 3 27 -2.3482 1.9176
10 3 28 -5.5095 1.6469
10 3 29 0.8057 2.0768
10 3 30 1.9171 -11.6687
10 3 31 1.9968 0.4385
10 3 32 2.7251 -1.8270
10 3 33 -1.4968 -1.7090
10 3 34 -2.0922 -2.0248
10 3 35 -3.6598 3.5116
10 3 36 1.6815 1.4461
10 3 37 12.5810 2.4508
10 3 38 -0.8459 3.7075
10 3 39 15.8877 3.9982
10 4 0 5.2600 -0.0117
10 4 1 -2.2807 11.1536
10 4 2 10.0960 -8.2967
10 4 3 6.8570 4.7413
10 4 4 -5.5778 -15.3493
10 4 5 5.6592 -6.6756
10 4 6 6.3838 -9.1801
10 4 7 2.4241 10.8197
10 4 8 -4.8065 -10.9801
10 4 9 3.0999 1.2030
10 4 10 0.1475 -8.4810
10 4 11 2.1388 -4.6303
10 4 12 -2.4029 5.0058
10 4 13 -11.0317 -7.2885
10 4 14 2.1255 8.4636
10 4 15 -6.1957 0.2570
10 4 16 -6.6316 8.5338
10 4 17 4.2011 -0.6425
10 4 18 -7.8633 6.1406
10 4 19 -4.8661 2.3372
10 4 20 5.0032 11.1824
10 4 21 8.7736 -6.2195
10 4 22 0.5697 2.3422
10 4 23 -0.9792 -0.3733
10 4 24 4.0234 0.4495
10 4 25 5.9087 5.1837
10 4 26 0.4546 -9.6743
10 4 27 -2.6104 -4.4570
10 4 28 12.0790 0.6658
10 4 29 4.7740 1.7672
10 4 30 1.4255 6.1217
10 4 31 1.0016 -2.7175
10 4 32 -0.1937 -1.8651
10 4 33 -0.9633 -0.7070
10 4 34 -1.6442 -6.1454
10 4 35 -3.5881 5.7168
10 4 36 -1.1201 -7.6223
10 4 37 2.8386 10.5987
10 4 38 1.3068 -7.6653
10 5 0 13.4410 4.7920
10 5 1 -3.2881 -8.0596
10 5 2 10.3192 -6.7768
10 5 3 -2.6367 -2.3734
10 5 4 9.9528 0.7286
10 5 5 -15.5834 -7.0254
10 5 6 5.4517 -2.0405
10 5 7 -14.1327 2.3718
10 5 8 2.9934 -4.6043
10 5 9 0.1460 -2.1010
10 5 10 -4.6857 4.8865
10 5 11 -2.2237 0.5392
10 5 12 -7.7453 8.6214
10 5 13 3.2604 -0.7541
10 5 14 -2.8048 -1.3924
10 5 15 -3.3141 14.8691
10 5 16 -0.4612 2.8300
10 5 17 5.9381 -5.2632
10 5 18 -2.0867 8.1198
10 5 19 4.3894 4.8400
10 5 20 -2.1494 3.5456
10 5 21 6.4706 0.7474
10 5 22 7.0502 -0.3890
10 5 23 -7.1652 -2.0462
10 5 24 -0.5516 -1.4880
10 5 25 0.5315 -3.3325
10 5 26 3.8939 4.7881
10 5 27 5.2123 -0.3958
10 5 28 -10.1742 -0.7944
10 5 29 -0.2204 4.3197
10 5 30 -1.7099 -0.9571
10 5 31 1.4655 -5.9439
10 5 32 6.5267 -1.1499
10 5 33 -3.7403 -1.2968
10 5 34 5.4993 -1.7449
10 5 35 -7.0698 -0.9328
10 5 36 1.5274 2.8862
10 5 37 -0.7586 4.2394
10 6 0 6.0914 2.9860
10 6 1 -1.9338 -9.8992
10 6 2 -4.8237 4.1166
10 6 3 2.7037 -13.2211
10 6 4 -4.0264 9.9628
10 6 5 -11.2076 -9.3873
10 6 6 3.3629 4.8964
10 6 7 0.9378 1.5698
10 6 8 -1.1621 5.6326
10 6 9 4.9526 1.2697
10 6 10 -6.2186 -4.3353
10 6 11 1.7024 2.3014
10 6 12 5.2188 6.8166
10 6 13 0.7510 1.7391
10 6 14 3.7134 -0.2598
10 6 15 13.1221 -0.8661
10 6 16 -7.3668 2.8650
10 6 17 7.8801 7.5389
10 6 18 8.0377 -1.9148
10 6 19 0.7286 -2.9725
10 6 20 2.1911 0.1902
10 6 21 5.8422 0.0367
10 6 22 5.6048 -1.2638
10 6 23 3.3216 -5.9143
10 6 24 -2.6937 -1.0593
10 6 25 0.5041 7.9790
10 6 26 5.7820 -5.8332
10 6 27 -2.6787 2.6118
10 6 28 -2.4499 -8.2450
10 6 29 5.5360 -1.7804
10 6 30 1.8912 2.6800
10 6 31 3.4385 2.3809
10 6 32 3.9339 2.0903
10 6 33 0.9069 -3.9193
10 6 34 -0.9757 -2.9392
10 6 35 -1.0114 -1.7706
10 6 36 -1.4474 -0.4302
10 6 37 -2.1053 -2.1663
10 7 0 -3.3768 4.2270
10 7 1 4.8029 4.6905
10 7 2 -5.1635 -3.4296
10 7 3 4.9448 -11.8521
10 7 4 -4.8282 12.2912
10 7 5 4.4400 0.4545
10 7 6 2.6196 -0.6417
10 7 7 1.1381 11.7935
10 7 8 3.5409 -2.7477
10 7 9 5.4389 -0.2895
10 7 10 -1.1071 -4.4299
10 7 11 1.2977 -4.5912
10 7 12 -6.0526 -0.6938
10 7 13 3.8919 12.7779
10 7 14 6.7417 -14.0772
10 7 15 2.0853 -2.1336
10 7 16 -4.4438 1.7766
10 7 17 -0.9235 -6.1091
10 7 18 5.4218 0.0609
10 7 19 3.3980 -3.7631
10 7 20 -1.2706 -3.5690
10 7 21 -0.2204 -4.1529
10 7 22 -2.5464 -1.1952
10 7 23 -2.6881 -7.2102
10 7 24 3.6727 0.4750
10 7 25 -9.2405 -3.5606
10 7 26 2.9645 -3.7559
10 7 27 1.1674 1.4437
10 7 28 1.8104 -2.2591
10 7 29 -7.4125 -2.0268
10 7 30 -1.8619 5.4478
10 7 31 -5.3161 -1.7481
10 7 32 0.7579 -4.1233
10 7 33 1.3527 -3.1134
10 7 34 -0.8572 -3.8992
10 7 35 -0.2249 -3.7990
10 8 0 1.1727 -1.6659
10 8 1 16.6590 -4.2057
10 8 2 -6.5738 -9.1839
10 8 3 5.7248 -2.6053
10 8 4 5.6310 -0.7096
10 8 5 -10.4117 -5.1608
10 8 6 9.0819 -2.5413
10 8 7 2.0146 -5.2086
10 8 8 2.3401 -10.3586
10 8 9 6.9176 2.7594
10 8 10 3.2854 -6.9755
10 8 11 -10.2613 -1.8827
10 8 12 3.7923 0.4317
10 8 13 -4.8113 6.8487
10 8 14 -3.5413 1.2397
10 8 15 9.4296 -2.8629
10 8 16 -5.5963 -6.1500
10 8 17 -3.1006 1.1708
10 8 18 -1.4275 0.5274
10 8 19 5.9129 4.8167
10 8 20 -4.1503 -6.6313
10 8 21 3.0192 -0.2208
10 8 22 -4.8557 3.4506
10 8 23 1.0933 -1.9846
10 8 24 2.5934 0.8482
10 8 25 -3.2211 1.4099
10 8 26 -4.9482 3.6422
10 8 27 5.1878 -4.6293
10 8 28 -4.9688 6.5858
10 8 29 2.0614 -4.0745
10 8 30 1.7192 0.6793
10 8 31 0.0069 2.2061
10 8 32 2.9269 3.8264
10 8 33 -0.2215 5.2596
10 8 34 -2.1655 0.1119
10 9 0 3.7127 -1.2779
10 9 1 -3.6287 11.2140
10 9 2 -9.1504 7.7865
10 9 3 -3.3172 -17.1547
10 9 4 -11.7809 4.0189
10 9 5 -7.0574 -1.3486
10 9 6 2.0073 -6.8948
10 9 7 -6.4824 0.0337
10 9 8 -4.4061 -4.0187
10 9 9 -10.6453 -4.1182
10 9 10 -3.7130 2.6166
10 9 11 -1.6760 -6.8652
10 9 12 0.6857 -6.7003
10 9 13 -0.8668 10.0213
10 9 14 6.4772 1.2137
10 9 15 2.9799 0.9341
10 9 16 8.9982 -1.9784
10 9 17 -7.8507 3.2998
10 9 18 2.2679 -2.4677
10 9 19 -2.2126 2.9143
10 9 20 3.8015 -4.5629
10 9 21 -1.5913 -2.3762
10 9 22 2.0953 0.9090
10 9 23 -2.2183 -1.2330
10 9 24 0.8088 -8.1042
10 9 25 5.7115 2.6735
10 9 26 -7.2078 -7.3235
10 9 27 1.4315 -1.0026
10 9 28 -1.4105 1.7267
10 9 29 -1.0576 -1.5165
10 9 30 0.7843 -1.1594
10 9 31 -0.6780 -5.2579
10 9 32 -2.6726 0.1072
10 10 0 -13.1646 -4.6254
10 10 1 11.9492 2.0282
10 10 2 1.1466 -3.8637
10 10 3 6.4185 1.3448
10 10 4 10.7221 6.2853
10 10 5 -5.4013 6.8055
10 10 6 1.3015 6.3760
10 10 7 -1.2160 4.3820
10 10 8 -7.2913 1.9116
10 10 9 -2.4086 0.7408
10 10 10 1.3832 5.9130
10 10 11 -3.8408 8.0694
10 10 12 -0.2735 3.2449
10 10 13 -3.2581 -4.6636
10 10 14 -4.7728 2.4845
10 10 15 1.8593 -7.8264
10 10 16 3.8594 -2.5449
10 10 17 2.6300 -9.9261
10 10 18 0.8162 -1.0852
10 10 19 1.0429 -6.9162
10 10 20 -2.0037 3.8343
10 10 21 -3.0029 -4.9516
10 10 22 -0.6472 0.1267
10 10 23 -4.8535 2.6278
10 10 24 0.8339 -2.4763
10 10 25 1.7891 0.5533
10 10 26 -5.5071 -3.2466
10 10 27 -6.2630 -3.7635
10 10 28 -4.6561 5.0554
10 10 29 -0.3903 4.9957
10 10 30 -5.2248 1.3453
10 10 31 2.8036 4.5835
10 11 0 3.3304 -5.3652
10 11 1 -0.7628 3.8384
10 11 2 -2.1309 12.3542
10 11 3 -3.8748 -8.9141
10 11 4 5.0806 -6.4223
10 11 5 -3.8016 -5.8430
10 11 6 -0.3241 -8.2224
10 11 7 4.4351 -2.4307
10 11 8 8.5146 -1.0936
10 11 9 -0.6254 1.4351
10 11 10 0.4370 5.1563
10 11 11 -1.9814 4.2254
10 11 12 3.7777 -6.3698
10 11 13 4.5053 3.6930
10 11 14 1.3553 1.0372
10 11 15 0.2183 6.8435
10 11 16 -4.2488 2.3855
10 11 17 4.4998 1.8909
10 11 18 -10.4676 -2.1770
10 11 19 -5.0480 -2.4521
10 11 20 -7.5158 -6.0832
10 11 21 -2.3324 1.3651
10 11 22 -4.3053 2.0749
10 11 23 -2.6977 8.8861
10 11 24 0.9802 1.5734
10 11 25 5.7556 -2.9137
10 11 26 -4.1267 0.3042
10 11 27 -0.6790 -2.1100
10 11 28 -5.4085 -5.0140
10 12 0 -9.6650 -3.1469
10 12 1 1.1898 -7.0824
10 12 2 -0.0360 3.3457
10 12 3 1.8795 -2.7179
10 12 4 6.1068 3.6934
10 12 5 -5.2932 -1.3800
10 12 6 -4.2145 4.7819
10 12 7 -6.9931 -2.0834
10 12 8 -3.5253 5.4893
10 12 9 -7.7552 -7.3421
10 12 10 3.6390 -0.3551
10 12 11 -2.7922 -6.6603
10 12 12 5.9331 9.4254
10 12 13 0.5094 2.9968
10 12 14 -0.9199 -3.0343
10 12 15 0.7403 3.8903
10 12 16 5.3773 -7.2418
10 12 17 1.5340 -2.3712
10 12 18 9.6106 -5.7534
10 12 19 1.1115 0.8568
10 12 20 1.9666 0.2456
10 12 21 -5.9070 9.0938
10 12 22 -5.3093 5.6604
10 12 23 5.5317 5.9353
10 12 24 1.6540 -3.8294
10 12 25 7.0378 8.2731
10 12 26 4.9955 -4.9962
10 13 0 -1.4339 -4.8690
10 13 1 1.0036 -1.6424
10 13 2 -7.1774 5.5194
10 13 3 -2.0300 -3.2712
10 13 4 -7.7491 1.9638
10 13 5 7.7124 -5.8662
10 13 6 -0.0655 4.6912
10 13 7 3.1480 -2.7534
10 13 8 -5.2337 6.6068
10 13 9 12.1923 -0.8970
10 13 10 -8.0534 4.8797
10 13 11 -1.4142 5.3569
10 13 12 -2.3142 -0.9328
10 13 13 -2.1039 -1.3833
10 13 14 11.9187 2.1483
10 13 15 5.5042 -6.0838
10 13 16 2.1217 -0.7808
10 13 17 -1.5000 -3.0572
10 13 18 0.1567 -4.1516
10 13 19 -12.0795 -1.0647
10 13 20 -8.5377 -9.8624
10 13 21 -5.1044 0.0339
10 13 22 10.5887 -4.7780
10 14 0 -4.9488 -1.5025
10 14 1 1.3620 0.5108
10 14 2 -7.2007 -9.6276
10 14 3 5.7711 0.9844
10 14 4 -2.3731 2.3468
10 14 5 8.3130 3.1277
10 14 6 -4.7225 -3.8416
10 14 7 3.2196 6.2210
10 14 8 3.1583 -11.2543
10 14 9 -1.2804 3.2852
10 14 10 2.4801 -0.5382
10 14 11 1.7847 -2.2895
10 14 12 -1.9589 3.7048
10 14 13 6.0540 5.2691
10 14 14 2.1091 -0.9047
10 14 15 -4.1940 -4.7339
10 14 16 5.7523 -6.6651
10 14 17 -8.6198 -9.2635
10 14 18 -0.7416 -3.0933
10 15 0 1.8663 -4.2137
10 15 1 0.7939 4.2785
10 15 2 -5.2209 -0.6205
10 15 3 -0.8535 6.6286
10 15 4 -5.1436 -8.0449
10 15 5 -12.8586 -1.7044
10 15 6 4.8702 -4.6343
10 15 7 -3.1233 -9.3113
10 15 8 -1.4779 -1.1470
10 15 9 -4.5706 -2.4331
10 15 10 2.3225 -5.6544
10 15 11 -3.8871 0.4742
10 15 12 3.8551 1.7560
11 0 1 -6.3071 -3.6680
11 0 2 10.5492 3.6348
11 0 3 -5.6478 -9.8400
11 0 4 12.5908 -9.2269
11 0 5 5.8354 3.4028
11 0 6 7.4544 -14.5106
11 0 7 2.0674 -11.4406
11 0 8 13.3232 -2.7341
11 0 9 -6.2367 -0.5673
11 0 10 6.1358 14.6649
11 0 11 0.0301 3.8314
11 0 12 4.3559 11.9007
11 0 13 4.7681 6.6269
11 0 14 3.7286 -1.3943
11 0 15 -1.0935 7.8773
11 0 16 -0.2317 -2.5927
11 0 17 -3.3550 -0.3461
11 0 18 -0.0398 1.5546
11 0 19 1.0689 5.5669
11 0 20 1.2331 -8.1291
11 0 21 0.5447 -8.9857
11 0 22 5.7072 -15.7147
11 0 23 -2.5629 -2.7221
11 0 24 -5.8076 0.3442
11 0 25 0.2782 -0.6416
11 0 26 -2.6469 16.4874
11 0 27 0.5545 0.0073
11 0 28 2.6871 8.9666
11 0 29 -0.7613 -0.1802
11 0 30 4.4027 -3.1109
11 0 31 1.0274 13.5837
11 0 32 -0.8849 0.0683
11 0 33 1.3435 7.3168
11 0 34 -5.4527 0.0858
11 0 35 -2.8934 -4.9500
11 0 36 1.8372 -10.2608
11 0 37 -1.3817 2.9913
11 0 38 13.0419 -11.5279
11 1 0 -4.5084 5.3684
11 1 1 5.0198 -5.4880
11 1 2 4.2115 5.1548
11 1 3 -4.6355 4.4359
11 1 4 -0.5756 -5.6526
11 1 5 -6.0781 -11.5206
11 1 6 -13.6019 0.5050
11 1 7 -0.2954 -15.4531
11 1 8 -14.5726 -0.5401
11 1 9 -4.5601 -9.0246
11 1 10 -13.4822 -3.6288
11 1 11 5.5222 -0.2563
11 1 12 18.7162 4.0027
11 1 13 -0.5895 -1.5893
11 1 14 13.5275 2.2989
11 1 15 7.5787 -7.3158
11 1 16 7.0466 -1.9820
11 1 17 -1.1596 0.8656
11 1 18 3.0158 4.5367
11 1 19 -2.9879 1.4278
11 1 20 13.8405 7.2048
11 1 21 -4.7005 -2.7059
11 1 22 -11.4963 -0.2124
11 1 23 -5.4652 -2.5880
11 1 24 -29.8572 1.2989
11 1 25 2.2945 1.0271
11 1 26 -7.5020 10.9083
11 1 27 7.3966 0.9019
11 1 28 13.8288 5.4323
11 1 29 2.5549 1.6968
11 1 30 10.5727 -2.4868
11 1 31 -0.1989 6.1651
11 1 32 1.5892 -3.8634
11 1 33 7.8474 -0.2280
11 1 34 12.1049 -0.7481
11 1 35 -0.7878 -5.0947
11 1 36 4.8681 3.1205
11 1 37 -5.9719 5.2740
11 1 38 -7.1682 -5.3782
11 2 0 1.5287 -3.2250
11 2 1 -9.4434 -3.8759
11 2 2 1.0009 1.4533
11 2 3 2.5051 1.7746
11 2 4 -4.7378 -12.4731
11 2 5 7.9121 3.8295
11 2 6 -10.1864 3.7624
11 2 7 -10.4394 11.2126
11 2 8 -3.7040 0.4205
11 2 9 -2.3117 6.5604
11 2 10 -4.5960 18.6918
11 2 11 2.0410 -2.0572
11 2 12 -7.1396 13.7968
11 2 13 3.0807 -7.5842
11 2 14 7.0493 -3.9534
11 2 15 3.5614 -9.3080
11 2 16 0.9928 -5.4224
11 2 17 1.8224 -14.0629
11 2 18 -6.4302 -0.0341
11 2 19 4.4570 -7.9969
11 2 20 -0.4412 -1.4572
11 2 21 7.6260 12.2111
11 2 22 1.5752 -21.0393
11 2 23 5.9120 11.9678
11 2 24 -5.2648 4.0775
11 2 25 2.4915 16.2708
11 2 26 0.5502 15.1426
11 2 27 5.5211 5.2242
11 2 28 9.8578 5.6279
11 2 29 -3.2031 -0.6326
11 2 30 7.0742 -9.3144
11 2 31 0.4923 -8.7373
11 2 32 1.5378 -2.0151
11 2 33 2.6547 -4.6423
11 2 34 4.3423 -3.7317
11 2 35 -5.4581 -6.8968
11 2 36 4.1355 -9.9470
11 2 37 -8.1827 1.1619
11 3 0 -5.9692 11.6602
11 3 1 -8.2519 5.4838
11 3 2 4.9442 -0.9606
11 3 3 -4.9296 11.3353
11 3 4 -1.4047 4.9908
11 3 5 -3.0184 -4.7795
11 3 6 -3.7048 5.9257
11 3 7 0.5470 2.0734
11 3 8 -2.4365 4.5619
11 3 9 18.5409 12.7301
11 3 10 -6.6607 0.9037
11 3 11 11.3368 -6.9254
11 3 12 2.6410 1.0080
11 3 13 12.8392 -5.8300
11 3 14 0.4614 -0.3981
11 3 15 2.9543 0.5284
11 3 16 -3.5388 -10.2860
11 3 17 4.1948 -2.8490
11 3 18 -5.7071 -6.6582
11 3 19 -21.8690 0.1673
11 3 20 6.3803 -2.4209
11 3 21 -7.6296 4.0939
11 3 22 4.8315 -2.1138
11 3 23 3.1959 -2.7875
11 3 24 -1.6385 -7.3277
11 3 25 0.6828 -1.2100
11 3 26 5.4051 4.4686
11 3 27 5.2289 -5.6131
11 3 28 9.6776 -0.9548
11 3 29 7.5667 -5.9372
11 3 30 0.8670 -3.2167
11 3 31 3.6179 -1.2184
11 3 32 -1.4489 2.8143
11 3 33 -10.1019 -5.6818
11 3 34 0.7384 5.0939
11 3 35 -6.4695 -6.9792
11 3 36 -2.9046 -3.5412
11 3 37 -10.8215 3.0998
11 4 0 5.6815 14.4838
11 4 1 4.0272 -0.0542
11 4 2 3.9345 6.7841
11 4 3 12.4472 7.9662
11 4 4 -3.4814 1.3232
11 4 5 7.6167 -2.7274
11 4 6 7.1590 -2.3878
11 4 7 1.4033 13.7439
11 4 8 -2.6492 -4.0869
11 4 9 13.1372 4.2043
11 4 10 0.0432 -10.3858
11 4 11 10.9446 1.8118
11 4 12 -2.9403 -8.3778
11 4 13 -9.5323 -0.0954
11 4 14 -5.1705 -6.0452
11 4 15 -5.9638 -0.6201
11 4 16 -5.5379 -5.3705
11 4 17 -3.1332 -10.4991
11 4 18 -2.4568 2.2760
11 4 19 -4.1870 -3.5328
11 4 20 -6.0778 -0.6270
11 4 21 -5.4570 15.3713
11 4 22 3.1093 4.5151
11 4 23 1.8989 -4.2604
11 4 24 -0.8864 -6.0195
11 4 25 -2.2213 -4.6357
11 4 26 -3.8992 2.3699
11 4 27 -1.2389 2.8078
11 4 28 4.8662 -7.0822
11 4 29 -2.5077 4.5611
11 4 30 -5.1541 0.4330
11 4 31 -1.9117 -8.9012
11 4 32 -4.1788 1.9178
11 4 33 2.5017 -3.4022
11 4 34 2.7012 3.2490
11 4 35 -3.4450 1.5934
11 4 36 4.9457 2.0717
11 5 0 0.9185 -3.6885
11 5 1 4.6005 5.3333
11 5 2 5.9102 -7.4549
11 5 3 12.7546 -1.6000
11 5 4 0.7455 -4.0437
11 5 5 1.1793 -0.0383
11 5 6 2.8188 -8.9785
11 5 7 -6.9831 7.1527
11 5 8 2.1857 -10.4789
11 5 9 -1.7536 3.8667
11 5 10 9.0532 -3.1897
11 5 11 -5.6083 -4.0822
11 5 12 -3.5993 -8.8562
11 5 13 -7.2134 0.3928
11 5 14 0.6093 -0.4582
11 5 15 0.9133 10.2856
11 5 16 -4.1960 4.1275
11 5 17 -6.1920 8.4908
11 5 18 4.2048 6.0035
11 5 19 -13.5648 1.9300
11 5 20 -2.2529 1.5027
11 5 21 0.1616 -1.1950
11 5 22 0.9228 4.9590
11 5 23 6.6973 3.6188
11 5 24 1.2923 0.3244
11 5 25 -7.3415 -8.1149
11 5 26 0.5843 5.6737
11 5 27 -10.0323 -0.3123
11 5 28 2.7938 2.3397
11 5 29 6.5644 -5.5387
11 5 30 -5.1267 -2.6673
11 5 31 4.1199 -0.0809
11 5 32 3.2430 6.3699
11 5 33 -1.2706 -0.6910
11 5 34 0.8335 7.2332
11 5 35 0.5442 -4.8652
11 6 0 3.3830 -1.2455
11 6 1 -1.4165 8.9189
11 6 2 1.1465 -12.7055
11 6 3 -0.0160 2.2275
11 6 4 5.9026 -1.9880
11 6 5 -7.4129 -7.7171
11 6 6 4.0344 -1.1560
11 6 7 -3.4015 -1.0662
11 6 8 2.4055 9.3242
11 6 9 -4.9977 1.3538
11 6 10 6.3836 4.0707
11 6 11 -2.2200 -1.5336
11 6 12 4.6208 1.0341
11 6 13 -10.3209 0.9555
11 6 14 -1.2467 5.2223
11 6 15 -2.6268 2.3008
11 6 16 3.2105 7.1116
11 6 17 1.6561 -7.3676
11 6 18 2.1263 4.4018
11 6 19 8.1850 8.7431
11 6 20 5.7669 -0.8940
11 6 21 -0.0301 5.3820
11 6 22 -5.9524 1.3944
11 6 23 3.2579 0.3115
11 6 24 -2.7240 5.2582
11 6 25 3.1755 -8.7825
11 6 26 -4.8800 3.7720
11 6 27 1.7950 9.9069
11 6 28 -2.5718 -0.4570
11 6 29 1.7100 3.2605
11 6 30 -5.3356 2.6457
11 6 31 -2.1447 -2.8675
11 6 32 -9.1093 -0.1806
11 6 33 3.1981 -0.5281
11 6 34 0.9262 -3.2676
11 7 0 6.9077 -7.4821
11 7 1 -8.5930 -4.9230
11 7 2 0.1765 -3.9924
11 7 3 7.6246 -2.1534
11 7 4 -0.6648 -0.4005
11 7 5 0.1253 -5.4692
11 7 6 -2.5839 2.0470
11 7 7 5.0893 -5.4943
11 7 8 0.5578 3.2564
11 7 9 1.0601 -3.4613
11 7 10 3.6025 5.7841
11 7 11 7.4361 -1.6300
11 7 12 2.8654 0.4399
11 7 13 0.3349 -6.5292
11 7 14 -3.6428 1.9018
11 7 15 4.9196 3.4651
11 7 16 6.8236 3.6314
11 7 17 -1.4159 0.6311
11 7 18 6.7305 1.2138
11 7 19 -4.0604 1.9974
11 7 20 6.4484 -1.5113
11 7 21 5.6988 -3.3559
11 7 22 -1.0967 -3.8601
11 7 23 5.6972 1.9388
11 7 24 3.2315 4.3147
11 7 25 -0.2532 5.8172
11 7 26 4.9359 -2.2239
11 7 27 1.0075 1.8943
11 7 28 -0.8596 1.8487
11 7 29 7.6413 2.1783
11 7 30 6.3249 -0.2615
11 7 31 -0.9264 4.4566
11 7 32 5.2402 4.1215
11 7 33 -0.3019 7.4418
11 8 0 1.8185 -0.9618
11 8 1 -7.2687 5.6621
11 8 2 -7.7702 -0.5540
11 8 3 -3.8283 0.0207
11 8 4 -7.5567 -1.7810
11 8 5 1.2997 2.3304
11 8 6 -0.4667 -3.7518
11 8 7 -0.4856 -4.6862
11 8 8 -0.5523 -2.1037
11 8 9 -1.5020 -5.1734
11 8 10 -3.9180 -4.8883
11 8 11 3.1948 0.1375
11 8 12 4.8959 -2.4157
11 8 13 6.2284 -3.8903
11 8 14 -2.0258 0.4196
11 8 15 -3.6712 -2.6197
11 8 16 1.3091 9.8344
11 8 17 3.1624 -4.4474
11 8 18 1.2135 -4.2430
11 8 19 3.2234 -2.1589
11 8 20 0.6191 -2.7749
11 8 21 5.6019 -0.0300
11 8 22 -2.1737 -1.8297
11 8 23 -3.5755 -5.1110
11 8 24 1.1757 -1.3665
11 8 25 4.3375 1.8387
11 8 26 1.1950 -10.1194
11 8 27 5.9644 -4.3010
11 8 28 -0.1716 0.7055
11 8 29 1.2608 -6.0807
11 8 30 -0.9268 1.0591
11 8 31 3.3713 -4.4192
11 8 32 4.4145 -6.5391
11 9 0 9.3820 -1.8445
11 9 1 5.8565 4.5656
11 9 2 -0.0666 -1.8894
11 9 3 -1.8768 5.1485
11 9 4 4.7965 12.0628
11 9 5 3.3276 1.8158
11 9 6 -3.8338 3.5089
11 9 7 3.4664 -1.0154
11 9 8 0.1346 -2.2657
11 9 9 -7.0469 -2.8753
11 9 10 -6.6297 -1.9622
11 9 11 -7.6369 4.7663
11 9 12 -1.9402 4.3450
11 9 13 4.4021 -5.5849
11 9 14 -5.3355 -6.0347
11 9 15 -1.5245 -7.1155
11 9 16 4.0926 -1.5390
11 9 17 2.9806 5.0373
11 9 18 7.9809 -2.8334
11 9 19 1.8869 -0.3828
11 9 20 -0.6869 -3.1650
11 9 21 -1.0675 -1.0456
11 9 22 2.8757 -3.0657
11 9 23 -9.0366 2.4480
11 9 24 6.5764 -3.9141
11 9 25 1.4516 6.3532
11 9 26 -2.8367 -3.7489
11 9 27 2.4711 -0.2808
11 9 28 -4.6109 -6.7313
11 9 29 -5.8769 1.6895
11 9 30 -3.0075 -2.2077
11 10 0 2.1379 -2.4370
11 10 1 -0.5365 -6.3472
11 10 2 -6.5556 -5.0946
11 10 3 3.2896 -2.6775
11 10 4 -0.4521 -5.8712
11 10 5 5.1039 3.5096
11 10 6 6.6975 -2.8453
11 10 7 3.4184 -5.0225
11 10 8 1.3115 0.9787
11 10 9 -2.0808 -3.9573
11 10 10 -5.6030 3.0173
11 10 11 1.0352 7.0437
11 10 12 -5.3367 6.8990
11 10 13 5.8458 4.8856
11 10 14 6.2396 3.7523
11 10 15 -5.6126 -4.7183
11 10 16 -6.8590 2.7852
11 10 17 -2.9664 0.9725
11 10 18 0.3237 -0.9151
11 10 19 1.2589 -8.6474
11 10 20 3.5211 -2.2393
11 10 21 -7.2885 -15.4238
11 10 22 3.2851 1.5220
11 10 23 -4.6284 -3.1330
11 10 24 2.6593 -2.4299
11 10 25 -1.5374 1.4717
11 10 26 4.8530 -0.7453
11 10 27 -2.4679 -6.3100
11 10 28 5.2173 -7.3413
11 11 0 8.6512 -3.6981
11 11 1 5.1331 4.0745
11 11 2 5.0616 0.3790
11 11 3 -4.9187 -0.7913
11 11 4 -1.1791 2.5120
11 11 5 1.0091 1.4028
11 11 6 -6.2578 0.0428
11 11 7 1.2787 -6.4998
11 11 8 -1.0933 -7.1584
11 11 9 -0.3038 5.9973
11 11 10 -1.6898 -6.0106
11 11 11 -0.9045 1.3743
11 11 12 0.0922 5.8875
11 11 13 7.7039 1.3286
11 11 14 5.6227 -0.2480
11 11 15 2.3452 -0.9737
11 11 16 1.4115 -6.2323
11 11 17 4.0472 0.8670
11 11 18 -3.0115 9.7512
11 11 19 6.2048 -5.5077
11 11 20 -4.9361 -0.5456
11 11 21 -0.4755 -4.2623
11 11 22 -7.4216 1.6535
11 11 23 -9.3231 1.4854
11 11 24 -8.5996 2.4686
11 11 25 -2.8455 -2.4401
11 11 26 4.2002 4.3860
11 12 0 -0.2683 3.2400
11 12 1 1.3610 -4.3072
11 12 2 2.4201 -8.4334
11 12 3 4.8684 -3.9598
11 12 4 -0.8291 -10.2067
11 12 5 2.2060 0.4522
11 12 6 2.7865 1.0828
11 12 7 -6.7536 0.6273
11 12 8 3.4697 2.3939
11 12 9 -5.0467 1.1313
11 12 10 -6.1626 -3.5988
11 12 11 2.5445 -1.9256
11 12 12 -0.2618 1.8153
11 12 13 -3.7106 -1.3122
11 12 14 5.3737 2.9344
11 12 15 6.8660 -0.4858
11 12 16 -3.8565 -2.9061
11 12 17 1.6432 -0.4405
11 12 18 -3.0838 -7.8332
11 12 19 1.0482 -0.8593
11 12 20 2.9385 -3.5822
11 12 21 -2.5070 -0.4601
11 12 22 -4.9190 -0.5304
11 12 23 -2.5464 -1.5353
11 13 0 4.0472 -4.4464
11 13 1 -0.0212 0.1117
11 13 2 6.1111 -1.9932
11 13 3 -4.5685 -0.0093
11 13 4 -5.7596 -5.9004
11 13 5 -3.2619 -10.5261
11 13 6 -5.3799 3.4693
11 13 7 -2.8334 0.0138
11 13 8 3.2482 -3.9518
11 13 9 3.6483 3.8049
11 13 10 0.4664 5.4671
11 13 11 0.9235 2.0120
11 13 12 -7.2834 1.8722
11 13 13 -0.5168 4.6516
11 13 14 -1.3180 -0.6580
11 13 15 1.0335 2.7131
11 13 16 7.9002 -3.8712
11 13 17 3.3367 -9.3972
11 13 18 4.4228 -0.7574
11 13 19 -3.3662 2.0378
11 14 0 -3.7690 4.5188
11 14 1 -8.0053 1.1170
11 14 2 -4.0433 -1.6904
11 14 3 -0.6023 -3.3065
11 14 4 -3.3714 -3.7278
11 14 5 -3.7525 1.0928
11 14 6 -1.6399 2.2810
11 14 7 -5.4397 0.9455
11 14 8 -4.8680 -0.3789
11 14 9 1.0984 -0.3906
11 14 10 1.9148 -4.4086
11 14 11 -0.8760 -1.4351
11 14 12 7.2301 -2.8802
11 14 13 4.8902 2.9713
11 14 14 -0.1340 5.5709
11 15 0 0.4409 3.7476
11 15 1 1.8366 1.4728
11 15 2 0.9831 4.8954
11 15 3 -3.0369 4.5969
12 0 0 -7.5929 -6.7047
12 0 1 5.1579 2.9347
12 0 2 -6.7840 2.3161
12 0 3 5.0555 3.0614
12 0 4 6.0177 9.6782
12 0 5 -2.6498 -6.5175
12 0 6 0.2446 0.1496
12 0 7 -15.0209 -13.7468
12 0 8 9.6147 -9.3969
12 0 9 -8.9832 -2.7712
12 0 10 0.2272 -1.5195
12 0 11 0.8196 -8.1973
12 0 12 0.8733 8.5514
12 0 13 2.0683 -5.1936
12 0 14 9.8442 1.7049
12 0 15 6.4774 3.7083
12 0 16 3.8865 -6.9174
12 0 17 12.5612 8.3093
12 0 18 -0.0479 0.6056
12 0 19 4.1750 7.9995
12 0 20 -9.4864 8.6219
12 0 21 -7.4062 7.5058
12 0 22 6.3612 -0.1761
12 0 23 -7.8794 5.5030
12 0 24 -1.9359 -8.9257
12 0 25 -6.7977 -1.4631
12 0 26 -4.2344 0.1722
12 0 27 -5.2031 6.6388
12 0 28 -1.7624 8.0480
12 0 29 4.2434 -2.1351
12 0 30 1.9595 -0.0131
12 0 31 10.9022 -1.6114
12 0 32 2.1765 -7.5844
12 0 33 5.3243 6.3094
12 0 34 0.1308 0.6989
12 0 35 0.1277 -2.4970
12 1 0 -3.4094 -4.4318
12 1 1 4.7376 -1.1132
12 1 2 -6.2829 2.0811
12 1 3 6.7067 1.6564
12 1 4 -3.3387 3.7080
12 1 5 13.9404 -9.3304
12 1 6 6.4180 0.4187
12 1 7 -2.0544 -9.4359
12 1 8 -9.1917 3.7648
12 1 9 -3.6636 8.8617
12 1 10 -15.4179 -2.1067
12 1 11 6.0209 -0.8876
12 1 12 -5.7365 4.0869
12 1 13 -1.3538 4.6272
12 1 14 7.7830 -5.8528
12 1 15 -5.9005 1.2624
12 1 16 2.9008 -3.4695
12 1 17 2.7428 -1.6100
12 1 18 -4.9023 -8.3814
12 1 19 3.8862 -15.1172
12 1 20 12.4748 2.4360
12 1 21 1.9108 -5.7170
12 1 22 16.0997 9.7538
12 1 23 -0.7853 2.1119
12 1 24 2.1631 6.6532
12 1 25 -3.5327 -1.2404
12 1 26 -9.5614 7.8395
12 1 27 -0.5283 6.3234
12 1 28 -1.6757 5.3177
12 1 29 5.0810 9.8610
12 1 30 9.8943 5.5559
12 1 31 -2.8118 3.4127
12 1 32 -1.9167 0.1287
12 1 33 1.1625 -4.7242
12 1 34 -7.1068 -5.5334
12 1 35 6.9099 -0.8612
12 2 0 -2.4749 -4.1380
12 2 1 -2.6955 7.1684
12 2 2 -2.2785 -4.4954
12 2 3 -4.7461 5.0420
12 2 4 -2.9049 -1.7566
12 2 5 7.7803 -0.5484
12 2 6 0.6861 -3.2627
12 2 7 -13.8761 -3.2611
12 2 8 -4.9430 -16.1580
12 2 9 -6.2384 10.2974
12 2 10 2.7190 0.7054
12 2 11 -1.4100 9.5439
12 2 12 7.3104 9.3387
12 2 13 -0.8029 -5.8262
12 2 14 1.4663 -0.5240
12 2 15 3.6790 4.5343
12 2 16 0.0822 -7.5279
12 2 17 6.4562 2.1298
12 2 18 -1.5753 3.8078
12 2 19 6.0403 -6.3306
12 2 20 -10.3606 5.8856
12 2 21 -9.8388 -9.6027
12 2 22 -12.4320 -5.1113
12 2 23 4.8208 -4.9785
12 2 24 2.3334 -7.1973
12 2 25 2.7671 2.4153
12 2 26 3.8352 -0.4287
12 2 27 2.0889 3.3447
12 2 28 3.2102 9.0481
12 2 29 4.3363 1.9901
12 2 30 2.0200 -1.3961
12 2 31 8.5690 -0.3338
12 2 32 11.2287 -6.0684
12 2 33 3.3106 1.7668
12 2 34 1.5557 0.0214
12 2 35 0.9336 0.8276
12 3 0 1.4377 2.7083
12 3 1 -1.6880 -4.5368
12 3 2 1.6538 -1.0374
12 3 3 4.5593 5.4099
12 3 4 -2.9616 3.3657
12 3 5 -7.0059 -0.3064
12 3 6 8.8540 3.1616
12 3 7 -7.4728 -5.5126
12 3 8 4.1968 3.2491
12 3 9 -4.4659 6.8730
12 3 10 -8.3938 16.2432
12 3 11 1.8968 4.1950
12 3 12 7.2677 -1.5411
12 3 13 -0.2978 1.4750
12 3 14 8.5311 -4.1298
12 3 15 -2.9387 -2.0239
12 3 16 -4.4299 -5.2454
12 3 17 3.2774 1.5591
12 3 18 -3.1234 -0.9529
12 3 19 0.1307 -5.9755
12 3 20 0.4948 -8.5454
12 3 21 -2.4593 0.3864
12 3 22 0.4488 6.7844
12 3 23 -6.4249 7.4438
12 3 24 -1.3890 11.6170
12 3 25 3.2647 1.8454
12 3 26 -2.3071 -1.9861
12 3 27 -0.4341 -0.2488
12 3 28 2.0558 -1.3174
12 3 29 1.9616 -0.8564
12 3 30 3.4562 2.4104
12 3 31 2.2764 -1.7756
12 3 32 -0.2641 0.5368
12 3 33 -0.1035 -3.4378
12 3 34 -1.0366 -7.4059
12 3 35 0.1644 -7.4751
12 4 0 -1.8457 -0.0672
12 4 1 -4.4948 9.0545
12 4 2 6.5214 0.0060
12 4 3 -3.0160 -1.4948
12 4 4 -5.7643 7.2501
12 4 5 0.4739 -5.3674
12 4 6 3.9659 3.4600
12 4 7 1.2959 9.0657
12 4 8 -5.8373 -1.3296
12 4 9 -1.5831 -4.6312
12 4 10 4.6727 3.2170
12 4 11 5.4941 -4.8214
12 4 12 11.8929 5.4464
12 4 13 7.6812 1.7180
12 4 14 4.3177 -5.0823
12 4 15 0.0846 0.2553
12 4 16 -5.1446 1.1223
12 4 17 -0.1526 -6.5927
12 4 18 -3.9331 4.2895
12 4 19 0.2434 -1.2413
12 4 20 0.2915 4.5425
12 4 21 3.1553 -0.4428
12 4 22 -8.0186 0.3914
12 4 23 -2.3897 5.1958
12 4 24 5.4967 -0.0596
12 4 25 7.6965 -1.2243
12 4 26 5.1239 -2.0966
12 4 27 2.5654 -4.9086
12 4 28 0.7631 -3.5792
12 4 29 3.6019 2.9454
12 4 30 -0.0907 -1.8981
12 4 31 0.4373 -0.3711
12 4 32 2.8163 -2.0088
12 4 33 8.0875 -0.0324
12 4 34 -5.9610 0.1851
12 5 0 8.6238 11.6813
12 5 1 7.1247 -1.3619
12 5 2 2.6392 0.5665
12 5 3 5.5790 0.7894
12 5 4 9.8977 0.5242
12 5 5 -4.2613 0.6022
12 5 6 2.9270 3.3353
12 5 7 5.7174 4.9622
12 5 8 -2.3827 0.5584
12 5 9 7.9632 -2.8028
12 5 10 2.4833 3.3891
12 5 11 -8.7424 4.0890
12 5 12 -0.0554 -1.8759
12 5 13 -2.8936 -3.9691
12 5 14 -4.7614 -11.1085
12 5 15 9.1215 -4.1213
12 5 16 -5.1195 -7.6454
12 5 17 3.6335 -1.1425
12 5 18 -3.9993 1.2271
12 5 19 -4.4281 5.7400
12 5 20 -1.7900 1.1851
12 5 21 1.3709 -2.5361
12 5 22 5.1232 -2.6164
12 5 23 2.9966 -4.3944
12 5 24 -2.1976 1.5275
12 5 25 3.0484 1.1554
12 5 26 1.8600 1.0813
12 5 27 -5.7130 -4.1192
12 5 28 -4.9367 -2.4680
12 5 29 -6.4882 -0.8042
12 5 30 -1.1278 -0.5810
12 5 31 -0.7522 -1.4460
12 5 32 -2.6547 -6.2881
12 5 33 -1.0646 2.0996
12 6 0 6.1745 0.6296
12 6 1 0.8157 -4.7773
12 6 2 7.6587 4.7491
12 6 3 6.9816 -11.3576
12 6 4 1.9000 -2.7941
12 6 5 -5.9461 1.5831
12 6 6 0.8501 -6.9548
12 6 7 2.5063 -1.2969
12 6 8 3.5750 6.7740
12 6 9 0.2877 -8.5911
12 6 10 5.1958 0.9407
12 6 11 -5.0688 -2.2621
12 6 12 2.8375 -2.1618
12 6 13 -0.2672 11.4209
12 6 14 4.7124 0.5913
12 6 15 -3.4081 4.5978
12 6 16 -6.8417 3.2525
12 6 17 -5.4506 -2.2148
12 6 18 -2.3515 -3.7324
12 6 19 -0.1428 0.7272
12 6 20 -0.6252 5.4222
12 6 21 6.2593 7.3110
12 6 22 1.3649 -1.8505
12 6 23 1.3675 -0.9226
12 6 24 -9.3570 -3.6035
12 6 25 -1.9342 -0.3514
12 6 26 2.0022 -0.6379
12 6 27 3.4499 -0.8828
12 6 28 -1.5071 1.0780
12 6 29 2.7431 3.8102
12 6 30 -0.0381 3.9532
12 6 31 -0.3039 6.5832
12 6 32 -0.5987 3.7962
12 7 0 -16.0318 5.9220
12 7 1 0.8679 0.7723
12 7 2 0.0316 -4.9307
12 7 3 -3.5217 -9.9000
12 7 4 0.6668 -0.7940
12 7 5 0.2757 -5.7352
12 7 6 -8.3715 -0.6714
12 7 7 7.8865 -0.9300
12 7 8 -1.4705 9.9129
12 7 9 3.6898 -6.0994
12 7 10 6.1207 0.0618
12 7 11 -4.2335 -5.8470
12 7 12 -2.4454 5.5424
12 7 13 3.3445 2.4243
12 7 14 -0.7629 0.5909
12 7 15 7.5356 -4.1699
12 7 16 4.3109 -0.3364
12 7 17 1.8576 0.0963
12 7 18 2.5360 5.6082
12 7 19 -0.3961 2.1732
12 7 20 -1.9292 -2.8697
12 7 21 -1.7799 2.2233
12 7 22 5.8825 -5.3165
12 7 23 0.3823 -5.9336
12 7 24 1.9502 -1.2499
12 7 25 -3.9531 1.9744
12 7 26 -0.6076 1.1431
12 7 27 0.7079 5.1031
12 7 28 0.1374 -6.7861
12 7 29 -2.6239 -2.5997
12 7 30 -0.5569 -3.0692
12 7 31 2.0891 0.5621
12 8 0 7.3175 0.1801
12 8 1 6.6113 2.4628
12 8 2 1.1582 8.2698
12 8 3 3.8972 1.9891
12 8 4 -2.0726 -6.1255
12 8 5 -3.0239 4.0199
12 8 6 -8.4103 -1.0040
12 8 7 3.9588 1.7181
12 8 8 -3.2024 3.7024
12 8 9 4.7597 -4.9519
12 8 10 -2.1490 -6.6152
12 8 11 1.9055 -2.3012
12 8 12 -5.1384 -11.3329
12 8 13 0.5482 5.9737
12 8 14 0.4243 2.2810
12 8 15 12.4947 -2.0624
12 8 16 -5.6598 -3.7420
12 8 17 -1.4687 1.3480
12 8 18 -1.4618 -2.7795
12 8 19 1.5100 -1.5929
12 8 20 3.6449 -0.3029
12 8 21 3.6768 -3.0164
12 8 22 -5.5243 6.3562
12 8 23 -1.3405 -0.0037
12 8 24 -2.7202 1.4979
12 8 25 -8.2385 3.6660
12 8 26 -0.3109 1.4297
12 8 27 1.1660 1.1304
12 8 28 5.4296 -0.2320
12 8 29 -4.3013 0.5559
12 9 0 -9.2348 -0.5039
12 9 1 -2.2781 -1.0458
12 9 2 0.7298 -2.9551
12 9 3 3.0651 -8.9179
12 9 4 4.5239 -5.5856
12 9 5 0.0823 0.3442
12 9 6 -6.2160 -0.4372
12 9 7 5.4790 1.7430
12 9 8 0.1689 -1.0898
12 9 9 -1.9792 3.2967
12 9 10 9.0337 -2.3975
12 9 11 -5.7255 0.9365
12 9 12 -5.8555 -3.2509
12 9 13 -7.4752 13.7014
12 9 14 -2.0795 -1.8181
12 9 15 -2.1840 3.6258
12 9 16 6.5832 -7.0673
12 9 17 -2.4231 -4.3254
12 9 18 -1.3881 -0.2778
12 9 19 4.6527 5.5049
12 9 20 0.1765 -3.0646
12 9 21 2.1944 -0.2072
12 9 22 -0.3150 -3.8189
12 9 23 -2.4710 -2.5194
12 9 24 5.5109 -1.8761
12 9 25 3.5591 2.6244
12 9 26 6.5335 8.6915
12 9 27 4.4546 -2.2735
12 10 0 -6.8391 0.1322
12 10 1 0.4805 2.5588
12 10 2 -4.8123 7.4859
12 10 3 0.5512 7.9042
12 10 4 -3.2756 -6.6921
12 10 5 -2.6772 3.8362
12 10 6 -5.2724 -7.3753
12 10 7 -1.6393 -3.6214
12 10 8 1.9533 5.4271
12 10 9 -1.3377 -3.7896
12 10 10 4.0832 -1.6269
12 10 11 -6.2380 0.0826
12 10 12 3.7604 -2.3774
12 10 13 -1.5298 -4.4479
12 10 14 3.9859 9.9508
12 10 15 7.2090 5.3391
12 10 16 6.6910 1.7805
12 10 17 0.3526 -1.3242
12 10 18 -1.6184 -2.4916
12 10 19 -4.4316 1.6016
12 10 20 2.3428 1.0929
12 10 21 -1.5873 -6.2456
12 10 22 3.0246 -1.7726
12 10 23 -2.8178 -5.1246
12 10 24 -7.9576 2.5777
12 10 25 2.8011 -2.4765
12 11 0 -0.0517 0.0339
12 11 1 -4.9772 7.5354
12 11 2 6.2080 4.0576
12 11 3 -4.3532 4.0190
12 11 4 13.9982 -1.8439
12 11 5 9.2910 1.7310
12 11 6 -6.1014 0.2217
12 11 7 -2.3493 -1.2136
12 11 8 -1.2803 4.8781
12 11 9 -8.3593 -1.5247
12 11 10 -1.3175 -0.5658
12 11 11 3.3015 -0.7581
12 11 12 -1.5124 -4.2178
12 11 13 -0.5725 2.3853
12 11 14 -3.6659 2.4111
12 11 15 -1.1294 0.9190
12 11 16 5.3624 -2.6249
12 11 17 6.5146 -5.8867
12 11 18 0.7179 -1.0293
12 11 19 -1.5180 -6.9295
12 11 20 -1.9117 0.5972
12 11 21 6.5803 -0.6972
12 11 22 -3.4860 -1.4086
12 12 0 1.1320 2.2881
12 12 1 2.6970 -9.0436
12 12 2 3.7969 4.0317
12 12 3 2.9505 5.0437
12 12 4 6.2882 -5.3260
12 12 5 4.0323 -2.9282
12 12 6 -1.8053 -4.7486
12 12 7 -2.0338 -12.3467
12 12 8 1.3260 2.8451
12 12 9 -3.5697 5.3094
12 12 10 4.4404 4.6343
12 12 11 -2.5803 4.9279
12 12 12 -2.2413 1.9516
12 12 13 -4.8658 -2.2943
12 12 14 -2.8217 -3.4225
12 12 15 3.1709 3.0416
12 12 16 0.1793 6.3326
12 12 17 6.0644 -0.6380
12 12 18 0.9820 -5.3069
12 12 19 1.1217 -1.7524
12 13 0 -5.4832 -4.5240
12 13 1 -2.6099 -0.7245
12 13 2 2.6518 2.1091
12 13 3 -4.9862 -3.0871
12 13 4 -4.9253 -0.7350
12 13 5 6.6497 -6.4074
12 13 6 -4.0836 0.6312
12 13 7 -5.1809 -5.7706
12 13 8 -7.4018 2.7105
12 13 9 -2.2226 -0.4650
12 13 10 -0.4372 3.2233
12 13 11 1.1527 -2.1647
12 13 12 7.6327 -0.4592
12 13 13 3.3330 4.1026
12 13 14 -1.3098 3.2211
12 14 0 -1.2994 3.6572
12 14 1 4.9622 2.3095
12 14 2 -6.5017 -0.4100
12 14 3 4.9527 4.6823
12 14 4 -2.2942 -2.2298
12 14 5 3.5587 3.0976
13 0 1 1.1067 7.4371
13 0 2 -2.5537 -13.3609
13 0 3 1.0367 8.8092
13 0 4 -2.1674 -6.8050
13 0 5 3.3700 10.2939
13 0 6 1.8024 3.8375
13 0 7 5.3687 3.3852
13 0 8 6.0018 -2.5624
13 0 9 -2.3802 10.1540
13 0 10 0.4537 -0.6287
13 0 11 -7.9273 1.5535
13 0 12 4.4673 11.8813
13 0 13 0.3435 0.0784
13 0 14 -0.5355 11.0679
13 0 15 5.7801 8.7920
13 0 16 6.2190 -4.0601
13 0 17 -1.8096 -0.5319
13 0 18 1.2147 -10.8948
13 0 19 -3.5930 -1.1811
13 0 20 4.0963 -6.6356
13 0 21 6.1461 2.2553
13 0 22 2.4971 -2.5232
13 0 23 5.9826 13.7325
13 0 24 -8.1367 0.0383
13 0 25 -6.3583 -7.3223
13 0 26 -5.4595 3.6996
13 0 27 -6.7872 -0.6887
13 0 28 0.1472 7.7575
13 0 29 3.3545 9.2442
13 0 30 5.2580 8.4888
13 0 31 2.0801 -2.3844
13 0 32 -1.0686 1.0917
13 0 33 -3.0959 -0.4650
13 1 0 11.0960 -0.5573
13 1 1 -8.9014 -1.4666
13 1 2 5.0469 4.2878
13 1 3 -1.5340 3.7842
13 1 4 -4.2517 -4.0323
13 1 5 1.4696 2.9430
13 1 6 3.0924 1.9851
13 1 7 4.5277 1.0802
13 1 8 5.4192 -0.0708
13 1 9 4.3351 -12.7807
13 1 10 -7.4415 0.5464
13 1 11 10.6497 0.8091
13 1 12 2.8381 -0.5634
13 1 13 0.6652 3.0025
13 1 14 10.6998 2.1417
13 1 15 5.0011 -5.3058
13 1 16 16.1520 3.8829
13 1 17 -1.4732 -8.0231
13 1 18 2.1618 3.1328
13 1 19 -5.9232 0.9114
13 1 20 -1.9126 -1.1038
13 1 21 -7.8893 9.5375
13 1 22 -3.3794 -3.6115
13 1 23 3.7845 -6.6057
13 1 24 -3.5400 -2.4410
13 1 25 4.6469 -4.1545
13 1 26 -0.4232 5.4164
13 1 27 -5.7009 5.9284
13 1 28 -7.4119 6.6866
13 1 29 8.4372 2.5641
13 1 30 1.1792 1.5045
13 1 31 7.4029 -5.1215
13 1 32 12.0785 -0.3074
13 1 33 -5.4944 -4.5463
13 2 0 -3.8888 -4.4661
13 2 1 -2.3142 1.6903
13 2 2 7.3141 -3.9657
13 2 3 -2.4732 3.6112
13 2 4 7.1948 -5.8464
13 2 5 2.5073 -1.2980
13 2 6 -1.3378 0.2057
13 2 7 3.0322 3.7731
13 2 8 1.2518 -11.1359
13 2 9 4.5234 0.0755
13 2 10 0.9519 -2.3370
13 2 11 -6.3560 -3.4277
13 2 12 -5.3373 5.4488
13 2 13 2.2199 -6.5050
13 2 14 -4.6005 4.2461
13 2 15 5.7442 -9.1708
13 2 16 -7.4718 -1.9060
13 2 17 2.0471 -9.2779
13 2 18 4.6558 -8.8478
13 2 19 -6.1879 -1.1660
13 2 20 1.0100 1.1044
13 2 21 4.4064 6.3697
13 2 22 -2.6311 -4.3057
13 2 23 6.5514 3.6886
13 2 24 -0.7123 3.7381
13 2 25 -3.4294 3.6782
13 2 26 -3.7271 -2.6247
13 2 27 -0.2585 8.8026
13 2 28 0.1129 0.1707
13 2 29 6.2429 5.9749
13 2 30 -1.5013 7.0249
13 2 31 5.5048 -8.4819
13 2 32 -1.3060 1.8337
13 3 0 0.9171 14.5501
13 3 1 -11.3350 -1.6674
13 3 2 -2.7689 5.8994
13 3 3 -0.7730 0.1165
13 3 4 0.1470 1.2431
13 3 5 -6.4413 -7.2061
13 3 6 -1.4953 -7.9129
13 3 7 -9.6004 -2.3408
13 3 8 -2.5432 -0.6110
13 3 9 4.6743 -2.5806
13 3 10 -8.6369 -2.8365
13 3 11 3.2863 -5.1113
13 3 12 -4.1528 -3.2585
13 3 13 5.3693 6.4175
13 3 14 -1.8711 -0.7013
13 3 15 1.5044 6.6222
13 3 16 3.9002 5.0360
13 3 17 0.6344 -2.0057
13 3 18 -3.4446 0.8479
13 3 19 -6.6294 3.0735
13 3 20 -1.1007 -7.9212
13 3 21 -2.5558 4.8146
13 3 22 1.8215 4.1272
13 3 23 -1.0607 -0.3373
13 3 24 0.0329 0.0363
13 3 25 -3.1272 -2.9037
13 3 26 2.2608 -2.1830
13 3 27 6.2999 3.7587
13 3 28 0.3604 -4.2414
13 3 29 7.8451 3.0684
13 3 30 2.4816 1.9373
13 3 31 1.0490 -3.5517
13 3 32 5.5515 1.4905
13 4 0 -1.1845 2.1723
13 4 1 6.8482 3.1296
13 4 2 1.3803 8.0757
13 4 3 6.9305 8.2800
13 4 4 2.8606 9.7239
13 4 5 -2.9052 -6.5618
13 4 6 -0.8054 -1.0472
13 4 7 -2.6955 10.0549
13 4 8 -14.0953 2.4036
13 4 9 -1.9985 11.1864
13 4 10 -2.6218 3.1671
13 4 11 -3.1957 -0.4742
13 4 12 -3.6367 -1.4308
13 4 13 -6.1268 -2.2942
13 4 14 -4.3582 -1.9946
13 4 15 4.0258 1.9102
13 4 16 4.2894 -5.0853
13 4 17 1.4254 0.0732
13 4 18 9.8252 -4.5007
13 4 19 -1.5873 -6.6360
13 4 20 -6.1368 -0.3292
13 4 21 2.0712 3.2847
13 4 22 -2.6818 1.0624
13 4 23 7.0798 4.5677
13 4 24 6.3754 -6.0898
13 4 25 0.1330 8.0333
13 4 26 3.0029 0.6968
13 4 27 -3.4526 2.9535
13 4 28 -5.7613 -1.2582
13 4 29 1.7182 -2.1275
13 4 30 -3.6337 -1.7796
13 4 31 -2.1281 -3.3608
13 5 0 4.5731 -5.0931
13 5 1 5.7073 0.6703
13 5 2 -3.8563 2.4009
13 5 3 9.4176 -6.6366
13 5 4 5.1256 -0.4284
13 5 5 5.6980 6.3814
13 5 6 7.6225 -8.3275
13 5 7 -3.5540 6.9062
13 5 8 -8.5004 3.6136
13 5 9 7.3052 5.9630
13 5 10 3.8097 6.2686
13 5 11 9.3422 8.3373
13 5 12 4.3212 -0.4251
13 5 13 -4.8112 6.5804
13 5 14 1.1709 5.0611
13 5 15 -7.2035 3.3801
13 5 16 -0.5076 5.6175
13 5 17 1.6847 -1.3324
13 5 18 -1.9671 -9.2058
13 5 19 -2.5760 3.6650
13 5 20 0.4003 -9.2399
13 5 21 -12.4625 5.3773
13 5 22 5.9580 5.0250
13 5 23 -3.7963 0.5567
13 5 24 5.0985 -2.3868
13 5 25 1.9368 -7.4963
13 5 26 -0.9210 -9.2884
13 5 27 0.2290 2.0378
13 5 28 8.1003 -0.3882
13 5 29 -0.6767 -0.2691
13 5 30 4.6694 5.3531
13 6 0 -2.8004 -11.4367
13 6 1 3.9859 -4.3133
13 6 2 -0.5095 -11.1739
13 6 3 -4.7584 -2.7910
13 6 4 11.5639 4.0028
13 6 5 -1.6535 0.2766
13 6 6 -0.9072 -11.7437
13 6 7 4.8051 2.1209
13 6 8 4.0098 -6.2849
13 6 9 -0.8319 5.7770
13 6 10 8.8558 5.1973
13 6 11 3.2396 1.0160
13 6 12 6.2234 -1.7494
13 6 13 2.4444 -8.6352
13 6 14 2.2621 -1.3994
13 6 15 2.2933 5.0689
13 6 16 11.1242 -1.1212
13 6 17 -7.0847 1.3004
13 6 18 9.6233 3.9358
13 6 19 -5.1113 -4.5915
13 6 20 -1.0974 5.4020
13 6 21 -2.4569 -3.0864
13 6 22 -0.3494 0.5941
13 6 23 1.5297 5.0840
13 6 24 6.4262 -2.0161
13 6 25 -3.3078 -5.7779
13 6 26 -4.2206 1.7025
13 6 27 -4.9359 -2.9524
13 6 28 -4.4490 5.0586
13 6 29 -2.3713 -4.7225
13 7 0 3.1741 3.7429
13 7 1 -1.1819 -3.3736
13 7 2 -9.0405 5.7600
13 7 3 -4.6603 1.7299
13 7 4 -1.3598 -5.1746
13 7 5 -6.5749 1.5153
13 7 6 4.6258 -4.7588
13 7 7 2.2842 -4.6865
13 7 8 -1.1730 -0.9012
13 7 9 -4.6583 -2.4870
13 7 10 -2.6012 -1.5853
13 7 11 5.2568 -3.7502
13 7 12 5.5128 -1.9403
13 7 13 -1.6598 -6.7162
13 7 14 2.1772 4.6669
13 7 15 -4.2988 -7.7485
13 7 16 0.5362 7.2517
13 7 17 3.6226 -6.7046
13 7 18 -2.6327 0.5657
13 7 19 -1.7974 -0.8208
13 7 20 4.4118 3.8391
13 7 21 -0.2997 -2.5363
13 7 22 1.6372 2.9552
13 7 23 -0.0094 -0.5668
13 7 24 -1.7063 1.1445
13 7 25 0.5317 -1.1595
13 7 26 -5.9945 0.6132
13 7 27 -2.1331 0.0816
13 7 28 -1.6898 5.9935
13 8 0 0.8386 -9.7522
13 8 1 2.0347 1.5399
13 8 2 7.7831 -5.0830
13 8 3 -3.9510 0.0918
13 8 4 6.8890 1.2692
13 8 5 2.4156 5.8615
13 8 6 4.6392 -1.2570
13 8 7 -2.5845 1.8818
13 8 8 0.5646 -3.3514
13 8 9 -1.5363 -0.0098
13 8 10 -3.5648 -0.5764
13 8 11 0.3534 -0.6586
13 8 12 -3.7957 6.9694
13 8 13 4.0336 -3.8045
13 8 14 -6.8103 -3.4973
13 8 15 0.3533 0.9338
13 8 16 0.1603 1.7173
13 8 17 6.8510 -1.6493
13 8 18 -3.7624 -0.9530
13 8 19 3.8805 -1.8161
13 8 20 -1.7250 1.2037
13 8 21 3.8757 0.4719
13 8 22 2.6488 -3.4207
13 8 23 1.2263 -3.7864
13 8 24 -1.2618 -2.6398
13 8 25 3.6845 2.1674
13 8 26 -2.5432 -1.2675
13 9 0 5.1640 5.6496
13 9 1 -6.1737 -6.3546
13 9 2 -1.3392 0.6078
13 9 3 -7.4502 -6.9345
13 9 4 4.8424 3.5248
13 9 5 -4.5114 -3.6257
13 9 6 3.2438 -2.2968
13 9 7 -1.9225 -8.4103
13 9 8 -0.1764 -3.9600
13 9 9 3.8512 -6.9933
13 9 10 -5.2361 -3.4062
13 9 11 -0.2573 1.8295
13 9 12 3.3128 1.7757
13 9 13 0.6577 0.7157
13 9 14 0.9598 -0.4351
13 9 15 -0.6881 5.0821
13 9 16 0.2088 -2.0611
13 9 17 0.1283 7.4284
13 9 18 3.2808 -5.6442
13 9 19 -2.2170 -3.8386
13 9 20 -0.1179 0.2859
13 9 21 -1.1992 0.3819
13 9 22 0.1539 -0.9904
13 9 23 -5.8178 1.4591
13 9 24 -2.1037 -7.3130
13 10 0 -2.9104 3.3323
13 10 1 4.9623 -1.7070
13 10 2 -3.0547 6.5230
13 10 3 -4.3452 -2.6236
13 10 4 -7.0268 7.0511
13 10 5 0.8302 3.6661
13 10 6 -4.4316 -5.3187
13 10 7 5.8927 2.4262
13 10 8 -6.5793 -4.6118
13 10 9 -5.4034 0.2518
13 10 10 -8.5334 3.6757
13 10 11 -6.4243 -1.3297
13 10 12 -5.9056 -1.2744
13 10 13 -1.3737 0.5610
13 10 14 7.5225 -1.5783
13 10 15 -4.4895 -3.6756
13 10 16 2.6848 2.3030
13 10 17 4.7347 -0.8597
13 10 18 4.7787 2.5265
13 10 19 5.9226 -3.4466
13 10 20 -0.8771 -0.6078
13 10 21 -5.3865 -2.8763
13 11 0 0.7451 0.3529
13 11 1 4.6843 2.2476
13 11 2 -2.8532 0.1109
13 11 3 -4.4848 1.2217
13 11 4 9.9175 -4.3165
13 11 5 -2.1113 13.5578
13 11 6 7.7331 1.9007
13 11 7 3.5886 3.3747
13 11 8 -4.5705 -1.6420
13 11 9 -5.4819 2.1310
13 11 10 -0.5255 -0.0458
13 11 11 -4.9651 3.1866
13 11 12 3.8581 9.6383
13 11 13 0.5665 3.2189
13 11 14 -1.6190 3.9494
13 11 15 -1.8360 -0.9271
13 11 16 -3.7239 -4.2944
13 11 17 1.7287 3.3805
13 11 18 0.3727 0.7957
13 12 0 -2.0979 -3.0787
13 12 1 -2.9015 -6.1448
13 12 2 5.8625 7.3436
13 12 3 -0.3013 -5.3413
13 12 4 5.2227 4.5394
13 12 5 -0.9020 4.3252
13 12 6 1.5266 -4.0380
13 12 7 0.9683 -7.5949
13 12 8 7.4447 -2.0593
13 12 9 2.6138 -8.6601
13 12 10 -1.3083 8.2397
13 12 11 3.2735 2.8481
13 12 12 -1.0957 7.8998
13 12 13 0.0202 0.0987
13 13 0 -3.6925 -0.7335
13 13 1 5.1007 0.9751
13 13 2 -2.9467 5.1423
13 13 3 -4.2363 2.4866
13 13 4 4.0541 -4.5974
13 13 5 3.4645 -9.5064
14 0 0 11.2819 0.7336
14 0 1 9.6453 -5.7310
14 0 2 2.6042 1.4838
14 0 3 -5.3322 -1.5636
14 0 4 -2.0712 -1.4668
14 0 5 -8.6507 2.5394
14 0 6 3.1544 -5.7498
14 0 7 -3.5444 0.6993
14 0 8 2.5258 -3.2019
14 0 9 -3.1688 1.5802
14 0 10 -5.6630 0.4917
14 0 11 -9.6477 -2.0096
14 0 12 4.5856 -2.0562
14 0 13 -2.2946 8.8224
14 0 14 2.7269 -1.6729
14 0 15 13.0139 2.2592
14 0 16 -5.8449 6.4516
14 0 17 12.4836 14.1278
14 0 18 -3.9107 4.4223
14 0 19 -2.4110 -1.2211
14 0 20 -3.8714 -5.7819
14 0 21 -7.8880 -1.5495
14 0 22 6.8416 -3.0824
14 0 23 -2.2957 6.4228
14 0 24 -7.8604 4.3630
14 0 25 -2.4375 2.1799
14 0 26 -5.8737 -2.2980
14 0 27 -7.6874 -5.0774
14 0 28 -5.8126 -6.5070
14 0 29 -2.2462 -0.7027
14 0 30 -4.5125 3.2658
14 1 0 -5.8499 -0.7995
14 1 1 -0.3483 -14.3301
14 1 2 1.6873 -4.1406
14 1 3 -10.4175 -15.4236
14 1 4 0.0512 6.4185
14 1 5 1.1505 -3.3518
14 1 6 4.1394 6.6362
14 1 7 -0.3121 5.6808
14 1 8 -5.8405 2.0389
14 1 9 -0.9625 -2.0047
14 1 10 6.8484 3.5688
14 1 11 -6.0173 2.1052
14 1 12 2.0350 5.1590
14 1 13 0.2223 19.5727
14 1 14 0.5464 -10.2696
14 1 15 -2.4213 7.8170
14 1 16 1.4745 -7.9876
14 1 17 -1.1295 -10.4288
14 1 18 10.0145 -3.0187
14 1 19 3.0703 -13.8141
14 1 20 10.3298 8.6090
14 1 21 -2.9954 3.3604
14 1 22 -9.3950 4.5099
14 1 23 -4.9757 3.3250
14 1 24 0.2636 -1.0676
14 1 25 1.6770 -1.7635
14 1 26 8.1481 5.6798
14 1 27 -1.4479 11.7102
14 1 28 0.2114 3.8311
14 1 29 -6.8497 11.6302
14 1 30 -11.9056 3.1955
14 2 0 -9.0764 5.9501
14 2 1 7.3369 -3.9898
14 2 2 -13.3242 1.4173
14 2 3 -4.3492 2.8716
14 2 4 -9.1343 1.5973
14 2 5 -5.5239 5.3479
14 2 6 1.8539 2.9447
14 2 7 -0.9089 -4.6897
14 2 8 3.7163 -1.7285
14 2 9 2.5510 -4.5004
14 2 10 9.0298 5.0498
14 2 11 -7.7488 3.5738
14 2 12 13.4056 -5.1719
14 2 13 -0.4760 -2.2705
14 2 14 11.7900 1.4847
14 2 15 12.3271 -2.8200
14 2 16 -2.6433 4.7585
14 2 17 6.6388 -3.5270
14 2 18 -10.5299 8.1388
14 2 19 -1.9886 2.9021
14 2 20 -9.0973 -7.5846
14 2 21 -6.5311 -3.8303
14 2 22 0.6349 -1.9480
14 2 23 5.6237 -2.0450
14 2 24 4.3318 8.6689
14 2 25 -5.2577 2.2206
14 2 26 2.3264 3.1293
14 2 27 -2.1216 -2.1203
14 2 28 6.9556 -7.0354
14 2 29 5.5384 4.1217
14 3 0 6.0569 -3.0796
14 3 1 -1.6941 5.9461
14 3 2 5.0840 2.3280
14 3 3 4.5009 1.4965
14 3 4 -5.8884 9.7197
14 3 5 -0.3319 3.6068
14 3 6 3.9490 7.5438
14 3 7 4.9663 -3.2981
14 3 8 0.7974 2.5957
14 3 9 -8.4207 -5.9017
14 3 10 -0.8611 1.8427
14 3 11 -3.5482 -6.2761
14 3 12 1.8049 -4.8194
14 3 13 1.5311 -0.1013
14 3 14 -4.4904 -10.0891
14 3 15 -1.3054 -3.1008
14 3 16 -3.0239 -12.5806
14 3 17 -4.2924 -0.9047
14 3 18 6.2480 -6.0631
14 3 19 0.9406 -0.8241
14 3 20 3.1500 0.6560
14 3 21 6.8198 2.0407
14 3 22 -1.9098 7.0299
14 3 23 -4.8303 2.4792
14 3 24 -1.2043 5.9105
14 3 25 -0.9438 -2.5560
14 3 26 4.8059 2.5383
14 3 27 -1.1779 -0.4891
14 3 28 1.6465 2.7103
14 3 29 2.3117 0.1531
14 4 0 -5.0181 6.4739
14 4 1 4.5410 6.6237
14 4 2 2.7343 -7.5681
14 4 3 6.5247 -2.1185
14 4 4 -1.6685 2.9045
14 4 5 2.9438 -3.7765
14 4 6 5.3645 2.9141
14 4 7 4.4778 -0.1129
14 4 8 1.8132 2.9782
14 4 9 -3.7079 -6.3923
14 4 10 0.4009 3.0524
14 4 11 -7.7486 5.9191
14 4 12 1.0331 6.5835
14 4 13 -6.4186 -0.4036
14 4 14 -2.5515 3.8694
14 4 15 -7.4341 -3.8180
14 4 16 0.4174 7.9333
14 4 17 -6.7411 0.9778
14 4 18 -1.4050 3.0907
14 4 19 -3.4431 3.9334
14 4 20 -1.3977 1.1465
14 4 21 -4.1496 -8.2402
14 4 22 -3.2439 0.7089
14 4 23 1.2789 -5.8365
14 4 24 2.0703 0.6883
14 4 25 9.7716 2.3436
14 4 26 3.1290 -1.4211
14 4 27 1.5194 3.0750
14 4 28 4.5611 -1.5841
14 5 0 12.2689 3.6751
14 5 1 9.8417 6.6816
14 5 2 1.4226 1.1539
14 5 3 9.1253 -6.3425
14 5 4 2.4748 -3.8967
14 5 5 0.1546 -5.8789
14 5 6 -2.8592 0.5893
14 5 7 4.5027 0.2512
14 5 8 1.3824 1.7211
14 5 9 -0.3844 -8.0943
14 5 10 -1.8163 2.3226
14 5 11 3.9707 1.1818
14 5 12 -4.0194 1.7199
14 5 13 11.4604 2.7405
14 5 14 0.9331 7.2442
14 5 15 5.9417 -0.5335
14 5 16 -0.0416 9.9636
14 5 17 2.3853 -2.3405
14 5 18 -1.2054 4.0609
14 5 19 8.4863 -7.6205
14 5 20 -3.8472 2.5669
14 5 21 7.5650 1.0736
14 5 22 1.0233 0.7889
14 5 23 -5.5184 5.5824
14 5 24 1.0960 3.4934
14 5 25 -4.2692 -3.2391
14 5 26 -0.9192 -0.3469
14 5 27 3.2500 -9.6584
14 6 0 -1.8415 -2.5174
14 6 1 1.8525 3.6238
14 6 2 3.0264 -4.5105
14 6 3 3.1340 -9.7655
14 6 4 3.2827 -7.3684
14 6 5 -9.8904 -3.1886
14 6 6 -7.0068 -0.6490
14 6 7 -2.5193 -6.6753
14 6 8 0.0449 0.0347
14 6 9 -1.0762 2.2661
14 6 10 6.4373 -9.2159
14 6 11 -3.9310 5.8783
14 6 12 -4.4821 -1.4549
14 6 13 4.7864 4.5088
14 6 14 -4.2000 -4.2014
14 6 15 7.1278 -1.6154
14 6 16 -3.2295 -6.8788
14 6 17 11.4389 2.6366
14 6 18 0.4705 -8.5100
14 6 19 1.1335 5.1740
14 6 20 -2.9214 -0.0439
14 6 21 -4.8045 -2.4915
14 6 22 -2.9106 2.8995
14 6 23 5.8028 -3.8591
14 6 24 -3.6845 -3.2886
14 6 25 4.6436 5.4545
14 6 26 2.3971 -2.2869
14 7 0 0.2332 -1.5396
14 7 1 2.8979 -6.7916
14 7 2 -0.3816 8.5756
14 7 3 0.2866 -4.7335
14 7 4 -9.4031 5.0183
14 7 5 0.2247 -3.8388
14 7 6 -6.6861 4.8429
14 7 7 -4.9383 -2.8653
14 7 8 5.5951 15.7283
14 7 9 -4.7323 2.0729
14 7 10 0.7057 -2.2364
14 7 11 -5.0712 0.4393
14 7 12 -0.5159 -4.4787
14 7 13 -2.0895 2.8780
14 7 14 5.3609 -1.6398
14 7 15 -0.9633 3.1359
14 7 16 5.6725 -2.1294
14 7 17 -8.2118 1.2092
14 7 18 1.5832 0.1451
14 7 19 -0.1431 -5.3032
14 7 20 -3.4142 -4.6542
14 7 21 2.0050 2.4907
14 7 22 5.5655 -0.3836
14 7 23 -1.1512 0.6662
14 7 24 5.7654 1.3645
14 8 0 -11.0032 -5.1965
14 8 1 -0.9833 2.1650
14 8 2 -9.5126 -4.0093
14 8 3 3.7925 2.5737
14 8 4 -3.6552 -1.1740
14 8 5 11.4905 0.3532
14 8 6 -2.8820 8.2066
14 8 7 3.1322 2.7583
14 8 8 5.0318 0.7477
14 8 9 -0.1295 -0.3767
14 8 10 6.2568 -0.7743
14 8 11 5.7855 -4.4524
14 8 12 -0.0519 1.5340
14 8 13 -3.1297 2.3729
14 8 14 -1.3689 9.3353
14 8 15 -0.0382 -5.7884
14 8 16 -2.5826 2.1489
14 8 17 -0.7099 -2.6277
14 8 18 -1.2461 0.5033
14 8 19 4.6309 2.2160
14 8 20 -1.5110 1.5920
14 8 21 1.3386 -3.9672
14 8 22 -6.2992 4.8637
14 9 0 1.0683 -1.9323
14 9 1 -1.7049 3.6239
14 9 2 -2.0699 -4.6329
14 9 3 2.2926 4.6585
14 9 4 1.9059 1.5958
14 9 5 -2.9755 -0.9269
14 9 6 5.2873 4.9869
14 9 7 0.7149 -7.7713
14 9 8 3.3468 -4.4596
14 9 9 3.4615 -3.7934
14 9 10 0.0979 -1.7098
14 9 11 -0.4423 -4.9162
14 9 12 -6.8315 -2.7053
14 9 13 1.0089 -2.6748
14 9 14 -4.3187 0.0573
14 9 15 8.1965 0.5097
14 9 16 4.3490 -0.8753
14 9 17 0.9583 7.2528
14 9 18 -1.6389 -1.8755
14 9 19 4.7319 7.7743
14 10 0 7.3407 -4.8963
14 10 1 1.3327 -3.3375
14 10 2 -4.2822 6.6649
14 10 3 3.5136 -2.3380
14 10 4 -8.7841 7.8018
14 10 5 0.5317 -5.7051
14 10 6 -0.8273 -1.0421
14 10 7 5.4786 -1.5642
14 10 8 -1.1515 -2.1291
14 10 9 3.2574 -2.5075
14 10 10 -9.3760 -2.4475
14 10 11 -3.2089 2.2020
14 10 12 -6.4925 -4.5255
14 10 13 0.2485 4.1829
14 10 14 -2.2669 2.6450
14 10 15 -5.5580 4.8229
14 10 16 4.8999 -3.1751
14 11 0 -7.0561 -0.3907
14 11 1 0.6043 5.1701
14 11 2 -14.6296 -6.2536
14 11 3 1.3775 -2.4255
14 11 4 2.5306 -0.1245
14 11 5 7.6726 3.9451
14 11 6 2.6606 -0.2463
14 11 7 1.2528 8.3368
14 11 8 -1.0887 -5.5773
14 11 9 -2.8767 0.9346
14 11 10 0.3594 -9.4702
14 11 11 -2.9198 4.4289
15 0 1 8.2746 -1.0715
15 0 2 4.7415 0.1266
15 0 3 9.6333 -2.5345
15 0 4 5.0798 -10.8884
15 0 5 -3.3283 -2.0941
15 0 6 1.7099 -7.4065
15 0 7 -3.4222 8.7633
15 0 8 -2.2797 3.0899
15 0 9 5.1300 5.2692
15 0 10 -13.4708 4.7657
15 0 11 0.7593 -9.4031
15 0 12 3.8929 3.1579
15 0 13 -10.1158 2.0489
15 0 14 -8.0638 6.8939
15 0 15 -3.9695 0.0709
15 0 16 -3.1392 1.8496
15 0 17 7.1506 -3.5078
15 0 18 -6.6243 -9.2720
15 0 19 5.9317 3.6562
15 0 20 5.6120 -10.7146
15 0 21 -1.2310 1.8833
15 0 22 -2.2954 -2.3755
15 0 23 -2.7343 7.1420
15 0 24 0.3373 0.1898
15 0 25 -0.0899 -4.7973
15 0 26 1.2319 1.6958
15 1 0 -0.8678 4.2660
15 1 1 -0.1518 4.6332
15 1 2 3.8888 5.1170
15 1 3 -2.8616 -2.8382
15 1 4 2.8712 -4.7799
15 1 5 -6.0151 -11.6627
15 1 6 -4.8985 1.5158
15 1 7 -1.2446 9.5636
15 1 8 -11.7295 -6.0529
15 1 9 8.7002 0.6751
15 1 10 0.5176 4.3520
15 1 11 6.0277 0.5453
15 1 12 1.4294 2.9044
15 1 13 0.8828 2.2955
15 1 14 1.0581 -1.1305
15 1 15 4.4997 16.4440
15 1 16 12.6313 -1.8113
15 1 17 -7.1549 10.4521
15 1 18 8.7112 -2.1739
15 1 19 -8.2006 -6.0529
15 1 20 2.1392 -5.0659
15 1 21 -7.6584 -1.4925
15 1 22 -7.0069 -2.0114
15 1 23 -1.7321 -3.0975
15 1 24 -5.4700 2.4536
15 1 25 4.5841 0.3943
15 1 26 -2.2017 -3.5573
15 2 0 4.2238 -2.3972
15 2 1 7.5118 -5.0788
15 2 2 4.3950 1.1428
15 2 3 9.1807 0.4991
15 2 4 -0.6434 -6.4784
15 2 5 0.3097 6.0093
15 2 6 -0.4308 -7.0819
15 2 7 -7.2928 8.2177
15 2 8 0.1942 1.8949
15 2 9 6.2792 3.2033
15 2 10 2.0515 7.3013
15 2 11 -4.1220 1.3710
15 2 12 4.6620 0.6703
15 2 13 -3.2692 -6.4249
15 2 14 11.3599 4.8888
15 2 15 -5.7729 -11.6783
15 2 16 6.9342 4.8920
15 2 17 6.9102 -14.0952
15 2 18 9.7703 -1.6562
15 2 19 -1.9327 -2.2866
15 2 20 -2.8994 -1.2284
15 2 21 -1.4774 2.6128
15 2 22 -7.6597 -2.7240
15 2 23 -2.9260 8.1793
15 2 24 0.1674 3.7693
15 2 25 -1.5658 9.7357
15 2 26 -1.7144 -1.7246
15 3 0 -7.2228 -3.2988
15 3 1 -10.4474 -0.6349
15 3 2 5.4769 -11.8587
15 3 3 -3.9112 1.8770
15 3 4 6.5276 3.5079
15 3 5 -1.3700 -6.5720
15 3 6 -3.4271 -4.5259
15 3 7 2.0244 1.3111
15 3 8 -1.7689 4.2062
15 3 9 5.3092 -1.0941
15 3 10 -0.7025 2.4960
15 3 11 10.8586 -6.8019
15 3 12 0.0485 4.1110
15 3 13 11.1775 -4.8987
15 3 14 -5.5481 2.1551
15 3 15 4.6506 -5.6517
15 3 16 -3.7771 2.6419
15 3 17 -3.3357 -6.9916
15 3 18 -2.7127 -1.5097
15 3 19 -5.0449 -2.8118
15 3 20 -2.5735 -7.7067
15 3 21 -3.0593 -0.7923
15 3 22 2.3769 3.7501
15 3 23 -5.4277 0.9180
15 3 24 4.3503 1.9574
15 3 25 4.2877 3.1873
15 4 0 2.2974 10.5660
15 4 1 -8.7593 4.9608
15 4 2 -8.0102 8.5074
15 4 3 0.7914 7.9810
15 4 4 -0.8427 -3.8298
15 4 5 -1.1872 -5.7875
15 4 6 4.9671 -6.6868
15 4 7 5.0866 -0.6871
15 4 8 -6.8837 -2.7594
15 4 9 2.4442 3.4790
15 4 10 0.7460 -4.7051
15 4 11 3.8903 -1.0467
15 4 12 -3.1148 -6.2452
15 4 13 1.1053 -3.7318
15 4 14 -6.4064 -5.9565
15 4 15 4.2796 -5.2220
15 4 16 -7.0374 -0.0214
15 4 17 -0.6849 2.1831
15 4 18 0.3572 -1.0148
15 4 19 -1.1548 1.2634
15 4 20 -2.8701 3.4607
15 4 21 -2.7376 -2.0496
15 4 22 -2.8258 3.9414
15 4 23 -3.2217 2.4340
15 4 24 0.2116 -1.6058
15 5 0 0.2472 -1.6868
15 5 1 -4.0129 5.9782
15 5 2 3.8654 4.2656
15 5 3 7.4780 -2.4038
15 5 4 3.5833 5.9246
15 5 5 5.9929 6.2699
15 5 6 -4.2868 -5.9727
15 5 7 -5.3107 -2.6840
15 5 8 -10.1192 -4.3175
15 5 9 -2.5155 -2.7066
15 5 10 -2.8154 -0.9781
15 5 11 -0.3883 1.4546
15 5 12 -4.7338 -5.0514
15 5 13 -1.2683 4.0597
15 5 14 -5.5537 -5.5986
15 5 15 -4.1102 7.6937
15 5 16 -0.3264 1.7054
15 5 17 -2.1278 3.1343
15 5 18 -1.9363 4.7463
15 5 19 5.0324 -0.1172
15 5 20 -0.4597 0.0194
15 5 21 -1.4285 -1.0476
15 5 22 1.0564 2.2440
15 5 23 -1.0318 4.6483
15 6 0 9.5256 4.2441
15 6 1 12.3116 3.2748
15 6 2 0.2233 -2.0360
15 6 3 0.5192 7.1075
15 6 4 4.3632 -5.3921
15 6 5 0.4828 4.7929
15 6 6 -2.3045 -7.7244
15 6 7 2.0482 0.1370
15 6 8 -0.6928 2.4739
15 6 9 -5.5693 4.8126
15 6 10 -2.2560 2.7753
15 6 11 -4.4744 7.1377
15 6 12 6.1503 -0.5471
15 6 13 -6.8701 2.1802
15 6 14 1.5505 4.6790
15 6 15 0.8864 4.0729
15 6 16 -1.0139 -1.7982
15 6 17 5.6812 2.5482
15 6 18 3.8342 -3.3220
15 6 19 3.7887 0.6122
15 6 20 4.3845 -2.1850
15 6 21 -0.4694 -0.3959
15 7 0 4.8388 -7.4907
15 7 1 1.1727 -7.5876
15 7 2 11.3285 -9.8126
15 7 3 -0.8616 -4.9854
15 7 4 1.8797 -6.4439
15 7 5 3.5936 0.8649
15 7 6 -6.2954 3.0871
15 7 7 4.6894 -0.0862
15 7 8 1.6742 2.0919
15 7 9 -1.7598 -0.1880
15 7 10 0.6482 6.7160
15 7 11 3.5577 -1.4624
15 7 12 -0.2696 4.1634
15 7 13 -0.9550 0.8323
15 7 14 2.3700 -3.8373
15 7 15 -0.9656 2.4404
15 7 16 6.1255 1.4997
15 7 17 -0.9481 -3.6283
15 7 18 1.1644 -0.4441
15 7 19 -7.9090 -2.7628
15 8 0 4.3947 3.6830
15 8 1 -0.1609 -0.4380
15 8 2 -2.0701 -11.5724
15 8 3 -6.1409 1.9279
15 8 4 -7.5747 -17.7163
15 8 5 -0.5814 2.0061
15 8 6 -1.5963 0.1737
15 8 7 3.4035 4.8094
15 8 8 1.1475 -1.4773
15 8 9 7.0086 6.1905
15 8 10 -0.2604 -7.7769
15 8 11 -0.2112 -1.9404
15 8 12 6.9760 0.4333
15 8 13 2.3744 -1.0346
15 8 14 -1.0543 1.3642
15 8 15 1.6123 1.1230
15 8 16 -2.1473 5.5816
15 8 17 1.1172 -4.6911
15 9 0 4.2644 -0.2223
15 9 1 -11.2114 -1.0060
15 9 2 7.5562 -5.8174
15 9 3 -3.7307 0.5609
15 9 4 -4.1690 -0.2722
15 9 5 -7.9097 6.6531
15 9 6 0.3498 0.0106
15 9 7 -11.8471 3.8641
15 9 8 10.9567 -2.8323
15 9 9 4.7776 -6.6103
15 9 10 4.8559 -1.2005
15 9 11 -0.7804 -4.9190
15 9 12 -0.8036 -1.2949
15 9 13 -4.7816 0.6243
15 10 0 2.0756 0.5412
15 10 1 -0.2970 4.4639
15 10 2 5.3363 -4.1813
15 10 3 -7.6590 0.1088
15 10 4 -2.2970 4.5542
15 10 5 -4.4213 -7.4751
15 10 6 0.9251 6.4855
15 10 7 5.9877 -0.5972
15 10 8 -0.3601 3.3971
16 0 0 0.5084 6.8176
16 0 1 4.0166 9.1016
16 0 2 -0.8622 2.7628
16 0 3 1.6370 3.5651
16 0 4 -5.8391 -4.2154
16 0 5 1.2756 -1.2392
16 0 6 8.1151 -4.3828
16 0 7 -6.7445 -5.7584
16 0 8 10.0824 0.5403
16 0 9 -11.3140 7.7682
16 0 10 -8.8777 -2.8391
16 0 11 -2.5059 -7.3354
16 0 12 -0.8641 -3.8926
16 0 13 8.9227 1.8353
16 0 14 2.9774 3.2339
16 0 15 4.0668 -5.8787
16 0 16 -2.4376 9.4039
16 0 17 -0.2314 -2.7572
16 0 18 -10.7327 3.4660
16 0 19 5.8806 -15.4609
16 0 20 -4.4846 -4.8917
16 0 21 6.4142 -1.6095
16 0 22 7.5157 -5.0993
16 1 0 0.6925 1.3203
16 1 1 7.2492 -0.5280
16 1 2 12.5961 -2.8914
16 1 3 1.9415 -3.1383
16 1 4 -1.6033 2.4285
16 1 5 6.2602 -8.7117
16 1 6 4.6912 12.9681
16 1 7 -7.0757 -3.8690
16 1 8 -3.6620 2.8116
16 1 9 1.5081 -0.7952
16 1 10 4.5714 -1.6783
16 1 11 0.9589 13.9050
16 1 12 -7.4297 5.6574
16 1 13 -0.6962 9.7939
16 1 14 -11.7258 -0.8312
16 1 15 5.2535 -1.7858
16 1 16 -4.7002 -8.9806
16 1 17 10.5096 7.3157
16 1 18 2.6733 -5.9332
16 1 19 -0.6990 4.7899
16 1 20 2.7254 5.1691
16 1 21 -9.5184 -4.7662
16 2 0 -1.3652 2.0182
16 2 1 2.3886 -0.8459
16 2 2 1.3320 -3.1938
16 2 3 5.0276 -1.7880
16 2 4 -7.1737 -2.7594
16 2 5 4.3803 -5.5819
16 2 6 -5.7053 3.5624
16 2 7 -0.0997 -0.9578
16 2 8 6.7736 -5.7707
16 2 9 -4.8848 1.0096
16 2 10 8.8402 1.0816
16 2 11 -4.1310 2.9614
16 2 12 3.0334 -7.9991
16 2 13 8.3915 4.4050
16 2 14 13.6458 2.5440
16 2 15 2.2079 12.3191
16 2 16 6.8108 2.2188
16 2 17 -2.5149 -3.3406
16 2 18 0.1807 2.9504
16 2 19 4.0164 -8.6547
16 2 20 -1.0145 -8.2325
16 2 21 4.9056 -0.5335
16 3 0 0.4002 4.8606
16 3 1 -5.4903 -0.8437
16 3 2 -1.7456 -5.6067
16 3 3 8.8659 1.1137
16 3 4 -4.4450 -5.2355
16 3 5 -4.3052 -2.2004
16 3 6 3.7585 4.5329
16 3 7 1.6067 -6.6274
16 3 8 2.6178 7.1206
16 3 9 -2.3258 -1.9167
16 3 10 -1.0452 -2.8385
16 3 11 -0.4945 1.4154
16 3 12 1.6951 0.3006
16 3 13 -2.3301 -0.3521
16 3 14 1.3589 -2.1395
16 3 15 3.3055 -6.7596
16 3 16 1.1845 -8.3395
16 3 17 7.3895 -5.2869
16 3 18 4.0870 -3.4431
16 3 19 -1.6657 -0.9535
16 3 20 -3.9922 -1.4181
16 4 0 3.3427 -2.3730
16 4 1 0.8398 5.8701
16 4 2 0.0479 -0.6412
16 4 3 -0.7065 3.3929
16 4 4 -10.0350 4.6166
16 4 5 -1.4618 -3.8940
16 4 6 -3.6011 -2.7363
16 4 7 -1.9994 1.9827
16 4 8 3.3717 -0.5641
16 4 9 -2.6320 -3.0856
16 4 10 2.8108 -4.1187
16 4 11 -1.7448 -0.7034
16 4 12 3.0222 2.9258
16 4 13 -2.2045 -2.1100
16 4 14 4.0438 -1.9349
16 4 15 1.0687 -0.0764
16 4 16 -0.9359 -0.3552
16 4 17 -3.3428 -0.1642
16 4 18 -7.5206 -3.1013
16 4 19 1.9506 1.7778
16 5 0 3.4901 2.7512
16 5 1 0.5083 8.0932
16 5 2 -2.5361 -1.7817
16 5 3 2.2401 0.3130
16 5 4 9.5506 2.9205
16 5 5 2.8246 1.6291
16 5 6 -1.5416 6.6558
16 5 7 -0.4453 4.4380
16 5 8 -1.3385 4.1369
16 5 9 1.7651 -2.9342
16 5 10 -2.0259 1.0326
16 5 11 1.4962 -4.8481
16 5 12 -3.7807 0.6381
16 5 13 -0.9573 -1.5900
16 5 14 0.1542 -0.1215
16 5 15 -3.4978 -0.5074
16 5 16 0.7783 -4.5457
16 5 17 -2.9292 2.7081
16 5 18 3.5757 -3.8718
16 6 0 4.2623 -0.0527
16 6 1 6.9586 -0.3383
16 6 2 10.7950 4.9971
16 6 3 7.1069 -0.0063
16 6 4 10.0821 -2.9328
16 6 5 -1.4041 2.8451
16 6 6 0.5401 -8.0863
16 6 7 2.1478 -1.2647
16 6 8 3.5613 -1.3011
16 6 9 1.7480 6.1536
16 6 10 3.2647 -2.3376
16 6 11 -1.4489 -2.3465
16 6 12 -3.5402 0.0889
16 6 13 -3.1458 -2.2933
16 6 14 -0.0928 3.2057
16 6 15 -3.2012 -0.1256
16 6 16 0.5192 3.4865
16 7 0 -2.3857 5.2324
16 7 1 0.2160 -7.1421
16 7 2 5.0671 4.4329
16 7 3 -3.2676 -12.2377
16 7 4 7.4023 -9.1442
16 7 5 0.6419 -10.9596
16 7 6 3.0478 -3.5946
16 7 7 -4.7637 -9.3936
16 7 8 -0.3455 5.7180
16 7 9 1.0863 -0.1658
16 7 10 0.0617 -1.4329
16 7 11 6.0051 -1.5137
16 7 12 -2.8089 0.8582
16 7 13 -0.9801 0.8639
16 8 0 -8.3511 -0.5701
16 8 1 -0.9588 -2.3238
16 8 2 -1.7211 3.5712
16 8 3 -2.8073 -3.2485
16 8 4 -8.0789 -2.5995
16 8 5 0.4916 -4.2780
16 8 6 -10.5886 -2.5822
16 8 7 -7.3052 -0.6831
16 8 8 -3.3418 -3.9521
17 0 1 -2.7672 4.8247
17 0 2 5.3774 1.9789
17 0 3 1.7490 6.2361
17 0 4 3.7374 -7.9441
17 0 5 9.2249 -2.4939
17 0 6 -12.3357 -12.1348
17 0 7 3.8146 0.9889
17 0 8 4.1964 -0.1473
17 0 9 -6.8629 5.9675
17 0 10 -1.1575 12.3149
17 0 11 -4.7075 -2.5708
17 0 12 -2.0926 4.3561
17 0 13 -2.2389 6.1852
17 0 14 -11.1423 -1.3931
17 0 15 -3.2522 2.3799
17 1 0 -0.1509 4.2138
17 1 1 -5.9335 -5.1781
17 1 2 2.6142 5.8000
17 1 3 -1.4243 14.1844
17 1 4 6.1573 -11.4616
17 1 5 -1.9409 -3.3241
17 1 6 -1.9216 -1.3982
17 1 7 -3.0156 -2.3330
17 1 8 -19.0243 1.5278
17 1 9 6.0960 -4.3096
17 1 10 -0.9948 -1.0418
17 1 11 7.0111 4.2946
17 1 12 13.8810 -2.6927
17 1 13 4.3387 2.5511
17 1 14 3.4563 5.5114
17 1 15 4.5909 3.2114
17 2 0 0.1992 -2.3194
17 2 1 -4.6637 -3.0476
17 2 2 6.6728 0.3780
17 2 3 -0.4178 1.1802
17 2 4 5.6080 -1.7762
17 2 5 9.8450 6.2737
17 2 6 -0.1513 -9.2065
17 2 7 -4.3736 10.8275
17 2 8 -4.0959 -1.1626
17 2 9 -0.3375 4.9187
17 2 10 2.5161 10.9448
17 2 11 -6.1688 1.8576
17 2 12 -3.6579 -2.4737
17 2 13 0.1176 -6.4039
17 2 14 1.9647 -7.6281
17 2 15 -3.0472 -2.5718
17 3 0 2.8367 12.2822
17 3 1 -4.0903 2.0401
17 3 2 1.3647 -2.1768
17 3 3 -7.5935 5.4412
17 3 4 2.5677 4.8978
17 3 5 -5.3612 -3.0413
17 3 6 2.1316 -9.9458
17 3 7 2.8924 -5.2109
17 3 8 -0.8510 0.0665
17 3 9 4.6187 1.5688
17 3 10 2.9584 2.1808
17 3 11 6.3069 1.0886
17 3 12 3.3566 1.9345
17 3 13 3.3265 2.6214
17 4 0 4.7647 2.4491
17 4 1 2.6414 -1.8201
17 4 2 3.1161 0.0522
17 4 3 6.8573 1.1643
17 4 4 4.4530 3.0238
17 4 5 1.6586 3.7998
17 4 6 7.4707 -1.9715
17 4 7 -0.8838 3.0187
17 4 8 -5.1693 -1.6141
17 4 9 -6.6257 -0.4085
17 4 10 1.0111 -2.4703
17 4 11 2.5205 -0.9614
17 4 12 4.3174 -3.8101
17 5 0 0.8029 -6.5309
17 5 1 0.2214 3.7479
17 5 2 -2.3611 -1.2344
17 5 3 -1.3304 -6.6087
17 5 4 3.9881 0.8792
17 5 5 -1.8854 -4.2978
17 5 6 3.2238 -2.1254
17 5 7 3.7089 -6.9797
17 5 8 -4.2503 -3.1363
17 5 9 -0.2342 -1.2712
17 6 0 -1.0661 -3.6973
17 6 1 -3.7529 -1.5681
17 6 2 -7.2083 2.4066
17 6 3 1.0763 -4.1361
17 6 4 1.2862 0.3608
18 0 0 8.7710 8.8032
18 0 1 3.5229 8.2944
0 0 0 0.0 0.0
;
_shelx_fab_checksum              5473
_olex2_submission_special_instructions 'No special instructions were received'
loop_
_space_group_symop_operation_xyz
'x, y, z'
'-x+1/2, -y, z+1/2'
'x+1/2, -y+1/2, -z'
'-x, y+1/2, -z+1/2'
loop_
_atom_site_label
_atom_site_type_symbol
_atom_site_fract_x
_atom_site_fract_y
_atom_site_fract_z
_atom_site_U_iso_or_equiv
_atom_site_adp_type
_atom_site_occupancy
_atom_site_site_symmetry_order
_atom_site_calc_flag
_atom_site_refinement_flags_posn
_atom_site_refinement_flags_adp
_atom_site_refinement_flags_occupancy
_atom_site_disorder_assembly
_atom_site_disorder_group
W7 W -0.54211(4) -0.20470(4) -0.70320(2) 0.00981(11) Uani 1 1 d . . . . .
W5 W -0.14277(4) -0.34516(4) -0.64482(2) 0.01048(11) Uani 1 1 d . . . . .
W8 W -0.66467(4) -0.32378(4) -0.62480(2) 0.01051(11) Uani 1 1 d . . . . .
W9 W -0.52650(4) -0.44696(4) -0.56284(2) 0.01168(11) Uani 1 1 d . . . . .
W3 W -0.39340(4) -0.08298(4) -0.64230(2) 0.01094(11) Uani 1 1 d . . . . .
W6 W -0.29100(4) -0.21524(4) -0.71311(2) 0.01043(11) Uani 1 1 d . . . . .
W2 W -0.24490(4) -0.21682(4) -0.57377(2) 0.01114(11) Uani 1 1 d . . . . .
W10 W -0.25493(4) -0.45972(4) -0.57347(2) 0.01138(11) Uani 1 1 d . . . . .
W4 W -0.51683(4) -0.20528(4) -0.56356(2) 0.01147(11) Uani 1 1 d . . . . .
Ni16 Ni -0.65863(13) -0.42284(12) -0.71351(5) 0.0103(3) Uani 1 1 d . . . . .
Ni12 Ni -0.30793(12) -0.53742(13) -0.66426(5) 0.0105(3) Uani 1 1 d . . . . .
Ni13 Ni -0.42935(13) -0.42548(12) -0.72343(5) 0.0096(3) Uani 1 1 d . . . . .
Ni15 Ni -0.53926(12) -0.52619(12) -0.65775(5) 0.0106(3) Uani 1 1 d . . . . .
Ni11 Ni -0.20007(13) -0.45332(13) -0.72852(5) 0.0117(3) Uani 1 1 d . . . . .
Ni14 Ni -0.41806(14) -0.64556(13) -0.60296(5) 0.0148(4) Uani 1 1 d . . . . .
Ni0A Ni -0.38713(14) -0.23715(15) -0.45976(6) 0.0194(4) Uani 1 1 d . . . . .
P1 P -0.4054(2) -0.3370(2) -0.63864(9) 0.0074(6) Uani 1 1 d . . . . .
O44 O -0.6306(7) -0.4155(7) -0.6568(3) 0.014(2) Uani 1 1 d . . . . .
O39 O -0.3071(6) -0.3385(6) -0.6170(2) 0.0070(17) Uani 1 1 d . . . . .
O35 O -0.5637(8) -0.5164(8) -0.5265(3) 0.018(2) Uani 1 1 d . . . . .
O45 O -0.2152(8) -0.1728(7) -0.7469(3) 0.017(2) Uani 1 1 d . . . . .
O29 O -0.3872(7) 0.0374(7) -0.6340(3) 0.015(2) Uani 1 1 d . U . . .
O21 O -0.1372(7) -0.2482(7) -0.6052(3) 0.016(2) Uani 1 1 d . U . . .
O41 O -0.6209(7) -0.2309(7) -0.6612(3) 0.0107(19) Uani 1 1 d . U . . .
O51 O -0.3112(6) -0.3372(7) -0.7275(2) 0.0097(18) Uani 1 1 d . U . . .
O60 O -0.3018(7) -0.5419(7) -0.6075(3) 0.014(2) Uani 1 1 d . . . . .
O34 O -0.2053(7) -0.5296(8) -0.5401(3) 0.018(2) Uani 1 1 d . . . . .
O36 O -0.3894(7) -0.4434(6) -0.5546(3) 0.0118(19) Uani 1 1 d . . . . .
O25 O -0.1885(8) -0.1427(8) -0.5428(3) 0.020(2) Uani 1 1 d . . . . .
O28 O -0.4822(7) -0.1248(7) -0.6040(3) 0.015(2) Uani 1 1 d . . . . .
O26 O -0.5523(8) -0.1244(8) -0.5301(3) 0.018(2) Uani 1 1 d . . . . .
O18 O -0.1954(7) -0.2492(7) -0.6768(3) 0.015(2) Uani 1 1 d . . . . .
O47 O -0.6306(7) -0.1575(7) -0.7318(3) 0.0119(19) Uani 1 1 d . . . . .
O50 O -0.2027(7) -0.4346(7) -0.6714(3) 0.014(2) Uani 1 1 d . . . . .
O59 O -0.4377(8) -0.4334(8) -0.7802(3) 0.021(2) Uani 1 1 d . . . . .
H59A H -0.457028 -0.387271 -0.802401 0.031 Uiso 1 1 d DGR . . . .
H59B H -0.459774 -0.492893 -0.788997 0.031 Uiso 1 1 d GR . . . .
O40 O -0.4083(7) -0.2501(7) -0.6639(3) 0.0083(18) Uani 1 1 d . U . . .
O58 O -0.5389(6) -0.3277(7) -0.7185(3) 0.0105(18) Uani 1 1 d . . . . .
O42 O -0.4901(6) -0.3301(7) -0.6097(2) 0.0092(18) Uani 1 1 d . U . . .
O48 O -0.4168(7) -0.4277(7) -0.6619(3) 0.0103(19) Uani 1 1 d . U . . .
O24 O -0.3776(6) -0.2153(7) -0.5558(3) 0.0112(19) Uani 1 1 d . . . . .
O49 O -0.4293(7) -0.6207(7) -0.6573(3) 0.013(2) Uani 1 1 d . . . . .
O31 O -0.3075(7) -0.1008(7) -0.6825(3) 0.0114(19) Uani 1 1 d . U . . .
O46 O -0.4209(7) -0.1819(7) -0.7310(3) 0.0126(19) Uani 1 1 d . . . . .
O20 O -0.0205(7) -0.3481(7) -0.6580(3) 0.015(2) Uani 1 1 d . . . . .
O30 O -0.6392(7) -0.2240(7) -0.5878(2) 0.0104(19) Uani 1 1 d . . . . .
O19 O -0.3260(7) -0.5230(7) -0.7187(3) 0.0109(19) Uani 1 1 d . . . . .
O23 O -0.2304(7) -0.3349(7) -0.5502(2) 0.013(2) Uani 1 1 d . . . . .
O32 O -0.5009(7) -0.0882(7) -0.6757(3) 0.014(2) Uani 1 1 d . U . . .
O52 O -0.5429(7) -0.5111(7) -0.7139(3) 0.014(2) Uani 1 1 d . . . . .
O54 O -0.1952(6) -0.6330(7) -0.6676(3) 0.0114(19) Uani 1 1 d . . . . .
O43 O -0.5139(7) -0.5293(7) -0.6011(3) 0.013(2) Uani 1 1 d . . . . .
O56 O -0.7535(8) -0.5242(7) -0.6979(3) 0.019(2) Uani 1 1 d . . . . .
O57 O -0.7912(7) -0.3149(7) -0.6288(3) 0.014(2) Uani 1 1 d . U . . .
O55 O -0.6650(7) -0.6102(7) -0.6569(3) 0.015(2) Uani 1 1 d . U . . .
O38 O -0.6528(7) -0.4066(7) -0.5836(3) 0.0117(19) Uani 1 1 d . . . . .
O37 O -0.1414(7) -0.4296(8) -0.6027(3) 0.016(2) Uani 1 1 d . . . . .
N64 N -0.7767(8) -0.3269(9) -0.7130(3) 0.013(2) Uani 1 1 d . . . . .
H64C H -0.816163 -0.335809 -0.692878 0.016 Uiso 0.40(2) 1 calc R . P A 2
H64D H -0.754144 -0.266818 -0.712921 0.016 Uiso 0.40(2) 1 calc R . P A 2
H64A H -0.828586 -0.350796 -0.699992 0.016 Uiso 0.60(2) 1 calc R . P A 1
H64B H -0.757504 -0.272433 -0.702042 0.016 Uiso 0.60(2) 1 calc R . P A 1
O17 O -0.1080(8) -0.5683(7) -0.7150(3) 0.019(2) Uani 1 1 d . . . . .
N65 N -0.6864(8) -0.4282(8) -0.7694(3) 0.010(2) Uani 1 1 d . U . . .
H65C H -0.628607 -0.421452 -0.782144 0.012 Uiso 0.40(2) 1 calc R . P A 2
H65D H -0.712632 -0.484968 -0.775359 0.012 Uiso 0.40(2) 1 calc R . P A 2
H65A H -0.643375 -0.390342 -0.781782 0.012 Uiso 0.60(2) 1 calc R . P A 1
H65B H -0.678319 -0.487786 -0.777892 0.012 Uiso 0.60(2) 1 calc R . P A 1
N67 N -0.0774(10) -0.3692(10) -0.7389(4) 0.023(3) Uani 1 1 d . U . . .
H67A H -0.083281 -0.313571 -0.726793 0.028 Uiso 1 1 calc R . . . .
H67B H -0.021114 -0.398072 -0.731006 0.028 Uiso 1 1 calc R . . . .
N63 N -0.3953(11) -0.6733(11) -0.5478(4) 0.027(3) Uani 1 1 d . . . . .
H63A H -0.360266 -0.625520 -0.537477 0.032 Uiso 0.60(2) 1 calc R . P A 1
H63B H -0.454781 -0.676669 -0.536041 0.032 Uiso 0.60(2) 1 calc R . P A 1
H63C H -0.384371 -0.619071 -0.535201 0.032 Uiso 0.40(2) 1 calc R . P A 2
H63D H -0.449471 -0.701858 -0.537951 0.032 Uiso 0.40(2) 1 calc R . P A 2
O27 O -0.2934(8) -0.1327(8) -0.6106(3) 0.018(2) Uani 1 1 d . . . . .
N66 N -0.2002(10) -0.4695(11) -0.7846(4) 0.026(3) Uani 1 1 d . U . . .
H66A H -0.203476 -0.531574 -0.790173 0.032 Uiso 1 1 calc R . . . .
H66B H -0.255029 -0.441381 -0.794210 0.032 Uiso 1 1 calc R . . . .
O33 O -0.5323(8) -0.3202(8) -0.5394(3) 0.018(2) Uani 1 1 d . . . . .
C88 C -0.7466(11) -0.5822(12) -0.6720(4) 0.020(3) Uani 1 1 d . U . . .
O61 O 0.0550(9) -0.7439(11) -0.5774(4) 0.039(3) Uani 1 1 d . . . . .
H61 H 0.047760 -0.704188 -0.560458 0.059 Uiso 1 1 calc GR . . . .
N69 N -0.2884(11) -0.3303(10) -0.4696(4) 0.027(3) Uani 1 1 d . U . . .
H69A H -0.268713 -0.325970 -0.493621 0.032 Uiso 1 1 calc R . . . .
H69B H -0.234643 -0.319681 -0.454962 0.032 Uiso 1 1 calc R . . . .
N62 N -0.3240(11) -0.7564(10) -0.6094(4) 0.023(3) Uani 1 1 d . . . . .
H62A H -0.359571 -0.808947 -0.614561 0.028 Uiso 0.60(2) 1 calc R . P A 1
H62B H -0.282640 -0.745276 -0.628770 0.028 Uiso 0.60(2) 1 calc R . P A 1
H62C H -0.347695 -0.795686 -0.627145 0.028 Uiso 0.40(2) 1 calc R . P A 2
H62D H -0.263431 -0.735585 -0.616686 0.028 Uiso 0.40(2) 1 calc R . P A 2
N71 N -0.3030(10) -0.1336(10) -0.4724(4) 0.024(3) Uani 1 1 d . U . . .
H71A H -0.256181 -0.125307 -0.454633 0.029 Uiso 1 1 calc R . . . .
H71B H -0.271853 -0.145008 -0.494329 0.029 Uiso 1 1 calc R . . . .
C78 C -0.0258(11) -0.6767(11) -0.6299(4) 0.021(2) Uani 1 1 d . U . . .
H78 H -0.088376 -0.692063 -0.619549 0.026 Uiso 1 1 calc R . . . .
O53 O -0.5464(10) -0.7243(9) -0.6044(4) 0.039(3) Uani 1 1 d . . . . .
H53A H -0.591371 -0.710365 -0.584962 0.058 Uiso 1 1 d GR . . . .
H53B H -0.535458 -0.788903 -0.599896 0.058 Uiso 1 1 d GR . . . .
C72 C -0.1149(11) -0.6083(11) -0.6838(4) 0.016(2) Uani 1 1 d . U . . .
C75 C 0.1588(11) -0.6210(11) -0.6576(4) 0.019(2) Uani 1 1 d . U . . .
C73 C -0.0202(11) -0.6332(11) -0.6633(4) 0.016(2) Uani 1 1 d . U . . .
C77 C 0.0629(12) -0.6992(12) -0.6105(4) 0.022(2) Uani 1 1 d . U . . .
C74 C 0.0718(11) -0.6023(11) -0.6774(4) 0.017(2) Uani 1 1 d . U . . .
H74 H 0.074639 -0.569149 -0.700196 0.020 Uiso 1 1 calc R . . . .
C76 C 0.1528(11) -0.6709(12) -0.6241(4) 0.020(2) Uani 1 1 d . U . . .
H76 H 0.211585 -0.685228 -0.610860 0.024 Uiso 1 1 calc R . . . .
N70 N -0.4891(11) -0.1462(11) -0.4514(5) 0.034(3) Uani 1 1 d . U . . .
H70A H -0.531845 -0.145899 -0.470846 0.040 Uiso 1 1 calc R . . . .
H70B H -0.523670 -0.161448 -0.430601 0.040 Uiso 1 1 calc R . . . .
C93 C -0.4455(14) -0.0545(14) -0.4471(5) 0.034(3) Uani 1 1 d . U . . .
H93A H -0.419091 -0.046127 -0.421715 0.041 Uiso 1 1 calc R . . . .
H93B H -0.494723 -0.004808 -0.452097 0.041 Uiso 1 1 calc R . . . .
C89 C -0.3261(15) -0.4231(14) -0.4626(5) 0.032(3) Uani 1 1 d . U . . .
H89A H -0.273589 -0.461759 -0.451046 0.039 Uiso 1 1 calc R . . . .
H89B H -0.344957 -0.452844 -0.486306 0.039 Uiso 1 1 calc R . . . .
C94 C -0.3064(18) 0.0406(18) -0.4696(7) 0.052(5) Uani 1 1 d . U . . .
H94A H -0.347157 0.083302 -0.454825 0.079 Uiso 1 1 calc GR . . . .
H94B H -0.292292 0.069261 -0.493708 0.079 Uiso 1 1 calc GR . . . .
H94C H -0.244093 0.028231 -0.456618 0.079 Uiso 1 1 calc GR . . . .
C92 C -0.3626(15) -0.0523(15) -0.4755(6) 0.038(3) Uani 1 1 d . U . . .
H92 H -0.392874 -0.051268 -0.500731 0.046 Uiso 1 1 calc R . . . .
C90 C -0.4145(17) -0.4199(16) -0.4374(6) 0.043(3) Uani 1 1 d . U . . .
H90 H -0.387858 -0.407963 -0.411983 0.052 Uiso 1 1 calc R . . . .
C91 C -0.4747(17) -0.5122(15) -0.4346(7) 0.050(5) Uani 1 1 d . U . . .
H91A H -0.499028 -0.529676 -0.459263 0.075 Uiso 1 1 calc GR . . . .
H91B H -0.531008 -0.503153 -0.417900 0.075 Uiso 1 1 calc GR . . . .
H91C H -0.432131 -0.562193 -0.425023 0.075 Uiso 1 1 calc GR . . . .
N68 N -0.4713(11) -0.3399(11) -0.4466(4) 0.031(3) Uani 1 1 d . U . . .
H68A H -0.509726 -0.323432 -0.426959 0.038 Uiso 1 1 calc R . . . .
H68B H -0.512011 -0.353670 -0.465951 0.038 Uiso 1 1 calc R . . . .
C82A C -0.833(3) -0.349(3) -0.7490(11) 0.019(4) Uani 0.40(2) 1 d . U P A 2
H82A H -0.881024 -0.298468 -0.754505 0.023 Uiso 0.40(2) 1 calc R . P A 2
H82B H -0.868834 -0.408726 -0.746698 0.023 Uiso 0.40(2) 1 calc R . P A 2
C83A C -0.754(3) -0.355(3) -0.7800(11) 0.018(4) Uani 0.40(2) 1 d . U P A 2
H83A H -0.718439 -0.294042 -0.782489 0.022 Uiso 0.40(2) 1 calc R . P A 2
C83B C -0.7922(19) -0.3959(19) -0.7761(7) 0.018(4) Uani 0.60(2) 1 d . U P A 1
H83B H -0.838388 -0.445970 -0.767293 0.022 Uiso 0.60(2) 1 calc R . P A 1
C84 C -0.8123(12) -0.3775(12) -0.8166(5) 0.023(3) Uani 1 1 d . U . . .
H84D H -0.766900 -0.404916 -0.834753 0.034 Uiso 0.40(2) 1 calc GR . P A 2
H84E H -0.840630 -0.319652 -0.826597 0.034 Uiso 0.40(2) 1 calc GR . P A 2
H84F H -0.865576 -0.422050 -0.811187 0.034 Uiso 0.40(2) 1 calc GR . P A 2
H84A H -0.766547 -0.329465 -0.825663 0.034 Uiso 0.60(2) 1 calc GR . P A 1
H84B H -0.880582 -0.355696 -0.819621 0.034 Uiso 0.60(2) 1 calc GR . P A 1
H84C H -0.802753 -0.435419 -0.830690 0.034 Uiso 0.60(2) 1 calc GR . P A 1
C85A C -0.344(2) -0.757(2) -0.5426(8) 0.026(4) Uani 0.60(2) 1 d . U P A 1
H85A H -0.391388 -0.809978 -0.542193 0.032 Uiso 0.60(2) 1 calc R . P A 1
H85B H -0.309029 -0.755517 -0.518534 0.032 Uiso 0.60(2) 1 calc R . P A 1
C86A C -0.266(2) -0.772(2) -0.5756(8) 0.025(4) Uani 0.60(2) 1 d . U P A 1
H86A H -0.213352 -0.722050 -0.573920 0.030 Uiso 0.60(2) 1 calc R . P A 1
C82B C -0.8068(19) -0.309(2) -0.7520(7) 0.017(4) Uani 0.60(2) 1 d . U P A 1
H82C H -0.766908 -0.256793 -0.762156 0.021 Uiso 0.60(2) 1 calc R . P A 1
H82D H -0.877238 -0.290117 -0.752660 0.021 Uiso 0.60(2) 1 calc R . P A 1
C81 C -0.1154(15) -0.4069(14) -0.8421(5) 0.036(4) Uani 1 1 d . U . . .
H81A H -0.092358 -0.461078 -0.856383 0.054 Uiso 1 1 calc GR . . . .
H81B H -0.072773 -0.352939 -0.847332 0.054 Uiso 1 1 calc GR . . . .
H81C H -0.183680 -0.392042 -0.849194 0.054 Uiso 1 1 calc GR . . . .
C87 C -0.2168(14) -0.8680(13) -0.5725(5) 0.030(3) Uani 1 1 d . U . . .
H87A H -0.262280 -0.911410 -0.560187 0.045 Uiso 0.60(2) 1 calc GR . P A 1
H87B H -0.155689 -0.862795 -0.558084 0.045 Uiso 0.60(2) 1 calc GR . P A 1
H87C H -0.201344 -0.891519 -0.597369 0.045 Uiso 0.60(2) 1 calc GR . P A 1
H87D H -0.211873 -0.903425 -0.595710 0.045 Uiso 0.40(2) 1 calc GR . P A 2
H87E H -0.217661 -0.911511 -0.551561 0.045 Uiso 0.40(2) 1 calc GR . P A 2
H87F H -0.159814 -0.825942 -0.570292 0.045 Uiso 0.40(2) 1 calc GR . P A 2
C86B C -0.315(3) -0.809(3) -0.5726(12) 0.026(4) Uani 0.40(2) 1 d . U P A 2
H86B H -0.373972 -0.849331 -0.568062 0.031 Uiso 0.40(2) 1 calc R . P A 2
C85B C -0.306(4) -0.737(3) -0.5448(13) 0.027(4) Uani 0.40(2) 1 d . U P A 2
H85C H -0.244634 -0.700292 -0.548696 0.033 Uiso 0.40(2) 1 calc R . P A 2
H85D H -0.303318 -0.765355 -0.519815 0.033 Uiso 0.40(2) 1 calc R . P A 2
O1W O -0.4496(12) -0.2583(12) -0.8025(4) 0.049(4) Uani 1 1 d . . . . .
H1WA H -0.410676 -0.238931 -0.820144 0.073 Uiso 1 1 d DG . . . .
H1WB H -0.506852 -0.233912 -0.807791 0.073 Uiso 1 1 d DG . . . .
C79 C -0.0739(16) -0.3541(14) -0.7790(5) 0.040(3) Uani 1 1 d D U . . .
H79A H -0.111830 -0.296607 -0.784724 0.048 Uiso 1 1 calc R . . . .
H79B H -0.004173 -0.342347 -0.786095 0.048 Uiso 1 1 calc R . . . .
C80 C -0.1115(16) -0.4290(15) -0.8019(6) 0.043(3) Uani 1 1 d D U . . .
H80 H -0.060446 -0.479478 -0.799937 0.051 Uiso 1 1 calc R . . . .
loop_
_atom_site_aniso_label
_atom_site_aniso_U_11
_atom_site_aniso_U_22
_atom_site_aniso_U_33
_atom_site_aniso_U_23
_atom_site_aniso_U_13
_atom_site_aniso_U_12
W7 0.0118(2) 0.0074(2) 0.0102(2) 0.0008(2) -0.00143(19) 0.00008(18)
W5 0.0094(2) 0.0111(3) 0.0109(2) -0.0009(2) 0.00011(19) -0.00079(19)
W8 0.0098(2) 0.0101(3) 0.0116(2) -0.0008(2) 0.00121(19) 0.00025(19)
W9 0.0127(3) 0.0116(3) 0.0108(2) 0.0020(2) 0.0026(2) 0.00011(19)
W3 0.0130(3) 0.0073(2) 0.0125(3) -0.0004(2) -0.0008(2) -0.00092(18)
W6 0.0122(2) 0.0083(2) 0.0108(2) 0.0008(2) 0.00143(19) -0.00163(19)
W2 0.0113(2) 0.0122(3) 0.0099(2) -0.0012(2) -0.00167(19) -0.0008(2)
W10 0.0122(2) 0.0120(3) 0.0100(2) 0.0013(2) -0.0003(2) 0.00098(19)
W4 0.0120(2) 0.0117(3) 0.0108(2) -0.0022(2) 0.00091(19) 0.00072(19)
Ni16 0.0107(8) 0.0087(8) 0.0116(8) -0.0007(7) -0.0005(6) 0.0001(6)
Ni12 0.0095(8) 0.0091(8) 0.0130(8) -0.0003(7) 0.0011(6) -0.0002(6)
Ni13 0.0103(8) 0.0088(8) 0.0097(8) -0.0011(7) -0.0002(6) -0.0007(6)
Ni15 0.0096(8) 0.0087(8) 0.0134(8) -0.0012(7) 0.0012(6) -0.0007(6)
Ni11 0.0109(8) 0.0131(9) 0.0112(8) -0.0017(7) 0.0011(6) -0.0012(7)
Ni14 0.0176(9) 0.0106(9) 0.0162(9) 0.0033(8) 0.0045(7) 0.0009(7)
Ni0A 0.0142(9) 0.0232(11) 0.0208(10) -0.0030(9) 0.0010(7) -0.0005(8)
P1 0.0086(14) 0.0063(15) 0.0072(15) 0.0001(13) 0.0018(11) 0.0005(11)
O44 0.015(5) 0.009(5) 0.017(5) -0.002(4) 0.001(4) -0.007(4)
O39 0.006(4) 0.004(4) 0.011(4) 0.000(4) 0.001(3) 0.001(3)
O35 0.017(5) 0.026(6) 0.010(5) 0.006(5) 0.004(4) -0.003(4)
O45 0.022(5) 0.013(5) 0.016(5) 0.007(5) -0.001(4) -0.007(4)
O29 0.020(4) 0.007(4) 0.017(4) -0.001(3) 0.000(3) 0.000(3)
O21 0.016(3) 0.017(3) 0.014(3) 0.000(2) 0.000(2) 0.000(2)
O41 0.013(3) 0.009(3) 0.010(3) -0.001(2) -0.001(2) -0.001(2)
O51 0.011(3) 0.010(3) 0.009(3) 0.001(2) 0.002(2) -0.001(2)
O60 0.019(5) 0.011(5) 0.011(4) 0.000(4) 0.001(4) -0.003(4)
O34 0.012(5) 0.023(6) 0.019(5) 0.006(5) 0.002(4) -0.001(4)
O36 0.009(4) 0.005(4) 0.021(5) -0.004(4) 0.001(4) -0.003(3)
O25 0.019(5) 0.019(6) 0.023(5) -0.003(5) -0.006(4) -0.003(4)
O28 0.013(5) 0.019(5) 0.011(5) 0.002(4) 0.001(4) 0.001(4)
O26 0.019(5) 0.027(6) 0.010(5) -0.001(5) -0.001(4) -0.001(4)
O18 0.012(5) 0.013(5) 0.019(5) -0.003(4) 0.001(4) 0.000(4)
O47 0.012(4) 0.011(5) 0.013(5) 0.001(4) -0.002(4) 0.001(4)
O50 0.012(5) 0.018(5) 0.011(5) 0.005(4) 0.005(4) 0.004(4)
O59 0.029(6) 0.014(5) 0.019(5) 0.000(5) -0.001(5) -0.005(4)
O40 0.009(3) 0.009(3) 0.007(3) -0.002(2) -0.003(2) -0.001(2)
O58 0.007(4) 0.006(4) 0.018(5) -0.003(4) -0.002(3) 0.002(3)
O42 0.010(3) 0.010(3) 0.008(3) -0.001(2) 0.001(2) -0.001(2)
O48 0.010(3) 0.010(3) 0.011(3) -0.002(2) 0.002(2) 0.000(2)
O24 0.007(4) 0.012(5) 0.014(5) -0.001(4) 0.003(3) -0.006(4)
O49 0.007(4) 0.006(4) 0.026(5) 0.001(4) -0.001(4) 0.002(3)
O31 0.012(3) 0.010(3) 0.012(3) 0.001(2) 0.001(2) -0.001(2)
O46 0.011(4) 0.015(5) 0.012(5) 0.001(4) -0.003(4) 0.001(4)
O20 0.007(4) 0.019(5) 0.020(5) 0.004(5) 0.001(4) 0.001(4)
O30 0.014(4) 0.010(5) 0.007(4) 0.002(4) 0.006(3) 0.001(4)
O19 0.012(4) 0.009(5) 0.011(4) -0.002(4) -0.003(4) -0.005(3)
O23 0.009(4) 0.022(5) 0.008(4) 0.001(4) -0.003(3) -0.002(4)
O32 0.015(3) 0.012(3) 0.016(3) -0.001(2) 0.001(2) -0.002(2)
O52 0.013(5) 0.020(5) 0.007(4) 0.004(4) 0.002(4) 0.000(4)
O54 0.003(4) 0.015(5) 0.016(5) 0.004(4) 0.000(3) 0.002(3)
O43 0.011(4) 0.013(5) 0.016(5) 0.001(4) 0.006(4) 0.005(4)
O56 0.016(5) 0.019(5) 0.022(5) 0.000(5) 0.002(4) -0.003(4)
O57 0.006(3) 0.016(4) 0.020(4) 0.000(3) 0.004(3) 0.000(3)
O55 0.015(3) 0.012(3) 0.017(3) 0.000(2) -0.002(2) 0.000(2)
O38 0.012(4) 0.011(5) 0.013(5) -0.002(4) -0.006(4) 0.002(4)
O37 0.015(5) 0.022(6) 0.011(5) -0.003(4) -0.006(4) -0.006(4)
N64 0.010(5) 0.023(6) 0.007(5) -0.002(5) -0.001(4) 0.004(5)
O17 0.020(5) 0.011(5) 0.025(6) 0.002(5) -0.002(4) 0.001(4)
N65 0.011(3) 0.009(3) 0.010(3) -0.001(2) -0.001(2) 0.002(2)
N67 0.023(5) 0.027(6) 0.020(5) -0.001(5) -0.001(5) -0.005(5)
N63 0.030(7) 0.034(8) 0.017(6) 0.011(7) 0.014(5) 0.012(6)
O27 0.014(5) 0.024(6) 0.016(5) -0.004(5) 0.003(4) -0.002(4)
N66 0.026(5) 0.030(6) 0.022(5) 0.002(5) 0.000(5) -0.008(5)
O33 0.021(5) 0.027(6) 0.006(4) -0.002(4) -0.001(4) 0.002(5)
C88 0.019(7) 0.027(8) 0.014(7) -0.006(7) -0.004(6) -0.005(6)
O61 0.027(7) 0.058(9) 0.032(7) 0.033(7) 0.000(6) 0.003(6)
N69 0.029(6) 0.023(6) 0.028(6) -0.001(5) 0.004(5) 0.003(5)
N62 0.036(8) 0.014(7) 0.020(7) -0.007(6) 0.002(6) 0.000(6)
N71 0.025(6) 0.028(6) 0.018(5) 0.001(5) -0.004(5) 0.002(5)
C78 0.018(5) 0.022(5) 0.024(5) 0.005(5) 0.002(4) -0.005(4)
O53 0.045(8) 0.020(6) 0.052(9) 0.004(6) 0.023(7) -0.001(6)
C72 0.016(3) 0.015(3) 0.016(3) -0.001(2) 0.001(2) 0.001(2)
C75 0.014(5) 0.022(5) 0.020(5) 0.001(5) 0.001(4) -0.001(4)
C73 0.014(4) 0.017(5) 0.019(5) 0.003(4) 0.004(4) 0.001(4)
C77 0.021(3) 0.022(3) 0.023(3) 0.003(2) 0.000(2) -0.001(2)
C74 0.014(4) 0.018(5) 0.019(5) 0.001(4) -0.001(4) -0.002(4)
C76 0.013(5) 0.025(5) 0.021(5) 0.006(5) -0.001(4) 0.000(4)
N70 0.028(6) 0.036(6) 0.037(6) -0.005(6) 0.000(5) 0.007(5)
C93 0.029(6) 0.036(7) 0.038(7) -0.007(6) -0.001(6) 0.005(6)
C89 0.041(7) 0.028(6) 0.027(6) -0.002(6) 0.008(6) -0.004(6)
C94 0.051(6) 0.051(6) 0.056(6) 0.001(5) -0.002(5) 0.001(5)
C92 0.035(7) 0.036(7) 0.044(7) -0.005(7) -0.001(6) 0.001(6)
C90 0.043(4) 0.042(4) 0.044(4) 0.001(3) 0.000(3) -0.001(3)
C91 0.049(10) 0.035(9) 0.066(11) -0.006(9) 0.000(9) -0.016(8)
N68 0.032(6) 0.034(6) 0.029(6) -0.001(5) 0.004(5) -0.005(5)
C82A 0.019(5) 0.019(5) 0.019(5) 0.000(3) 0.000(3) 0.001(3)
C83A 0.018(5) 0.018(5) 0.018(5) 0.001(3) 0.000(3) 0.000(3)
C83B 0.018(4) 0.019(4) 0.018(4) -0.001(3) 0.000(3) -0.001(3)
C84 0.020(5) 0.024(6) 0.024(5) -0.001(5) 0.002(5) 0.004(5)
C85A 0.026(5) 0.026(5) 0.026(5) -0.001(3) 0.000(3) 0.000(3)
C86A 0.025(4) 0.025(5) 0.024(4) -0.001(3) 0.000(3) 0.000(3)
C82B 0.018(4) 0.018(4) 0.017(4) 0.000(3) -0.001(3) 0.000(3)
C81 0.049(9) 0.033(9) 0.027(8) -0.001(8) 0.010(7) -0.028(8)
C87 0.034(6) 0.029(6) 0.028(6) -0.004(5) -0.001(5) 0.007(5)
C86B 0.026(5) 0.026(5) 0.025(5) 0.000(3) 0.000(3) 0.000(3)
C85B 0.028(5) 0.028(5) 0.027(5) 0.000(3) 0.000(3) 0.000(3)
O1W 0.048(9) 0.046(9) 0.052(10) 0.004(8) -0.009(7) 0.008(7)
C79 0.045(7) 0.044(7) 0.031(6) 0.000(6) 0.002(6) -0.020(6)
C80 0.044(4) 0.043(4) 0.041(4) 0.001(3) 0.000(3) -0.003(3)
loop_
_atom_type_symbol
_atom_type_description
_atom_type_scat_dispersion_real
_atom_type_scat_dispersion_imag
_atom_type_scat_source
C C 0.0033 0.0016 'International Tables Vol C Tables 4.2.6.8 and 6.1.1.4'
H H 0.0000 0.0000 'International Tables Vol C Tables 4.2.6.8 and 6.1.1.4'
N N 0.0061 0.0033 'International Tables Vol C Tables 4.2.6.8 and 6.1.1.4'
Ni Ni 0.3393 1.1124 'International Tables Vol C Tables 4.2.6.8 and 6.1.1.4'
O O 0.0106 0.0060 'International Tables Vol C Tables 4.2.6.8 and 6.1.1.4'
P P 0.1023 0.0942 'International Tables Vol C Tables 4.2.6.8 and 6.1.1.4'
W W -0.8490 6.8722 'International Tables Vol C Tables 4.2.6.8 and 6.1.1.4'
loop_
_geom_angle_atom_site_label_1
_geom_angle_atom_site_label_2
_geom_angle_atom_site_label_3
_geom_angle
_geom_angle_site_symmetry_3
O41 W7 O40 84.0(4) .
O41 W7 O46 156.9(4) .
O41 W7 O32 85.6(4) .
O47 W7 O41 99.7(4) .
O47 W7 O40 172.2(4) .
O47 W7 O58 102.1(4) .
O47 W7 O46 102.1(4) .
O47 W7 O32 99.5(4) .
O58 W7 O41 93.7(4) .
O58 W7 O40 84.4(4) .
O58 W7 O46 89.2(4) .
O58 W7 O32 158.2(4) .
O46 W7 O40 73.5(4) .
O46 W7 O32 83.3(4) .
O32 W7 O40 73.9(4) .
O21 W5 O39 73.2(4) .
O18 W5 O39 83.3(4) .
O18 W5 O21 87.2(4) .
O18 W5 O37 156.2(4) .
O50 W5 O39 80.6(4) .
O50 W5 O21 153.8(4) .
O50 W5 O18 91.1(4) .
O50 W5 O37 88.9(4) .
O20 W5 O39 171.7(4) .
O20 W5 O21 100.3(5) .
O20 W5 O18 101.9(4) .
O20 W5 O50 105.6(5) .
O20 W5 O37 101.1(5) .
O37 W5 O39 73.2(4) .
O37 W5 O21 82.5(4) .
O44 W8 O41 89.1(4) .
O44 W8 O42 82.5(4) .
O44 W8 O30 155.2(4) .
O44 W8 O38 91.6(4) .
O41 W8 O42 83.3(4) .
O41 W8 O30 85.1(4) .
O30 W8 O42 72.9(3) .
O57 W8 O44 104.6(5) .
O57 W8 O41 101.2(4) .
O57 W8 O42 171.6(4) .
O57 W8 O30 100.2(4) .
O57 W8 O38 101.2(4) .
O38 W8 O41 156.6(4) .
O38 W8 O42 73.7(4) .
O38 W8 O30 84.6(4) .
O35 W9 O36 100.5(5) .
O35 W9 O42 171.0(4) .
O35 W9 O43 103.5(5) .
O35 W9 O38 102.0(5) .
O35 W9 O33 100.9(5) .
O36 W9 O42 83.8(4) .
O36 W9 O38 156.4(4) .
O36 W9 O33 87.0(4) .
O43 W9 O36 92.6(4) .
O43 W9 O42 84.0(4) .
O43 W9 O38 88.9(4) .
O43 W9 O33 155.2(4) .
O38 W9 O42 72.9(4) .
O38 W9 O33 82.0(4) .
O33 W9 O42 71.3(4) .
O29 W3 O28 102.3(5) .
O29 W3 O40 171.6(4) .
O29 W3 O31 103.6(4) .
O29 W3 O32 100.6(5) .
O29 W3 O27 103.3(5) .
O28 W3 O40 83.1(4) .
O31 W3 O28 154.1(4) .
O31 W3 O40 71.4(4) .
O31 W3 O32 88.7(4) .
O31 W3 O27 88.6(4) .
O32 W3 O28 88.1(4) .
O32 W3 O40 72.8(4) .
O32 W3 O27 155.9(4) .
O27 W3 O28 84.0(4) .
O27 W3 O40 83.7(4) .
O45 W6 O51 102.9(5) .
O45 W6 O18 100.1(5) .
O45 W6 O40 170.8(4) .
O45 W6 O31 100.0(5) .
O45 W6 O46 102.7(4) .
O51 W6 O18 93.1(4) .
O51 W6 O40 85.2(4) .
O51 W6 O31 157.0(4) .
O51 W6 O46 90.3(4) .
O18 W6 O40 83.5(4) .
O18 W6 O31 84.4(4) .
O18 W6 O46 155.6(4) .
O31 W6 O40 71.8(3) .
O46 W6 O40 72.7(4) .
O46 W6 O31 83.2(4) .
O21 W2 O39 73.6(4) .
O21 W2 O24 157.9(4) .
O21 W2 O23 88.8(4) .
O21 W2 O27 89.7(4) .
O25 W2 O39 172.2(4) .
O25 W2 O21 101.2(5) .
O25 W2 O24 100.9(5) .
O25 W2 O23 102.1(5) .
O25 W2 O27 102.6(5) .
O24 W2 O39 84.5(3) .
O24 W2 O27 84.7(4) .
O23 W2 O39 72.3(4) .
O23 W2 O24 87.4(4) .
O23 W2 O27 155.1(4) .
O27 W2 O39 83.5(4) .
O60 W10 O39 85.5(4) .
O60 W10 O36 89.4(4) .
O60 W10 O23 156.9(4) .
O60 W10 O37 92.9(4) .
O34 W10 O39 170.0(4) .
O34 W10 O60 103.8(5) .
O34 W10 O36 100.9(4) .
O34 W10 O23 99.2(5) .
O34 W10 O37 102.0(5) .
O36 W10 O39 82.7(4) .
O36 W10 O23 84.3(4) .
O23 W10 O39 71.7(3) .
O37 W10 O39 73.5(4) .
O37 W10 O36 155.8(4) .
O37 W10 O23 84.2(4) .
O28 W4 O42 83.3(4) .
O26 W4 O28 101.4(5) .
O26 W4 O42 171.8(4) .
O26 W4 O24 102.7(5) .
O26 W4 O30 100.0(4) .
O26 W4 O33 103.2(5) .
O24 W4 O28 85.2(4) .
O24 W4 O42 84.3(4) .
O30 W4 O28 86.9(4) .
O30 W4 O42 73.3(3) .
O30 W4 O24 157.0(4) .
O33 W4 O28 155.3(4) .
O33 W4 O42 72.3(4) .
O33 W4 O24 88.6(4) .
O33 W4 O30 89.6(4) .
O44 Ni16 Ni15 42.4(3) .
O44 Ni16 O58 85.0(4) .
O44 Ni16 N64 95.5(4) .
O58 Ni16 Ni15 87.8(3) .
O52 Ni16 Ni15 43.2(3) .
O52 Ni16 O44 84.1(4) .
O52 Ni16 O58 78.9(4) .
O52 Ni16 O56 92.7(4) .
O52 Ni16 N64 178.2(5) .
O52 Ni16 N65 96.4(4) .
O56 Ni16 Ni15 78.4(3) .
O56 Ni16 O44 83.0(4) .
O56 Ni16 O58 166.0(4) .
O56 Ni16 N64 89.0(5) .
O56 Ni16 N65 97.6(5) .
N64 Ni16 Ni15 136.8(3) .
N64 Ni16 O58 99.3(4) .
N65 Ni16 Ni15 138.2(3) .
N65 Ni16 O44 179.3(4) .
N65 Ni16 O58 94.6(4) .
N65 Ni16 N64 84.0(4) .
O60 Ni12 Ni11 140.1(3) .
O60 Ni12 O50 96.8(4) .
O60 Ni12 O48 90.6(4) .
O50 Ni12 Ni11 44.0(3) .
O50 Ni12 O48 87.6(4) .
O48 Ni12 Ni11 94.1(3) .
O49 Ni12 Ni11 136.1(3) .
O49 Ni12 O60 83.8(4) .
O49 Ni12 O50 170.1(4) .
O49 Ni12 O48 82.6(4) .
O49 Ni12 O54 102.5(4) .
O19 Ni12 Ni11 41.6(3) .
O19 Ni12 O60 173.7(4) .
O19 Ni12 O50 83.6(4) .
O19 Ni12 O48 83.1(4) .
O19 Ni12 O49 94.7(4) .
O19 Ni12 O54 95.9(4) .
O54 Ni12 Ni11 81.9(3) .
O54 Ni12 O60 90.4(4) .
O54 Ni12 O50 87.4(4) .
O54 Ni12 O48 174.9(4) .
O51 Ni13 O59 90.3(4) .
O51 Ni13 O58 98.7(4) .
O51 Ni13 O48 91.2(4) .
O59 Ni13 O48 175.9(4) .
O58 Ni13 O59 94.9(4) .
O58 Ni13 O48 88.7(4) .
O19 Ni13 O51 83.6(4) .
O19 Ni13 O59 94.9(4) .
O19 Ni13 O58 170.0(4) .
O19 Ni13 O48 81.4(4) .
O19 Ni13 O52 95.6(4) .
O52 Ni13 O51 174.2(4) .
O52 Ni13 O59 95.5(4) .
O52 Ni13 O58 81.2(4) .
O52 Ni13 O48 83.0(4) .
O44 Ni15 Ni16 44.5(3) .
O44 Ni15 O48 87.7(4) .
O44 Ni15 O49 170.1(4) .
O44 Ni15 O52 85.4(4) .
O44 Ni15 O43 95.8(4) .
O44 Ni15 O55 87.3(4) .
O48 Ni15 Ni16 92.6(3) .
O49 Ni15 Ni16 137.8(3) .
O49 Ni15 O48 82.7(4) .
O49 Ni15 O52 95.5(4) .
O49 Ni15 O43 81.7(4) .
O49 Ni15 O55 102.5(4) .
O52 Ni15 Ni16 42.3(3) .
O52 Ni15 O48 83.2(4) .
O52 Ni15 O43 170.6(4) .
O52 Ni15 O55 93.2(4) .
O43 Ni15 Ni16 140.2(3) .
O43 Ni15 O48 87.5(4) .
O43 Ni15 O55 96.2(4) .
O55 Ni15 Ni16 81.6(3) .
O55 Ni15 O48 174.0(4) .
O51 Ni11 Ni12 87.6(2) .
O50 Ni11 Ni12 43.5(3) .
O50 Ni11 O51 82.9(4) .
O50 Ni11 O17 83.2(4) .
O19 Ni11 Ni12 41.4(3) .
O19 Ni11 O51 78.2(4) .
O19 Ni11 O50 82.8(4) .
O19 Ni11 O17 94.2(4) .
O19 Ni11 N67 174.5(5) .
O19 Ni11 N66 96.8(5) .
O17 Ni11 Ni12 78.2(3) .
O17 Ni11 O51 164.9(4) .
N67 Ni11 Ni12 139.4(4) .
N67 Ni11 O51 96.3(5) .
N67 Ni11 O50 96.8(5) .
N67 Ni11 O17 91.2(5) .
N66 Ni11 Ni12 136.4(4) .
N66 Ni11 O51 95.7(5) .
N66 Ni11 O50 178.6(5) .
N66 Ni11 O17 98.1(5) .
N66 Ni11 N67 83.5(5) .
O49 Ni14 O60 81.9(4) .
O49 Ni14 O43 81.1(4) .
O49 Ni14 N63 175.6(5) .
O49 Ni14 N62 94.2(5) .
O49 Ni14 O53 90.4(5) .
O43 Ni14 O60 84.8(4) .
N63 Ni14 O60 95.6(5) .
N63 Ni14 O43 102.3(5) .
N63 Ni14 O53 92.6(6) .
N62 Ni14 O60 94.0(5) .
N62 Ni14 O43 175.2(5) .
N62 Ni14 N63 82.4(6) .
N62 Ni14 O53 95.6(6) .
O53 Ni14 O60 168.1(5) .
O53 Ni14 O43 85.1(5) .
N69 Ni0A N71 94.5(6) .
N69 Ni0A N70 177.8(7) .
N70 Ni0A N71 86.6(7) .
N68 Ni0A N69 85.9(7) .
N68 Ni0A N71 179.4(7) .
N68 Ni0A N70 93.0(7) .
O39 P1 O42 107.2(5) .
O39 P1 O48 110.4(5) .
O40 P1 O39 109.4(5) .
O40 P1 O42 109.2(5) .
O40 P1 O48 110.4(5) .
O48 P1 O42 110.2(5) .
W8 O44 Ni16 128.2(5) .
W8 O44 Ni15 137.7(6) .
Ni15 O44 Ni16 93.1(4) .
W5 O39 W2 88.8(3) .
W5 O39 W10 88.6(3) .
W10 O39 W2 89.6(3) .
P1 O39 W5 125.3(5) .
P1 O39 W2 126.9(5) .
P1 O39 W10 125.8(5) .
W2 O21 W5 124.4(5) .
W7 O41 W8 147.4(5) .
W6 O51 Ni13 132.9(5) .
W6 O51 Ni11 127.4(5) .
Ni13 O51 Ni11 93.9(4) .
W10 O60 Ni12 132.1(5) .
W10 O60 Ni14 130.1(5) .
Ni12 O60 Ni14 93.9(4) .
W9 O36 W10 149.2(6) .
W4 O28 W3 152.3(6) .
W6 O18 W5 147.6(6) .
W5 O50 Ni12 138.9(5) .
W5 O50 Ni11 127.9(5) .
Ni12 O50 Ni11 92.5(4) .
W7 O40 W3 89.3(3) .
W7 O40 W6 90.2(3) .
W6 O40 W3 88.9(3) .
P1 O40 W7 126.1(5) .
P1 O40 W3 125.3(5) .
P1 O40 W6 125.5(5) .
W7 O58 Ni16 124.6(5) .
W7 O58 Ni13 134.0(5) .
Ni13 O58 Ni16 97.0(4) .
W8 O42 W9 89.2(3) .
W8 O42 W4 89.0(3) .
W9 O42 W4 89.8(3) .
P1 O42 W8 124.6(5) .
P1 O42 W9 125.1(5) .
P1 O42 W4 127.5(5) .
Ni12 O48 Ni13 91.3(4) .
Ni12 O48 Ni15 93.0(4) .
Ni15 O48 Ni13 91.1(4) .
P1 O48 Ni12 124.2(6) .
P1 O48 Ni13 122.4(5) .
P1 O48 Ni15 125.2(5) .
W4 O24 W2 151.3(6) .
Ni15 O49 Ni12 101.6(4) .
Ni14 O49 Ni12 99.4(4) .
Ni14 O49 Ni15 100.5(4) .
W3 O31 W6 127.7(5) .
W6 O46 W7 123.4(5) .
W4 O30 W8 124.4(5) .
Ni12 O19 Ni11 97.0(4) .
Ni13 O19 Ni12 104.1(4) .
Ni13 O19 Ni11 103.6(4) .
W2 O23 W10 125.9(5) .
W3 O32 W7 124.0(5) .
Ni16 O52 Ni15 94.5(4) .
Ni13 O52 Ni16 102.4(5) .
Ni13 O52 Ni15 102.6(4) .
C72 O54 Ni12 118.2(9) .
W9 O43 Ni15 135.9(5) .
W9 O43 Ni14 126.1(5) .
Ni15 O43 Ni14 95.0(4) .
C88 O56 Ni16 129.5(10) .
C88 O55 Ni15 120.7(10) .
W8 O38 W9 123.8(5) .
W10 O37 W5 124.4(5) .
C82A N64 Ni16 103.5(16) .
C82B N64 Ni16 108.1(11) .
C72 O17 Ni11 120.8(9) .
C83A N65 Ni16 110.4(17) .
C83B N65 Ni16 108.3(11) .
C79 N67 Ni11 106.8(10) .
C85A N63 Ni14 111.7(15) .
C85B N63 Ni14 107.8(19) .
W3 O27 W2 153.6(6) .
C80 N66 Ni11 112.2(11) .
W4 O33 W9 126.4(5) .
O56 C88 O55 125.7(14) .
O56 C88 C75 116.3(14) 1_455
O55 C88 C75 118.0(14) 1_455
C89 N69 Ni0A 111.1(11) .
C86A N62 Ni14 110.7(13) .
C86B N62 Ni14 109.4(18) .
C92 N71 Ni0A 108.3(12) .
C73 C78 C77 119.5(14) .
O54 C72 C73 115.2(13) .
O17 C72 O54 126.3(13) .
O17 C72 C73 118.5(13) .
C74 C75 C88 118.1(14) 1_655
C74 C75 C76 119.2(14) .
C76 C75 C88 122.6(14) 1_655
C78 C73 C72 119.5(13) .
C78 C73 C74 120.8(14) .
C74 C73 C72 119.4(13) .
O61 C77 C78 118.2(14) .
O61 C77 C76 121.6(14) .
C76 C77 C78 120.1(14) .
C75 C74 C73 119.5(14) .
C77 C76 C75 120.6(14) .
C93 N70 Ni0A 109.7(12) .
N70 C93 C92 104.4(16) .
N69 C89 C90 111.0(16) .
N71 C92 C93 110.4(17) .
N71 C92 C94 114.5(17) .
C93 C92 C94 106.8(18) .
C89 C90 C91 115.4(19) .
N68 C90 C89 108.3(17) .
N68 C90 C91 114.6(19) .
C90 N68 Ni0A 110.7(13) .
N64 C82A C83A 107(3) .
N65 C83A C82A 107(3) .
N65 C83A C84 113(3) .
C82A C83A C84 106(3) .
N65 C83B C82B 106.1(19) .
C84 C83B N65 112.0(18) .
C84 C83B C82B 113(2) .
N63 C85A C86A 110(2) .
N62 C86A C85A 104(2) .
N62 C86A C87 115(2) .
C87 C86A C85A 110(2) .
N64 C82B C83B 111(2) .
N62 C86B C87 110(3) .
C85B C86B N62 105(3) .
C85B C86B C87 108(3) .
C86B C85B N63 108(4) .
C80 C79 N67 116.5(16) .
N66 C80 C81 118.0(16) .
C79 C80 N66 109.5(16) .
C79 C80 C81 114.5(18) .
loop_
_geom_bond_atom_site_label_1
_geom_bond_atom_site_label_2
_geom_bond_distance
_geom_bond_site_symmetry_2
W7 O41 1.890(9) .
W7 O47 1.717(9) .
W7 O40 2.388(9) .
W7 O58 1.841(9) .
W7 O46 1.948(10) .
W7 O32 2.016(10) .
W5 O39 2.438(8) .
W5 O21 1.992(10) .
W5 O18 1.928(11) .
W5 O50 1.790(11) .
W5 O20 1.719(9) .
W5 O37 1.940(10) .
W8 O44 1.805(10) .
W8 O41 1.959(10) .
W8 O42 2.422(9) .
W8 O30 1.984(10) .
W8 O57 1.720(9) .
W8 O38 1.907(10) .
W9 O35 1.719(10) .
W9 O36 1.876(9) .
W9 O42 2.426(9) .
W9 O43 1.823(10) .
W9 O38 1.951(9) .
W9 O33 1.999(11) .
W3 O29 1.747(10) .
W3 O28 1.926(10) .
W3 O40 2.518(9) .
W3 O31 1.875(9) .
W3 O32 1.889(10) .
W3 O27 1.908(11) .
W6 O45 1.704(10) .
W6 O51 1.838(10) .
W6 O18 1.903(10) .
W6 O40 2.432(9) .
W6 O31 1.986(10) .
W6 O46 1.930(9) .
W2 O39 2.483(9) .
W2 O21 1.899(10) .
W2 O25 1.717(11) .
W2 O24 1.907(9) .
W2 O23 1.899(10) .
W2 O27 1.908(11) .
W10 O39 2.443(9) .
W10 O60 1.814(10) .
W10 O34 1.702(10) .
W10 O36 1.955(9) .
W10 O23 1.998(10) .
W10 O37 1.912(10) .
W4 O28 1.916(10) .
W4 O26 1.738(11) .
W4 O42 2.466(9) .
W4 O24 1.907(9) .
W4 O30 1.889(10) .
W4 O33 1.870(11) .
Ni16 Ni15 2.972(2) .
Ni16 O44 2.086(10) .
Ni16 O58 2.120(9) .
Ni16 O52 2.008(10) .
Ni16 O56 2.013(11) .
Ni16 N64 2.104(12) .
Ni16 N65 2.056(11) .
Ni12 Ni11 2.991(2) .
Ni12 O60 2.052(10) .
Ni12 O50 2.060(10) .
Ni12 O48 2.150(9) .
Ni12 O49 2.041(10) .
Ni12 O19 1.993(10) .
Ni12 O54 2.049(9) .
Ni13 O51 2.039(9) .
Ni13 O59 2.056(11) .
Ni13 O58 2.043(9) .
Ni13 O48 2.229(10) .
Ni13 O19 1.978(10) .
Ni13 O52 1.992(10) .
Ni15 O44 2.006(10) .
Ni15 O48 2.177(10) .
Ni15 O49 2.007(9) .
Ni15 O52 2.041(9) .
Ni15 O43 2.073(10) .
Ni15 O55 2.080(10) .
Ni11 O51 2.237(9) .
Ni11 O50 2.081(10) .
Ni11 O19 2.002(9) .
Ni11 O17 2.116(10) .
Ni11 N67 2.081(14) .
Ni11 N66 2.040(14) .
Ni14 O60 2.165(10) .
Ni14 O49 2.001(11) .
Ni14 O43 2.106(10) .
Ni14 N63 2.054(13) .
Ni14 N62 2.043(14) .
Ni14 O53 2.067(14) .
Ni0A N69 1.917(14) .
Ni0A N71 1.920(15) .
Ni0A N70 1.917(15) .
Ni0A N68 1.916(15) .
P1 O39 1.541(9) .
P1 O40 1.541(10) .
P1 O42 1.553(9) .
P1 O48 1.551(10) .
O54 C72 1.281(17) .
O56 C88 1.254(19) .
O55 C88 1.293(18) .
N64 C82A 1.54(4) .
N64 C82B 1.49(3) .
O17 C72 1.269(18) .
N65 C83A 1.44(4) .
N65 C83B 1.52(3) .
N67 C79 1.47(2) .
N63 C85A 1.39(3) .
N63 C85B 1.51(5) .
N66 C80 1.47(2) .
C88 C75 1.49(2) 1_455
O61 C77 1.36(2) .
N69 C89 1.44(2) .
N62 C86A 1.47(3) .
N62 C86B 1.53(5) .
N71 C92 1.42(2) .
C78 C73 1.36(2) .
C78 C77 1.42(2) .
C72 C73 1.52(2) .
C75 C74 1.40(2) .
C75 C76 1.40(2) .
C73 C74 1.41(2) .
C77 C76 1.37(2) .
N70 C93 1.44(2) .
C93 C92 1.52(3) .
C89 C90 1.50(3) .
C94 C92 1.54(3) .
C90 C91 1.55(3) .
C90 N68 1.42(3) .
C82A C83A 1.54(5) .
C83A C84 1.57(4) .
C83B C84 1.51(3) .
C83B C82B 1.53(4) .
C85A C86A 1.61(4) .
C86A C87 1.53(3) .
C81 C80 1.49(3) .
C87 C86B 1.57(5) .
C86B C85B 1.44(6) .
C79 C80 1.45(2) .
loop_
_smtbx_masks_void_nr
_smtbx_masks_void_average_x
_smtbx_masks_void_average_y
_smtbx_masks_void_average_z
_smtbx_masks_void_volume
_smtbx_masks_void_count_electrons
1 0.262 -0.036 -0.100 236.2 69.1
2 0.238 0.036 0.400 236.2 58.5
3 -0.262 0.464 0.600 236.2 72.9
4 -0.238 0.536 0.100 236.2 57.1
loop_
_twin_individual_id
_twin_individual_mass_fraction_refined
1 0.964(10)
2 0.036(10)
