#------------------------------------------------------------------------------
#$Date: 2019-11-24 11:58:09 +0200 (Sun, 24 Nov 2019) $
#$Revision: 237863 $
#$URL: file:///home/coder/svn-repositories/cod/cif/7/12/54/7125417.cif $
#------------------------------------------------------------------------------
#
# This file is available in the Crystallography Open Database (COD),
# http://www.crystallography.net/
#
# All data on this site have been placed in the public domain by the
# contributors.
#
data_7125417
loop_
_publ_author_name
'Cao, Li-Hui'
'Liu, Xin'
'Tang, Xiao-Han'
'Liu, Junyi'
'Xu, Xiao-Qian'
'Zang, Shuang-Quan'
'Ma, Yang-Min'
_publ_section_title
;
 A fivefold linker length reduction in an interpenetrated metal-organic
 framework via sequential solvent-assisted linker exchange.
;
_journal_issue                   84
_journal_name_full
'Chemical communications (Cambridge, England)'
_journal_page_first              12671
_journal_page_last               12674
_journal_paper_doi               10.1039/c9cc06739f
_journal_volume                  55
_journal_year                    2019
_chemical_formula_moiety         'C66 H40 N2 O12 Zn3'
_chemical_formula_sum            'C66 H40 N2 O12 Zn3'
_chemical_formula_weight         1249.11
_space_group_crystal_system      orthorhombic
_space_group_IT_number           50
_space_group_name_Hall           '-P 2ab 2b'
_space_group_name_H-M_alt        'P b a n :2'
_atom_sites_solution_hydrogens   geom
_atom_sites_solution_primary     direct
_audit_creation_date             2019-09-22
_audit_creation_method
;
Olex2 1.2
(compiled 2018.05.29 svn.r3508 for OlexSys, GUI svn.r5506)
;
_audit_update_record
;
2019-09-22 deposited with the CCDC.	2019-09-27 downloaded from the CCDC.
;
_cell_angle_alpha                90
_cell_angle_beta                 90
_cell_angle_gamma                90
_cell_formula_units_Z            8
_cell_length_a                   31.8382(4)
_cell_length_b                   28.3102(3)
_cell_length_c                   19.3354(3)
_cell_measurement_reflns_used    23168
_cell_measurement_temperature    200.00(10)
_cell_measurement_theta_max      72.1820
_cell_measurement_theta_min      2.7570
_cell_volume                     17427.9(4)
_computing_cell_refinement       'CrysAlisPro 1.171.39.27b (Rigaku OD, 2015)'
_computing_data_collection       'CrysAlisPro 1.171.39.27b (Rigaku OD, 2015)'
_computing_data_reduction        'CrysAlisPro 1.171.39.27b (Rigaku OD, 2015)'
_computing_molecular_graphics    'Olex2 (Dolomanov et al., 2009)'
_computing_publication_material  'Olex2 (Dolomanov et al., 2009)'
_computing_structure_refinement  'XL (Sheldrick, 2008)'
_computing_structure_solution    'XS (Sheldrick, 2008)'
_diffrn_ambient_environment      N~2~
_diffrn_ambient_temperature      200.00(10)
_diffrn_detector                 'CCD plate'
_diffrn_measured_fraction_theta_full 1.000
_diffrn_measured_fraction_theta_max 1.000
_diffrn_measurement_details
;
List of Runs (angles in degrees, time in seconds):

  # Type    Start    End  Width  t~exp~   \w     \q     \k     \f   Frames
#--------------------------------------------------------------------------
  1  \w    -75.00 -37.00   0.50    0.50    --   -0.90 -57.00-150.00   76
  2  \w    -13.00  29.00   0.50    0.50    --   -0.90 -57.00-150.00   84
  3  \w    -85.00  21.00   0.50    0.50    --    0.90 -82.00  90.00  212
  4  \w     22.00  81.00   0.50    0.50    --    0.90  57.00-180.00  118
  5  \w     69.00 148.00   0.50   10.00    --   98.40  77.00 -60.00  158
  6  \w    149.00 175.00   0.50   10.00    --   98.40  45.00-180.00   52
  7  \w     10.00 128.00   0.50   10.00    --   98.40 -61.00  60.00  236
  8  \w     98.00 125.00   0.50   10.00    --   98.40 -45.00 150.00   54
  9  \w     10.00 117.00   0.50   10.00    --   98.40 -82.00  60.00  214
 10  \w     26.00  62.00   0.50   10.00    --   98.40 -45.00  60.00   72
 11  \w     79.00 104.00   0.50   10.00    --   98.40 -45.00  60.00   50
 12  \w     19.00  79.00   0.50   10.00    --   98.40 -45.00 150.00  120
 13  \w     69.00 180.00   0.50   10.00    --   98.40  45.00 -90.00  222
 14  \w     74.00 152.00   0.50   10.00    --   98.40  45.00-120.00  156
;
_diffrn_measurement_device       'four-circle diffractometer'
_diffrn_measurement_device_type  'XtaLAB AFC12 (RINC): Kappa single'
_diffrn_measurement_method       '\w scans'
_diffrn_orient_matrix_type
'CrysAlisPro convention (1999,Acta A55,543-557)'
_diffrn_orient_matrix_UB_11      -0.0083900000
_diffrn_orient_matrix_UB_12      -0.0249483000
_diffrn_orient_matrix_UB_13      -0.0694115000
_diffrn_orient_matrix_UB_21      0.0409933000
_diffrn_orient_matrix_UB_22      -0.0282990000
_diffrn_orient_matrix_UB_23      0.0083875000
_diffrn_orient_matrix_UB_31      -0.0243010000
_diffrn_orient_matrix_UB_32      -0.0392242000
_diffrn_orient_matrix_UB_33      0.0381883000
_diffrn_radiation_monochromator  graphite
_diffrn_radiation_probe          x-ray
_diffrn_radiation_type           CuK\a
_diffrn_radiation_wavelength     1.54184
_diffrn_reflns_av_R_equivalents  0.0477
_diffrn_reflns_av_unetI/netI     0.0300
_diffrn_reflns_Laue_measured_fraction_full 1.000
_diffrn_reflns_Laue_measured_fraction_max 1.000
_diffrn_reflns_limit_h_max       36
_diffrn_reflns_limit_h_min       -36
_diffrn_reflns_limit_k_max       18
_diffrn_reflns_limit_k_min       -32
_diffrn_reflns_limit_l_max       22
_diffrn_reflns_limit_l_min       -20
_diffrn_reflns_number            79050
_diffrn_reflns_point_group_measured_fraction_full 1.000
_diffrn_reflns_point_group_measured_fraction_max 1.000
_diffrn_reflns_theta_full        62.499
_diffrn_reflns_theta_max         62.499
_diffrn_reflns_theta_min         2.285
_diffrn_source                   'fine-focus sealed X-ray tube'
_diffrn_source_type              'Enhance (Cu) X-ray Source'
_exptl_absorpt_coefficient_mu    1.323
_exptl_absorpt_correction_T_max  1.00000
_exptl_absorpt_correction_T_min  0.72146
_exptl_absorpt_correction_type   multi-scan
_exptl_absorpt_process_details
;
CrysAlisPro 1.171.39.27b (Rigaku Oxford Diffraction, 2015)
Empirical absorption correction using spherical harmonics,
 implemented in SCALE3 ABSPACK scaling algorithm.
;
_exptl_crystal_colour            red
_exptl_crystal_density_diffrn    0.952
_exptl_crystal_description       block
_exptl_crystal_F_000             5088
_exptl_crystal_size_max          0.23
_exptl_crystal_size_mid          0.19
_exptl_crystal_size_min          0.16
_refine_diff_density_max         2.856
_refine_diff_density_min         -1.732
_refine_diff_density_rms         0.145
_refine_ls_extinction_method     none
_refine_ls_goodness_of_fit_ref   1.037
_refine_ls_hydrogen_treatment    constr
_refine_ls_matrix_type           full
_refine_ls_number_parameters     748
_refine_ls_number_reflns         13924
_refine_ls_number_restraints     130
_refine_ls_restrained_S_all      1.042
_refine_ls_R_factor_all          0.1390
_refine_ls_R_factor_gt           0.1247
_refine_ls_shift/su_max          0.000
_refine_ls_shift/su_mean         0.000
_refine_ls_structure_factor_coef Fsqd
_refine_ls_weighting_details
'w=1/[\s^2^(Fo^2^)+(0.4500P)^2^] where P=(Fo^2^+2Fc^2^)/3'
_refine_ls_weighting_scheme      calc
_refine_ls_wR_factor_gt          0.4500
_refine_ls_wR_factor_ref         0.4700
_reflns_Friedel_coverage         0.000
_reflns_number_gt                10973
_reflns_number_total             13924
_reflns_threshold_expression     'I > 2\s(I)'
_cod_data_source_file            c9cc06739f2.cif
_cod_data_source_block           Zn-BPE
_cod_original_sg_symbol_H-M      'P b a n'
_cod_database_code               7125417
_shelx_shelxl_version_number     2014/7
_shelx_space_group_comment
;
The symmetry employed for this shelxl refinement is uniquely defined
by the following loop, which should always be used as a source of
symmetry information in preference to the above space-group names.
They are only intended as comments.
;
_shelx_estimated_absorpt_t_max   0.816
_shelx_estimated_absorpt_t_min   0.751
_reflns_odcompleteness_completeness 99.92
_reflns_odcompleteness_iscentric 1
_reflns_odcompleteness_theta     66.97
_olex2_refinement_description
;
1. Fixed Uiso
 At 1.2 times of:
  All C(H) groups
2. Restrained planarity
 C61, C64, C63, N2, C66, C65
 with sigma of 0.01
3. Rigid bond restraints
 N2, C27, C60, C61, C62, C63, C64, C65, C66
 with sigma for 1-2 distances of 0.01 and sigma for 1-3 distances of 0.01
4. Uiso/Uaniso restraints and constraints
N2 \\sim C27 \\sim C60 \\sim C61 \\sim C62 \\sim C63 \\sim C64 \\sim C65 \\sim
C66: within 2A with sigma of 0.01 and sigma for terminal atoms of 0.02
Uanis(C27) \\sim Ueq, Uanis(C60) \\sim Ueq, Uanis(C61) \\sim Ueq, Uanis(C62)
\\sim Ueq, Uanis(C63) \\sim Ueq, Uanis(C64) \\sim Ueq, Uanis(C65) \\sim Ueq,
Uanis(N2) \\sim Ueq, Uanis(C66) \\sim Ueq: with sigma of 0.01 and sigma for
terminal atoms of 0.02
5.a Aromatic/amide H refined with riding coordinates:
 C8(H8), C10(H10), C12(H12), C13(H13), C15(H15), C16(H16), C21(H21), C22(H22),
 C24(H24), C25(H25), C27(H27), C28(H28), C30(H30), C31(H31), C34(H34), C35(H35),
  C36(H36), C37(H37), C38(H38), C39(H39), C42(H42), C43(H43), C44(H44),
 C45(H45), C47(H47), C48(H48), C51(H51), C52(H52), C53(H53), C54(H54), C55(H55),
  C56(H56), C57(H57), C58(H58), C59(H59), C62(H62), C63(H63), C64(H64),
 C65(H65), C66(H66)
;
_shelx_res_file
;
    hy.res created by SHELXL-2014/7

TITL hy in Pban #50
REM reset to Pban #50
CELL 1.54184 31.8382 28.3102 19.3354 90 90 90
ZERR 8 0.0004 0.0003 0.0003 0 0 0
LATT 1
SYMM 0.5-X,0.5-Y,+Z
SYMM +X,0.5-Y,-Z
SYMM 0.5-X,+Y,-Z
SFAC C H N O Zn
UNIT 528 320 16 96 24
FLAT 0.01 C61 C64 C63 N2 C66 C65
DELU N2 C27 C60 > C66
SIMU 0.01 0.02 2 N2 C27 C60 > C66
ISOR 0.01 0.02 C27 C60 C61 C62 C63 C64 C65 N2 C66

L.S. 10
PLAN  20
SIZE 0.23 0.16 0.19
ABIN
fmap 2
acta
OMIT 0 125
REM <olex2.extras>
REM <HklSrc "%.\\hy.hkl">
REM </olex2.extras>

WGHT    0.450000
FVAR       0.07043
ZN1   5    0.123030    0.529086    0.500808    11.00000    0.03477    0.02691 =
         0.05980    0.00124   -0.00107   -0.00147
ZN2   5    0.112500    0.497820    0.345292    11.00000    0.03017    0.02274 =
         0.06015   -0.00202   -0.00008   -0.00058
ZN3   5    0.119875    0.465225    0.185921    11.00000    0.04388    0.03127 =
         0.05508   -0.00031    0.00021   -0.00174
O1    4    0.115411    0.469717    0.447442    11.00000    0.03228    0.03270 =
         0.07363   -0.00176    0.00138    0.00374
O2    4    0.064458    0.454132    0.317366    11.00000    0.04618    0.04008 =
         0.07068   -0.00526   -0.00205   -0.00933
O3    4    0.068289    0.430252    0.207253    11.00000    0.05104    0.05374 =
         0.07355   -0.01348    0.00172   -0.01931
O4    4    0.175743    0.457839    0.503636    11.00000    0.04818    0.03199 =
         0.09665   -0.00133   -0.01487    0.00055
O5    4   -0.337994    0.457682    0.365998    11.00000    0.05088    0.03998 =
         0.06385   -0.00362   -0.00061    0.01100
O6    4   -0.112452    0.025456    0.236633    11.00000    0.05612    0.02659 =
         0.07690    0.00046    0.00404    0.00612
O7    4   -0.066960    0.043484    0.376812    11.00000    0.05312    0.04622 =
         0.05625    0.00948   -0.00244   -0.01223
O8    4    0.339619    0.046961    0.315507    11.00000    0.04949    0.04422 =
         0.07346   -0.00463   -0.00509    0.01537
O9    4    0.334906    0.077079    0.210764    11.00000    0.05214    0.04659 =
         0.06533    0.00624    0.00159    0.00802
O10   4   -0.334843    0.426175    0.470839    11.00000    0.05141    0.03271 =
         0.07128    0.00133    0.00309    0.01154
O11   4   -0.068605    0.061426    0.488973    11.00000    0.04120    0.04091 =
         0.07069   -0.00912   -0.00179   -0.01461
O12   4   -0.170996    0.037262    0.178689    11.00000    0.07254    0.03458 =
         0.08362   -0.00243   -0.01607    0.00401
N1    3    0.124857    0.517179    0.602882    11.00000    0.03654    0.03196 =
         0.09067   -0.00042   -0.00314   -0.00796
N2    3    0.117242    0.467897    1.082829    11.00000    0.09244    0.09050 =
         0.05599    0.00140    0.00051   -0.01652
C1    1    0.012875    0.401157    0.277147    11.00000    0.03478    0.03473 =
         0.07043   -0.01010   -0.00131   -0.00438
C2    1    0.145646    0.391592    0.446882    11.00000    0.04233    0.03132 =
         0.07243    0.00953    0.00178    0.00113
C3    1    0.283397    0.098328    0.293982    11.00000    0.03840    0.03609 =
         0.08465    0.00053   -0.00290    0.00483
C4    1   -0.141870    0.199129    0.277679    11.00000    0.05036    0.02611 =
         0.07047   -0.00130    0.00390    0.00159
C5    1    0.147458    0.442560    0.466067    11.00000    0.05899    0.04732 =
         0.02300    0.00742   -0.00273   -0.00721
C6    1    0.321941    0.072688    0.271747    11.00000    0.04577    0.03606 =
         0.04611   -0.00533   -0.00070    0.00426
C7    1    0.051655    0.430747    0.264764    11.00000    0.04075    0.02975 =
         0.07068   -0.00456    0.00081    0.00522
C8    1   -0.138295    0.346624    0.322388    11.00000    0.03373    0.03381 =
         0.07971   -0.00617   -0.00137   -0.00296
AFIX  43
H8    2   -0.137393    0.378783    0.332091    11.00000   -1.20000
AFIX   0
C9    1   -0.142811    0.052192    0.217049    11.00000    0.05962    0.04396 =
         0.02810    0.00708    0.00258   -0.00215
C10   1    0.177881    0.315457    0.443340    11.00000    0.03739    0.02678 =
         0.08792    0.00554   -0.00042    0.00291
AFIX  43
H10   2    0.201187    0.296576    0.452087    11.00000   -1.20000
AFIX   0
C11   1    0.141914    0.295669    0.413810    11.00000    0.04095    0.02946 =
         0.08057    0.00184    0.00653    0.00114
C12   1   -0.224667    0.390860    0.315115    11.00000    0.05202    0.04049 =
         0.06684    0.00277    0.00743    0.00206
AFIX  43
H12   2   -0.207624    0.401981    0.279607    11.00000   -1.20000
AFIX   0
C13   1   -0.176144    0.179066    0.241642    11.00000    0.04659    0.03117 =
         0.08764   -0.00429   -0.00457    0.00281
AFIX  43
H13   2   -0.198873    0.198067    0.229864    11.00000   -1.20000
AFIX   0
C14   1   -0.322496    0.430301    0.410175    11.00000    0.03601    0.02745 =
         0.06233    0.00267   -0.00403    0.00657
C15   1    0.178972    0.362700    0.459517    11.00000    0.03143    0.03082 =
         0.08528   -0.00124   -0.00042   -0.00788
AFIX  43
H15   2    0.203058    0.375252    0.479585    11.00000   -1.20000
AFIX   0
C16   1    0.034115    0.151437    0.458352    11.00000    0.04134    0.03375 =
         0.08266   -0.00928    0.00093   -0.01134
AFIX  43
H16   2    0.040856    0.174759    0.490356    11.00000   -1.20000
AFIX   0
C17   1   -0.142512    0.102723    0.238208    11.00000    0.04114    0.03264 =
         0.07684    0.00269    0.00538   -0.00722
C18   1    0.060527    0.144360    0.402959    11.00000    0.03261    0.03072 =
         0.09552    0.00003    0.00435   -0.00508
C19   1   -0.013618    0.091497    0.420585    11.00000    0.04020    0.03812 =
         0.06368   -0.00334   -0.00228    0.00185
C20   1   -0.101292    0.323127    0.301458    11.00000    0.03856    0.03274 =
         0.07708   -0.00781    0.00188   -0.00036
C21   1   -0.108419    0.121849    0.274498    11.00000    0.04725    0.03423 =
         0.06344    0.00455   -0.00114    0.00614
AFIX  43
H21   2   -0.085868    0.102650    0.286513    11.00000   -1.20000
AFIX   0
C22   1    0.174647    0.220520    0.373157    11.00000    0.03911    0.03490 =
         0.07135    0.00182    0.00900   -0.00261
AFIX  43
H22   2    0.199302    0.237225    0.364974    11.00000   -1.20000
AFIX   0
C23   1   -0.176002    0.322368    0.328676    11.00000    0.04072    0.03403 =
         0.07163   -0.00092    0.00128    0.00731
C24   1   -0.102961    0.274725    0.287138    11.00000    0.03297    0.03166 =
         0.09722   -0.00833    0.00140    0.00165
AFIX  43
H24   2   -0.078806    0.259056    0.272820    11.00000   -1.20000
AFIX   0
C25   1    0.136875    0.148285    0.371459    11.00000    0.04350    0.03305 =
         0.07377    0.00274   -0.00070    0.00234
AFIX  43
H25   2    0.136344    0.115781    0.364547    11.00000   -1.20000
AFIX   0
C26   1    0.100525    0.171030    0.392748    11.00000    0.03438    0.03269 =
         0.07416    0.00719   -0.00163    0.00132
C27   1    0.132578    0.489764    0.821122    11.00000    0.10390    0.09622 =
         0.08728    0.01354    0.00326   -0.01194
AFIX  43
H27   2    0.159294    0.493215    0.839899    11.00000   -1.20000
AFIX   0
C28   1    0.109678    0.372961    0.416511    11.00000    0.02941    0.02918 =
         0.09749    0.00395   -0.00163   -0.00040
AFIX  43
H28   2    0.086771    0.392281    0.406997    11.00000   -1.20000
AFIX   0
C29   1   -0.284918    0.401056    0.388332    11.00000    0.03844    0.03449 =
         0.05704   -0.00561   -0.00100    0.00168
C30   1   -0.010274    0.405264    0.336918    11.00000    0.04239    0.04809 =
         0.06178   -0.01189   -0.00391   -0.00760
AFIX  43
H30   2   -0.000823    0.424817    0.372296    11.00000   -1.20000
AFIX   0
C31   1   -0.176346    0.274270    0.314690    11.00000    0.03912    0.02741 =
         0.08932   -0.00208    0.00610    0.00021
AFIX  43
H31   2   -0.201443    0.257745    0.319202    11.00000   -1.20000
AFIX   0
C32   1    0.139784    0.244273    0.397915    11.00000    0.03632    0.02957 =
         0.10139   -0.00071    0.00050    0.00675
C33   1   -0.052852    0.063595    0.430977    11.00000    0.04817    0.03235 =
         0.04504   -0.00271   -0.00568    0.01021
C34   1    0.102904    0.219095    0.408412    11.00000    0.03348    0.03257 =
         0.08478   -0.00277    0.00352    0.00356
AFIX  43
H34   2    0.079445    0.234475    0.426136    11.00000   -1.20000
AFIX   0
C35   1   -0.275628    0.359239    0.420885    11.00000    0.05469    0.04404 =
         0.08877    0.00994    0.01104    0.00793
AFIX  43
H35   2   -0.292054    0.349017    0.457734    11.00000   -1.20000
AFIX   0
C36   1    0.221834    0.102307    0.365188    11.00000    0.04325    0.03179 =
         0.09232    0.00433    0.00885    0.00785
AFIX  43
H36   2    0.204332    0.088371    0.397846    11.00000   -1.20000
AFIX   0
C37   1   -0.001908    0.125348    0.468271    11.00000    0.04448    0.03881 =
         0.08634   -0.01252    0.00555   -0.00113
AFIX  43
H37   2   -0.018406    0.130549    0.507226    11.00000   -1.20000
AFIX   0
C38   1   -0.258753    0.416543    0.333913    11.00000    0.04606    0.02954 =
         0.08308    0.00629    0.00393    0.00815
AFIX  43
H38   2   -0.264931    0.444514    0.310833    11.00000   -1.20000
AFIX   0
C39   1   -0.176618    0.132163    0.223649    11.00000    0.05437    0.02792 =
         0.07271   -0.00119   -0.00781   -0.00326
AFIX  43
H39   2   -0.200045    0.119763    0.201382    11.00000   -1.20000
AFIX   0
C40   1   -0.061125    0.349035    0.292637    11.00000    0.04561    0.03878 =
         0.05695   -0.01085   -0.00058   -0.00255
C41   1    0.173647    0.172510    0.360315    11.00000    0.04215    0.02855 =
         0.06607    0.00555   -0.00029    0.00478
C42   1    0.108397    0.325339    0.400630    11.00000    0.03547    0.02517 =
         0.11580    0.00396    0.00531   -0.00212
AFIX  43
H42   2    0.084273    0.312930    0.380495    11.00000   -1.20000
AFIX   0
C43   1    0.258048    0.079931    0.344056    11.00000    0.04771    0.03074 =
         0.05878    0.00166    0.00414   -0.00041
AFIX  43
H43   2    0.265438    0.051402    0.364565    11.00000   -1.20000
AFIX   0
C44   1    0.273531    0.141657    0.264304    11.00000    0.05791    0.04095 =
         0.07677    0.01283    0.00810    0.00142
AFIX  43
H44   2    0.290408    0.153952    0.229418    11.00000   -1.20000
AFIX   0
C45   1    0.047517    0.110549    0.354971    11.00000    0.05291    0.05604 =
         0.08367   -0.01443    0.01452   -0.00978
AFIX  43
H45   2    0.064344    0.105064    0.316485    11.00000   -1.20000
AFIX   0
C46   1   -0.140357    0.249794    0.294083    11.00000    0.03498    0.03143 =
         0.07794   -0.00700    0.00242   -0.00167
C47   1   -0.047123    0.380834    0.344863    11.00000    0.04611    0.04268 =
         0.06591   -0.00133   -0.00046   -0.00284
AFIX  43
H47   2   -0.063104    0.385051    0.384647    11.00000   -1.20000
AFIX   0
C48   1   -0.242023    0.332349    0.399120    11.00000    0.04976    0.03247 =
         0.11228    0.01128    0.01636    0.01044
AFIX  43
H48   2   -0.237581    0.302924    0.419216    11.00000   -1.20000
AFIX   0
C49   1    0.211768    0.146443    0.336677    11.00000    0.03947    0.03082 =
         0.08588    0.00554    0.00944   -0.00230
C50   1   -0.214254    0.348088    0.347428    11.00000    0.03204    0.03101 =
         0.08033   -0.00125   -0.00235   -0.00275
C51   1    0.011882    0.085544    0.361650    11.00000    0.04776    0.05998 =
         0.06878   -0.02610    0.01038   -0.01876
AFIX  43
H51   2    0.004033    0.064281    0.327340    11.00000   -1.20000
AFIX   0
C52   1   -0.108123    0.169189    0.292569    11.00000    0.04568    0.03319 =
         0.08284   -0.00573   -0.00233   -0.00661
AFIX  43
H52   2   -0.084788    0.181430    0.315282    11.00000   -1.20000
AFIX   0
C53   1   -0.036484    0.344263    0.234616    11.00000    0.06634    0.07053 =
         0.08905   -0.02969    0.01993   -0.02605
AFIX  43
H53   2   -0.044886    0.323666    0.199794    11.00000   -1.20000
AFIX   0
C54   1    0.000267    0.369212    0.226862    11.00000    0.06162    0.07801 =
         0.09502   -0.03301    0.02333   -0.02079
AFIX  43
H54   2    0.016751    0.364650    0.187721    11.00000   -1.20000
AFIX   0
C55   1    0.238894    0.166349    0.286416    11.00000    0.05672    0.03580 =
         0.11117    0.02273    0.01847    0.01164
AFIX  43
H55   2    0.233249    0.196136    0.268392    11.00000   -1.20000
AFIX   0
C56   1    0.161452    0.513505    0.637973    11.00000    0.06732    0.06731 =
         0.03283    0.00668    0.00047    0.00601
AFIX  43
H56   2    0.186135    0.517324    0.612868    11.00000   -1.20000
AFIX   0
C57   1    0.090317    0.509846    0.639458    11.00000    0.04606    0.06240 =
         0.07759    0.00224    0.00069   -0.01075
AFIX  43
H57   2    0.064469    0.510829    0.617100    11.00000   -1.20000
AFIX   0
C58   1    0.091294    0.500745    0.709977    11.00000    0.07965    0.10755 =
         0.05243    0.00706    0.00637   -0.01538
AFIX  43
H58   2    0.066274    0.496482    0.734000    11.00000   -1.20000
AFIX   0
C59   1    0.165154    0.504923    0.705125    11.00000    0.07480    0.06468 =
         0.06598    0.00005   -0.00973   -0.00296
AFIX  43
H59   2    0.191331    0.503444    0.726356    11.00000   -1.20000
AFIX   0
C60   1    0.127518    0.498079    0.743337    11.00000    0.10226    0.06438 =
         0.07800    0.01056   -0.00321   -0.01306
C61   1    0.110010    0.472540    0.938165    11.00000    0.11547    0.11829 =
         0.08429    0.00271   -0.00437   -0.04358
C62   1    0.102139    0.478189    0.862983    11.00000    0.09558    0.11717 =
         0.09036    0.00748   -0.00706   -0.03007
AFIX  43
H62   2    0.075249    0.473432    0.845538    11.00000   -1.20000
AFIX   0
C63   1    0.150173    0.480095    1.043234    11.00000    0.10160    0.11313 =
         0.06436    0.01002    0.00570   -0.01511
AFIX  43
H63   2    0.175498    0.486877    1.065048    11.00000   -1.20000
AFIX   0
C64   1    0.148669    0.482975    0.975880    11.00000    0.11562    0.11816 =
         0.07227    0.01251   -0.00033   -0.02566
AFIX  43
H64   2    0.172599    0.491814    0.951522    11.00000   -1.20000
AFIX   0
C65   1    0.079137    0.460670    0.977367    11.00000    0.11739    0.14662 =
         0.08920    0.00010   -0.00924   -0.03552
AFIX  43
H65   2    0.053354    0.453465    0.957375    11.00000   -1.20000
AFIX   0
C66   1    0.083059    0.458463    1.044710    11.00000    0.11167    0.13932 =
         0.08037    0.00032   -0.00866   -0.03066
AFIX  43
H66   2    0.059245    0.449232    1.069065    11.00000   -1.20000
AFIX   0
HKLF 4

REM  hy in Pban #50
REM R1 =  0.1247 for   10973 Fo > 4sig(Fo)  and  0.1390 for all   13924 data
REM    748 parameters refined using    130 restraints

END

WGHT      0.2000      0.0000

REM Highest difference peak  2.856,  deepest hole -1.732,  1-sigma level  0.145
Q1    1   0.1123  0.4984  0.4009  11.00000  0.05    2.86
Q2    1   0.1232  0.5299  0.4463  11.00000  0.05    2.84
Q3    1   0.1231  0.5285  0.5561  11.00000  0.05    2.68
Q4    1   0.1193  0.4641  0.2415  11.00000  0.05    2.42
Q5    1   0.1123  0.4980  0.2936  11.00000  0.05    2.33
Q6    1   0.1203  0.4648  0.1353  11.00000  0.05    2.04
Q7    1   0.0911  0.5284  0.5013  11.00000  0.05    1.40
Q8    1   0.0822  0.4943  0.3443  11.00000  0.05    1.35
Q9    1   0.1532  0.5278  0.5012  11.00000  0.05    1.33
Q10   1   0.1432  0.4974  0.3440  11.00000  0.05    1.27
Q11   1   0.1504  0.4656  0.1845  11.00000  0.05    1.25
Q12   1   0.0887  0.4641  0.1847  11.00000  0.05    1.16
Q13   1  -0.1411  0.0487  0.1727  11.00000  0.05    0.78
Q14   1   0.1483  0.4417  0.5060  11.00000  0.05    0.78
Q15   1  -0.0145  0.0916  0.3657  11.00000  0.05    0.76
Q16   1   0.1162  0.4720  0.5065  11.00000  0.05    0.75
Q17   1  -0.0668  0.0467  0.3374  11.00000  0.05    0.67
Q18   1   0.1563  0.5148  0.5987  11.00000  0.05    0.66
Q19   1  -0.0122  0.4030  0.2823  11.00000  0.05    0.60
Q20   1  -0.3439  0.4645  0.4360  11.00000  0.05    0.59
;
_shelx_res_checksum              50199
_shelx_fab_file
;
0 0 1 836.3172 4.6927
0 0 2 391.8770 4.0137
0 0 3 -221.3594 3.3017
0 0 4 -13.7446 -1.5357
0 0 5 62.5488 -1.9341
0 0 6 142.7083 -4.3750
0 0 7 -68.2203 2.8871
0 0 8 -24.8440 2.1775
0 0 9 -53.9871 2.3887
0 0 10 10.5996 -2.4992
0 0 11 0.6283 -1.7065
0 0 12 49.8875 -1.3305
0 0 13 -20.2348 3.0154
0 0 14 -23.9996 0.8691
0 0 15 23.0110 0.2479
0 0 16 18.4566 -2.1596
0 0 17 -7.8104 -0.4778
0 0 18 -2.4814 0.2638
0 0 19 -18.3269 1.9603
0 0 20 17.5323 -0.0948
0 0 21 -6.8748 -0.4750
0 0 22 23.4226 -1.0597
0 2 0 -395.1961 -5.0475
0 2 1 -150.8956 -2.1928
0 2 2 -43.7875 1.4315
0 2 3 199.1200 3.1176
0 2 4 -74.0464 -0.2266
0 2 5 -51.8881 -2.5487
0 2 6 -26.5633 -1.3413
0 2 7 80.7951 0.4311
0 2 8 -14.0229 2.3640
0 2 9 1.9349 1.2045
0 2 10 -12.5591 -1.3078
0 2 11 10.5487 -1.7867
0 2 12 -40.4686 -0.0691
0 2 13 19.9999 1.1801
0 2 14 17.8773 1.3364
0 2 15 -3.2596 -0.2742
0 2 16 -13.2343 -1.2976
0 2 17 -6.3519 -0.5504
0 2 18 -28.9444 0.6213
0 2 19 6.9795 0.8425
0 2 20 -3.0759 0.3048
0 2 21 42.6304 -0.5366
0 2 22 10.1298 -0.5167
0 4 0 -15.4609 -1.9263
0 4 1 -198.4272 -1.2419
0 4 2 -145.0924 0.6869
0 4 3 -241.2666 1.8176
0 4 4 9.8865 -0.0372
0 4 5 -4.0133 -1.3267
0 4 6 63.4180 -1.8211
0 4 7 -20.7034 1.0091
0 4 8 26.7786 1.4498
0 4 9 -34.5766 1.1215
0 4 10 19.7703 -1.1669
0 4 11 -1.6088 -1.2202
0 4 12 30.5993 -0.5649
0 4 13 -1.8691 1.4647
0 4 14 14.7231 0.8101
0 4 15 17.2630 -0.0362
0 4 16 -1.5977 -1.2017
0 4 17 -1.7101 -0.4058
0 4 18 -8.1130 0.3699
0 4 19 -13.2933 0.9566
0 4 20 6.7856 0.0216
0 4 21 -10.1937 -0.3807
0 4 22 -1.2400 -0.4801
0 6 0 -11.4976 -1.3592
0 6 1 57.8805 -0.1748
0 6 2 -23.3679 0.1658
0 6 3 7.2606 0.7890
0 6 4 -4.4255 -0.1521
0 6 5 49.2460 -0.2827
0 6 6 5.3747 -0.8060
0 6 7 -7.3775 0.3694
0 6 8 -17.3174 0.3761
0 6 9 31.6656 0.5898
0 6 10 -7.6859 -0.3425
0 6 11 6.7024 -0.3640
0 6 12 -11.4213 -0.4469
0 6 13 12.0635 0.4741
0 6 14 -12.8117 0.3602
0 6 15 9.7048 0.1905
0 6 16 3.8266 -0.5505
0 6 17 -1.0616 -0.1820
0 6 18 1.3275 0.0663
0 6 19 12.1593 0.4761
0 6 20 -9.5216 0.0076
0 6 21 -11.7787 -0.1314
0 6 22 -21.5628 -0.2798
0 8 0 74.4725 0.5505
0 8 1 -4.3494 0.2544
0 8 2 -0.4489 -0.5472
0 8 3 -37.2136 -0.4150
0 8 4 7.8547 -0.1136
0 8 5 9.6413 0.7150
0 8 6 62.2493 0.2467
0 8 7 14.3386 -0.2313
0 8 8 14.0407 -0.6306
0 8 9 -34.0411 0.1092
0 8 10 -4.1199 0.1945
0 8 11 -13.8910 0.4596
0 8 12 2.5326 -0.1180
0 8 13 -12.8009 -0.3276
0 8 14 -8.3213 -0.2239
0 8 15 -24.5840 0.2519
0 8 16 -12.8418 0.1572
0 8 17 4.3985 0.0765
0 8 18 2.8901 -0.1838
0 8 19 -0.5453 -0.0183
0 8 20 -13.5497 -0.0380
0 8 21 -8.0056 0.0971
0 8 22 -0.1677 -0.0252
0 10 0 30.3850 2.0090
0 10 1 75.3907 0.4898
0 10 2 11.1668 -0.9693
0 10 3 33.8412 -1.6360
0 10 4 -2.2583 0.1724
0 10 5 12.5918 1.1874
0 10 6 -20.8929 1.2340
0 10 7 8.7819 -0.6753
0 10 8 -12.4095 -1.2417
0 10 9 9.6408 -0.7502
0 10 10 1.8706 1.0234
0 10 11 7.6250 0.9448
0 10 12 -13.7666 0.1620
0 10 13 4.3119 -0.9011
0 10 14 -4.0267 -0.6480
0 10 15 0.3069 0.0920
0 10 16 -11.7622 0.8537
0 10 17 8.2579 0.3267
0 10 18 5.5941 -0.3174
0 10 19 5.3863 -0.6405
0 10 20 -6.3051 -0.0219
0 10 21 -15.5171 0.3294
0 12 0 1.9021 2.6903
0 12 1 -61.6551 0.4908
0 12 2 34.1552 -0.8394
0 12 3 -34.8057 -2.6004
0 12 4 19.8424 0.3535
0 12 5 -34.0420 1.3464
0 12 6 24.9677 1.9668
0 12 7 -25.5806 -1.0339
0 12 8 10.3821 -1.4226
0 12 9 -6.5099 -1.2868
0 12 10 16.1363 1.2749
0 12 11 -7.0649 1.2038
0 12 12 0.5829 0.6878
0 12 13 -16.3526 -1.4601
0 12 14 -1.7245 -0.7864
0 12 15 1.9948 -0.0912
0 12 16 -1.9862 1.2821
0 12 17 -9.4994 0.3706
0 12 18 3.2729 -0.2799
0 12 19 2.2549 -0.9524
0 12 20 -7.2844 -0.1738
0 12 21 -4.6250 0.5479
0 14 0 -58.7317 3.0175
0 14 1 16.4218 0.3811
0 14 2 -3.3273 -0.8385
0 14 3 49.6863 -2.6332
0 14 4 -17.0750 0.3491
0 14 5 14.9274 1.2214
0 14 6 -30.5345 2.1085
0 14 7 9.7183 -0.9704
0 14 8 -13.9349 -1.4378
0 14 9 7.0243 -1.4752
0 14 10 -8.7033 1.3278
0 14 11 17.0335 1.2359
0 14 12 -2.9745 0.7620
0 14 13 6.2583 -1.4287
0 14 14 -6.8962 -0.8737
0 14 15 1.1945 -0.1637
0 14 16 3.5190 1.3808
0 14 17 6.9616 0.4340
0 14 18 -13.5693 -0.2799
0 14 19 -3.8706 -1.1504
0 14 20 3.3684 -0.1043
0 16 0 21.5513 2.7260
0 16 1 -1.4027 0.3001
0 16 2 22.2074 -0.7350
0 16 3 -5.0046 -2.3239
0 16 4 12.1068 0.3242
0 16 5 -23.8662 1.1145
0 16 6 7.3290 1.8568
0 16 7 -20.8648 -0.9623
0 16 8 -7.3506 -1.2330
0 16 9 -10.0814 -1.2804
0 16 10 6.2671 1.2482
0 16 11 -4.8298 1.0470
0 16 12 8.5319 0.6659
0 16 13 1.7102 -1.3480
0 16 14 1.2978 -0.6923
0 16 15 -1.2608 -0.1310
0 16 16 0.6649 1.2498
0 16 17 -4.8826 0.3309
0 16 18 -6.6100 -0.2144
0 16 19 1.3043 -0.8336
0 16 20 6.5702 -0.2691
0 18 0 -28.1821 2.1391
0 18 1 -9.6086 0.1731
0 18 2 5.0358 -0.4626
0 18 3 16.7630 -1.9609
0 18 4 -3.0458 0.5228
0 18 5 -8.0486 0.7725
0 18 6 -19.9653 1.3722
0 18 7 0.3889 -0.8940
0 18 8 4.4315 -0.8074
0 18 9 -3.8947 -0.8648
0 18 10 -1.0400 1.0127
0 18 11 0.9599 0.6143
0 18 12 -0.8866 0.4764
0 18 13 -0.9766 -1.0750
0 18 14 4.5673 -0.3392
0 18 15 4.7177 -0.0942
0 18 16 1.6198 0.9279
0 18 17 1.7506 0.1117
0 18 18 1.4106 -0.0667
0 18 19 -4.9613 -0.5527
0 20 0 7.7735 1.4283
0 20 1 16.8000 -0.2000
0 20 2 1.4345 -0.0999
0 20 3 9.3380 -1.1208
0 20 4 -4.4114 0.5419
0 20 5 1.8041 0.2038
0 20 6 -0.1393 0.8204
0 20 7 6.8132 -0.7577
0 20 8 0.2460 -0.1473
0 20 9 6.2598 -0.4955
0 20 10 -5.2822 0.7236
0 20 11 -0.7854 0.0285
0 20 12 1.0904 0.2705
0 20 13 4.2499 -0.5874
0 20 14 4.4772 0.0127
0 20 15 2.4514 -0.1383
0 20 16 1.1237 0.5097
0 20 17 1.2386 -0.0818
0 20 18 -1.9486 0.0639
0 22 0 2.0206 0.2290
0 22 1 -12.9974 -0.4210
0 22 2 13.9517 0.4951
0 22 3 -5.8439 -0.2130
0 22 4 10.3544 0.4432
0 22 5 -6.9539 -0.5117
0 22 6 7.1976 0.1259
0 22 7 -2.3974 -0.2975
0 22 8 7.0886 0.5330
0 22 9 -2.6581 -0.1771
0 22 10 1.7930 0.1847
0 22 11 -6.0846 -0.4337
0 22 12 -2.1407 0.1942
0 22 13 -0.1912 -0.1210
0 22 14 3.8705 0.3576
0 22 15 2.6796 -0.2026
0 22 16 1.5380 -0.0219
0 22 17 -2.8556 -0.2317
0 24 0 -28.0166 -0.7721
0 24 1 -8.8134 -0.6019
0 24 2 -13.8542 0.8641
0 24 3 5.9505 0.7062
0 24 4 -8.7873 0.3027
0 24 5 4.5093 -1.0409
0 24 6 -1.4207 -0.5352
0 24 7 5.5762 0.0664
0 24 8 -8.7064 1.0397
0 24 9 -1.0485 0.2915
0 24 10 -3.9529 -0.3989
0 24 11 3.8863 -0.8316
0 24 12 -5.1457 0.1135
0 24 13 -1.5702 0.4443
0 24 14 -3.0572 0.5680
0 24 15 0.6010 -0.2812
0 24 16 -0.7411 -0.3131
0 26 0 -4.8587 -1.4126
0 26 1 -4.9324 -0.6631
0 26 2 4.7098 0.9995
0 26 3 -1.5983 1.3750
0 26 4 0.1467 0.0679
0 26 5 -3.6508 -1.1718
0 26 6 -0.2432 -1.0618
0 26 7 -1.8374 0.4083
0 26 8 0.8877 1.2761
0 26 9 -1.1578 0.4892
0 26 10 2.9898 -0.6566
0 26 11 -0.1748 -1.0898
0 26 12 2.1866 0.1366
0 26 13 -6.2648 0.7283
0 26 14 -4.6636 0.7379
0 28 0 0.9284 -1.9056
0 28 1 4.0150 -0.4288
0 28 2 2.2402 0.9797
0 28 3 1.8262 1.5569
0 28 4 -3.7488 -0.0694
0 28 5 1.5995 -1.2280
0 28 6 1.6372 -1.0610
0 28 7 1.4382 0.5705
0 28 8 -4.6801 1.2533
0 28 9 -2.2379 0.6322
0 28 10 -1.2878 -0.9001
0 28 11 1.7517 -1.0572
0 28 12 2.7355 -0.0535
0 30 0 2.2617 -1.5912
0 30 1 -0.4800 -0.3282
0 30 2 -1.7397 0.7169
0 30 3 -0.5467 1.4077
0 30 4 3.8003 -0.1876
0 30 5 -0.3653 -0.8460
0 30 6 1.5551 -0.9265
0 30 7 0.8512 0.5135
0 30 8 2.9835 1.0535
0 30 9 0.1911 0.6758
0 30 10 -3.9859 -0.5607
0 32 0 5.2077 -0.8612
0 32 1 1.4951 -0.2222
0 32 2 7.9594 0.3239
0 32 3 2.9668 1.0270
0 32 4 1.0573 -0.1891
0 32 5 -0.7474 -0.5069
0 32 6 -2.4231 -0.6335
1 1 1 -51.5372 -1.2069
1 1 2 158.1069 -0.7641
1 1 3 78.2421 -0.7861
1 1 4 58.9974 -0.0798
1 1 5 -109.4711 1.5382
1 1 6 13.2112 0.9772
1 1 7 -0.5741 -0.3331
1 1 8 -0.4248 -1.8674
1 1 9 -69.4577 -0.2671
1 1 10 -6.1282 0.8190
1 1 11 -2.2074 1.1050
1 1 12 23.6403 -0.1054
1 1 13 9.4527 -0.7212
1 1 14 22.4321 -0.7829
1 1 15 -7.0299 0.4041
1 1 16 3.5266 0.4597
1 1 17 3.2558 0.3866
1 1 18 -5.0867 -0.2649
1 1 19 -44.7454 -0.4244
1 1 20 -31.5211 -0.2838
1 1 21 -32.4854 0.4415
1 1 22 -17.0857 0.1879
1 2 1 -65.0535 -0.2092
1 2 2 -53.6364 -0.5399
1 2 3 6.1612 -0.0916
1 2 4 61.7173 0.2356
1 2 5 17.8275 0.1074
1 2 6 -36.2998 -0.2967
1 2 7 -37.2705 -0.1808
1 2 8 7.3792 0.1516
1 2 9 20.5107 0.3951
1 2 10 5.6463 0.0602
1 2 11 -0.6470 -0.2139
1 2 12 26.4731 -0.3229
1 2 13 30.6290 0.0016
1 2 14 22.2669 0.2638
1 2 15 0.2384 0.2745
1 2 16 2.1974 -0.1433
1 2 17 -5.0047 -0.2633
1 2 18 -4.9925 -0.0059
1 2 19 -33.3267 0.2239
1 2 20 -6.7234 0.1289
1 2 21 3.9235 -0.0020
1 2 22 29.7540 0.0016
1 3 0 81.9257 0.0523
1 3 1 128.2567 0.3015
1 3 2 -81.4265 -1.1119
1 3 3 -24.7179 -0.9706
1 3 4 -47.8206 -0.2338
1 3 5 93.5575 1.0788
1 3 6 22.2390 0.9080
1 3 7 49.4054 -0.0254
1 3 8 -4.8558 -1.0729
1 3 9 5.2450 -0.5876
1 3 10 -36.1825 0.4818
1 3 11 7.6131 0.8351
1 3 12 4.6344 -0.2185
1 3 13 13.7209 -0.4886
1 3 14 3.6725 -0.2112
1 3 15 25.1063 0.1091
1 3 16 18.5966 0.4090
1 3 17 6.7049 0.1546
1 3 18 1.4013 -0.3244
1 3 19 10.5716 -0.2980
1 3 20 -10.7868 -0.0477
1 3 21 -6.5575 0.1162
1 3 22 -5.9454 0.1718
1 4 1 -28.6089 -1.0408
1 4 2 -45.3779 -0.0641
1 4 3 -13.6354 0.1617
1 4 4 -2.6427 0.6993
1 4 5 31.7629 -0.0013
1 4 6 29.1505 -0.6406
1 4 7 27.9752 -0.5892
1 4 8 13.1552 0.1588
1 4 9 8.1867 0.6529
1 4 10 -2.8923 0.5684
1 4 11 2.8729 -0.2389
1 4 12 3.9398 -0.5660
1 4 13 13.2261 -0.3482
1 4 14 3.9593 0.1958
1 4 15 5.2591 0.4805
1 4 16 10.9916 0.1450
1 4 17 5.5635 -0.1313
1 4 18 -14.7867 -0.3044
1 4 19 -13.0702 -0.0907
1 4 20 -26.5970 0.2066
1 4 21 -5.1918 0.1988
1 4 22 8.3354 0.0970
1 5 0 -39.0389 -0.3031
1 5 1 -89.1152 0.1047
1 5 2 4.2722 -0.0982
1 5 3 -29.6249 -1.2538
1 5 4 26.2136 -0.5485
1 5 5 -35.2792 0.9508
1 5 6 0.1821 1.1613
1 5 7 -33.9597 -0.2178
1 5 8 17.8136 -1.1408
1 5 9 2.6259 -0.4038
1 5 10 23.5018 0.5767
1 5 11 -9.2279 0.6798
1 5 12 15.1725 0.0185
1 5 13 5.8427 -0.7497
1 5 14 12.0826 -0.4955
1 5 15 3.5936 0.4233
1 5 16 7.5273 0.6012
1 5 17 3.4045 0.1671
1 5 18 2.7567 -0.4244
1 5 19 8.7788 -0.5306
1 5 20 18.6553 -0.0772
1 5 21 7.5702 0.2810
1 5 22 1.6508 0.1624
1 6 1 27.5339 -1.4526
1 6 2 33.8256 -0.9558
1 6 3 -1.4074 0.2523
1 6 4 -15.0088 1.4731
1 6 5 -34.9609 0.6655
1 6 6 -25.6477 -0.9521
1 6 7 -20.0831 -1.5096
1 6 8 6.3491 0.0035
1 6 9 8.9643 1.1729
1 6 10 13.2423 1.0807
1 6 11 6.7796 -0.3698
1 6 12 7.3198 -1.0778
1 6 13 -1.6573 -0.5340
1 6 14 -0.1040 0.5420
1 6 15 9.8585 0.7666
1 6 16 1.4018 0.1073
1 6 17 8.7400 -0.5846
1 6 18 -3.7266 -0.4009
1 6 19 -15.0704 0.1324
1 6 20 -17.1282 0.5026
1 6 21 -0.1699 0.1301
1 6 22 -7.7954 -0.1804
1 7 0 4.4832 -1.1406
1 7 1 19.7730 -0.1909
1 7 2 -39.8414 -0.5316
1 7 3 -31.5289 -0.7243
1 7 4 -43.7214 -0.3310
1 7 5 11.0695 0.9913
1 7 6 10.4676 0.8321
1 7 7 26.3068 -0.2825
1 7 8 -14.4726 -1.3108
1 7 9 -2.0302 -0.3943
1 7 10 -8.7552 0.6628
1 7 11 10.4231 1.1100
1 7 12 -6.2374 -0.1494
1 7 13 1.4584 -0.7720
1 7 14 1.9050 -0.7675
1 7 15 3.5266 0.3369
1 7 16 -3.1599 0.7576
1 7 17 -3.2043 0.4215
1 7 18 -1.0551 -0.4572
1 7 19 -0.2660 -0.5134
1 7 20 3.9465 -0.2507
1 7 21 6.1540 0.2138
1 7 22 2.3220 0.2870
1 8 1 -59.6259 -1.4761
1 8 2 -49.8811 -1.0552
1 8 3 10.5442 0.1660
1 8 4 52.3471 1.6357
1 8 5 25.2322 0.9046
1 8 6 -15.3073 -0.8479
1 8 7 -12.6627 -1.6418
1 8 8 -4.1695 -0.2701
1 8 9 4.5730 1.1489
1 8 10 -9.3190 1.2551
1 8 11 -11.7309 -0.2896
1 8 12 -6.7236 -1.0660
1 8 13 1.5864 -0.7883
1 8 14 4.4195 0.5734
1 8 15 0.4493 0.9679
1 8 16 8.4137 0.2194
1 8 17 0.9303 -0.7832
1 8 18 -4.3756 -0.6085
1 8 19 -2.7638 0.1158
1 8 20 -0.4266 0.7842
1 8 21 -8.2408 0.2469
1 8 22 14.9587 -0.2862
1 9 0 16.9650 -1.4633
1 9 1 -26.2343 0.0192
1 9 2 -27.0767 -0.7604
1 9 3 -44.8514 -0.4554
1 9 4 2.4879 -0.6011
1 9 5 -4.2479 0.9949
1 9 6 19.9922 0.6643
1 9 7 -6.7371 -0.0160
1 9 8 8.7903 -1.3755
1 9 9 -12.5783 -0.4112
1 9 10 4.2798 0.4757
1 9 11 -7.2838 1.2043
1 9 12 1.9448 -0.0706
1 9 13 -4.3587 -0.6339
1 9 14 4.3063 -0.8789
1 9 15 -5.7146 0.3257
1 9 16 -7.5472 0.5592
1 9 17 -14.7219 0.5346
1 9 18 -7.3510 -0.4317
1 9 19 1.2190 -0.4057
1 9 20 -3.4417 -0.1846
1 9 21 2.9764 0.3268
1 9 22 2.4226 0.1858
1 10 1 -20.6280 -1.2435
1 10 2 -15.6926 -0.7601
1 10 3 18.3180 0.3028
1 10 4 -2.8161 1.3817
1 10 5 -8.1927 0.7407
1 10 6 -8.4684 -0.7158
1 10 7 6.0248 -1.3735
1 10 8 6.0812 -0.2566
1 10 9 -12.4058 0.9161
1 10 10 -17.1357 1.1252
1 10 11 -0.8268 -0.2717
1 10 12 2.4330 -0.9015
1 10 13 1.4690 -0.5949
1 10 14 -5.0291 0.4783
1 10 15 0.5209 0.7086
1 10 16 0.5245 0.2864
1 10 17 -4.5543 -0.6461
1 10 18 11.5630 -0.5269
1 10 19 2.6580 0.0346
1 10 20 9.8936 0.6094
1 10 21 6.7789 0.2652
1 11 0 5.8325 -1.3314
1 11 1 46.1551 0.1140
1 11 2 -5.7837 -0.6076
1 11 3 10.9526 -0.2478
1 11 4 -21.0228 -0.7893
1 11 5 26.3506 0.9983
1 11 6 10.0687 0.3892
1 11 7 19.8349 0.1833
1 11 8 -14.4062 -1.2931
1 11 9 -1.1698 -0.2127
1 11 10 -9.0418 0.2678
1 11 11 7.0476 1.0623
1 11 12 -1.8200 -0.1202
1 11 13 -0.8944 -0.3990
1 11 14 -3.1458 -0.8156
1 11 15 8.6249 0.3264
1 11 16 3.8196 0.3335
1 11 17 2.2385 0.4810
1 11 18 -3.1179 -0.3962
1 11 19 -4.8339 -0.2082
1 11 20 -3.6111 -0.1760
1 11 21 -3.5055 0.3760
1 12 1 -6.7394 -0.7471
1 12 2 5.5552 -0.4727
1 12 3 4.5618 0.1280
1 12 4 20.2386 0.8360
1 12 5 1.5731 0.5170
1 12 6 -7.4989 -0.3647
1 12 7 -8.9922 -0.8626
1 12 8 -0.4234 -0.1485
1 12 9 0.1473 0.4889
1 12 10 -4.3776 0.6575
1 12 11 -10.6025 -0.1558
1 12 12 8.3674 -0.4306
1 12 13 6.8463 -0.3601
1 12 14 -4.3351 0.3492
1 12 15 -23.0025 0.3523
1 12 16 -15.2206 0.0560
1 12 17 10.7909 -0.2669
1 12 18 -0.3299 -0.2634
1 12 19 10.9173 -0.0803
1 12 20 -3.9274 0.3086
1 12 21 -1.3179 0.2072
1 13 0 61.1927 -0.8841
1 13 1 -0.3982 0.0200
1 13 2 28.0329 -0.3421
1 13 3 -33.5511 0.0275
1 13 4 4.1995 -0.3502
1 13 5 -27.3516 0.4516
1 13 6 14.1569 0.2105
1 13 7 -7.1241 0.1464
1 13 8 15.9250 -0.7885
1 13 9 -9.4763 -0.0536
1 13 10 2.6613 0.1034
1 13 11 -10.3653 0.6410
1 13 12 5.5203 -0.1426
1 13 13 -5.3102 -0.2145
1 13 14 -6.9744 -0.3644
1 13 15 -17.5751 0.1664
1 13 16 -1.4228 0.1021
1 13 17 6.3932 0.2278
1 13 18 6.8117 -0.2200
1 13 19 0.4033 -0.0742
1 13 20 -9.5314 -0.0287
1 13 21 -12.2708 0.1967
1 14 1 -1.4813 -0.4156
1 14 2 1.3576 -0.0182
1 14 3 15.7661 -0.0364
1 14 4 6.0950 0.0235
1 14 5 -6.9421 0.0083
1 14 6 -8.8555 0.1284
1 14 7 2.2214 0.0325
1 14 8 18.2082 -0.0466
1 14 9 12.3683 -0.1517
1 14 10 -1.3996 0.0680
1 14 11 -9.7308 -0.0172
1 14 12 -6.4464 0.1252
1 14 13 7.6137 0.0963
1 14 14 7.3466 -0.0173
1 14 15 -1.9646 -0.0900
1 14 16 -21.9431 -0.0394
1 14 17 -21.2074 0.0228
1 14 18 2.9800 0.0516
1 14 19 2.7511 -0.0956
1 14 20 7.1480 -0.0995
1 15 0 13.1203 -0.2262
1 15 1 21.0544 -0.1672
1 15 2 -23.1879 0.1089
1 15 3 0.7493 0.2378
1 15 4 -5.8376 0.1665
1 15 5 21.9380 -0.0192
1 15 6 -5.3627 -0.1576
1 15 7 8.1799 -0.0437
1 15 8 -7.7712 0.0764
1 15 9 8.2754 0.0065
1 15 10 -7.1357 -0.0123
1 15 11 8.3631 -0.0166
1 15 12 5.7251 -0.0783
1 15 13 7.1161 0.0933
1 15 14 -17.5054 0.0395
1 15 15 -20.4855 -0.0103
1 15 16 -8.4577 -0.0590
1 15 17 16.2464 -0.0867
1 15 18 19.0120 0.0682
1 15 19 9.5342 -0.0412
1 15 20 -4.1850 0.0967
1 16 1 -7.4848 -0.0469
1 16 2 -9.3421 0.2169
1 16 3 -6.0524 -0.2597
1 16 4 5.7412 -0.4478
1 16 5 9.7717 -0.2788
1 16 6 -0.3345 0.2780
1 16 7 4.0263 0.5679
1 16 8 -1.7477 0.1021
1 16 9 0.9959 -0.3986
1 16 10 -8.0704 -0.4430
1 16 11 -2.5826 0.0889
1 16 12 -4.5763 0.4261
1 16 13 1.0093 0.2858
1 16 14 -5.9951 -0.1637
1 16 15 -12.2988 -0.3166
1 16 16 -12.2878 -0.1472
1 16 17 -2.0617 0.2455
1 16 18 4.9588 0.1705
1 16 19 13.2690 -0.0980
1 16 20 3.0640 -0.2714
1 17 0 2.6480 0.1201
1 17 1 -4.1003 0.1086
1 17 2 15.1607 0.3508
1 17 3 2.4715 0.4371
1 17 4 10.5736 0.3266
1 17 5 -9.3678 -0.4585
1 17 6 0.6733 -0.3072
1 17 7 -6.9266 -0.0967
1 17 8 -0.1179 0.5600
1 17 9 -4.2872 0.2013
1 17 10 5.7827 -0.1667
1 17 11 6.1051 -0.5619
1 17 12 2.8033 0.0473
1 17 13 -2.7254 0.2640
1 17 14 3.3325 0.3872
1 17 15 -0.2091 -0.1161
1 17 16 -6.8614 -0.2809
1 17 17 -7.1124 -0.1766
1 17 18 -1.2223 0.1848
1 17 19 2.9994 0.2311
1 18 1 4.4270 0.4179
1 18 2 6.3724 0.5584
1 18 3 7.4189 -0.3359
1 18 4 1.7363 -0.9090
1 18 5 -2.2803 -0.5067
1 18 6 1.2420 0.4312
1 18 7 -6.3027 0.9882
1 18 8 3.1460 0.1433
1 18 9 0.5469 -0.6639
1 18 10 5.7212 -0.7096
1 18 11 1.8596 0.1490
1 18 12 7.1049 0.6602
1 18 13 -5.5180 0.4155
1 18 14 -3.8195 -0.3316
1 18 15 -0.2936 -0.5266
1 18 16 13.6930 -0.1643
1 18 17 5.2371 0.4037
1 18 18 -2.0365 0.3407
1 18 19 -10.2106 -0.0883
1 19 0 -3.8340 0.3725
1 19 1 -12.1312 0.1171
1 19 2 -5.9916 0.6196
1 19 3 -7.1029 0.5081
1 19 4 -0.6598 0.2245
1 19 5 0.3260 -0.6474
1 19 6 1.7043 -0.5023
1 19 7 -2.0924 0.0107
1 19 8 -2.3495 0.8237
1 19 9 -1.8311 0.3067
1 19 10 -1.7580 -0.2871
1 19 11 -6.4909 -0.7698
1 19 12 -7.6636 -0.0178
1 19 13 -5.3291 0.4564
1 19 14 1.7611 0.5517
1 19 15 6.1757 -0.2294
1 19 16 1.5921 -0.3585
1 19 17 -7.0166 -0.2569
1 19 18 -8.1221 0.3114
1 20 1 -8.2369 0.7514
1 20 2 -6.8024 0.8387
1 20 3 -2.3113 -0.2386
1 20 4 -0.7696 -1.2739
1 20 5 -1.6801 -0.6033
1 20 6 -2.9424 0.6034
1 20 7 6.1971 1.2528
1 20 8 2.7770 0.0625
1 20 9 3.6421 -0.8608
1 20 10 3.6362 -0.8824
1 20 11 3.6186 0.2797
1 20 12 -1.1104 0.8497
1 20 13 1.0640 0.4323
1 20 14 -2.3213 -0.4604
1 20 15 1.3314 -0.6353
1 20 16 -7.2752 -0.1367
1 20 17 -0.7172 0.4527
1 20 18 -3.5165 0.4388
1 21 0 -2.1227 0.7247
1 21 1 8.0075 0.1377
1 21 2 -1.6507 0.5459
1 21 3 4.3137 0.5759
1 21 4 -5.3507 0.2795
1 21 5 2.7904 -0.7960
1 21 6 -3.5675 -0.6705
1 21 7 4.7783 0.1438
1 21 8 -0.4858 0.9141
1 21 9 2.6820 0.4067
1 21 10 -2.5537 -0.3796
1 21 11 -1.5706 -0.7881
1 21 12 -3.0099 -0.0376
1 21 13 0.5295 0.5015
1 21 14 1.5185 0.5541
1 21 15 1.1813 -0.2511
1 21 16 -1.3142 -0.4554
1 21 17 -1.5179 -0.1365
1 22 1 2.6359 0.9471
1 22 2 2.2074 0.9528
1 22 3 -1.0687 -0.2815
1 22 4 -1.5618 -1.2536
1 22 5 -4.6934 -0.5750
1 22 6 0.4104 0.7047
1 22 7 0.3449 1.2375
1 22 8 1.5511 -0.0492
1 22 9 -5.9528 -0.9150
1 22 10 -7.5958 -0.7676
1 22 11 -4.7317 0.3460
1 22 12 -0.0390 0.7917
1 22 13 1.7965 0.4120
1 22 14 2.9166 -0.4631
1 22 15 -0.6764 -0.5671
1 22 16 -0.8621 -0.1154
1 22 17 -3.9552 0.4431
1 23 0 6.8831 1.0691
1 23 1 -7.0163 0.1273
1 23 2 10.7261 0.6078
1 23 3 -4.9902 0.4794
1 23 4 5.0937 0.3484
1 23 5 -8.2493 -0.9087
1 23 6 5.7040 -0.5498
1 23 7 -2.5008 0.1264
1 23 8 3.0543 1.0568
1 23 9 -2.8046 0.2728
1 23 10 3.0019 -0.4001
1 23 11 -0.2496 -0.7296
1 23 12 1.3822 0.0274
1 23 13 -3.8084 0.5001
1 23 14 -1.9286 0.4673
1 23 15 -1.4264 -0.1882
1 23 16 0.3381 -0.4314
1 24 1 -0.8803 0.7898
1 24 2 1.3361 0.8906
1 24 3 1.2089 -0.2948
1 24 4 -2.2622 -0.9122
1 24 5 -0.9349 -0.4672
1 24 6 1.5166 0.5985
1 24 7 -0.3519 0.8739
1 24 8 -3.3258 -0.0380
1 24 9 -1.7968 -0.6346
1 24 10 0.0606 -0.5106
1 24 11 0.8424 0.2274
1 24 12 -0.9295 0.5452
1 24 13 -3.2261 0.3101
1 24 14 -0.6030 -0.2548
1 24 15 0.3899 -0.3858
1 25 0 0.5009 1.3160
1 25 1 0.7840 0.0437
1 25 2 -3.8795 0.5556
1 25 3 -2.1460 0.2875
1 25 4 -2.8343 0.4073
1 25 5 -1.1937 -0.7456
1 25 6 -6.7955 -0.2873
1 25 7 -3.4569 0.0169
1 25 8 -3.0336 0.9301
1 25 9 2.5746 0.1394
1 25 10 -2.8489 -0.3412
1 25 11 0.8958 -0.6740
1 25 12 -1.8300 0.1952
1 25 13 4.5200 0.4422
1 25 14 0.7447 0.4450
1 25 15 1.1466 -0.2029
1 26 1 5.5509 0.3581
1 26 2 3.9906 0.5790
1 26 3 -0.8485 -0.1312
1 26 4 -1.7914 -0.5080
1 26 5 1.4441 -0.3030
1 26 6 1.5558 0.2441
1 26 7 2.2319 0.5706
1 26 8 -0.0895 0.0472
1 26 9 1.0735 -0.3183
1 26 10 0.3993 -0.3184
1 26 11 -0.3241 0.1258
1 26 12 0.7133 0.3058
1 26 13 4.2380 0.1412
1 26 14 0.4426 -0.0549
1 27 0 2.2754 1.0771
1 27 1 -1.0787 0.1579
1 27 2 3.0228 0.2797
1 27 3 0.4289 -0.0077
1 27 4 3.2749 0.4559
1 27 5 -0.6563 -0.3831
1 27 6 1.1676 -0.1847
1 27 7 -2.1035 0.0227
1 27 8 -0.0563 0.5826
1 27 9 -0.8974 0.0497
1 27 10 1.4132 -0.2250
1 27 11 -1.7703 -0.5773
1 27 12 1.1130 0.2643
1 27 13 2.4201 0.4155
1 28 1 1.1865 -0.0686
1 28 2 -1.6916 0.2287
1 28 3 -0.3112 0.0279
1 28 4 1.0096 -0.0865
1 28 5 2.7940 -0.1196
1 28 6 3.1275 -0.0756
1 28 7 0.0065 0.2028
1 28 8 -0.2655 0.0874
1 28 9 -1.8914 0.0830
1 28 10 1.7604 -0.1268
1 28 11 3.9655 -0.0814
1 28 12 4.7692 -0.0094
1 29 0 1.2767 0.9704
1 29 1 -1.6572 0.0607
1 29 2 -2.7160 -0.2301
1 29 3 -0.8978 -0.0285
1 29 4 2.2151 0.2393
1 29 5 2.0261 0.0355
1 29 6 0.1612 -0.1591
1 29 7 1.4572 -0.0327
1 29 8 0.6859 0.3296
1 29 9 -1.1015 -0.0737
1 29 10 -1.4074 -0.2029
1 29 11 1.5356 -0.0403
1 30 1 1.0123 -0.3580
1 30 2 5.7331 -0.0129
1 30 3 -1.9509 0.1639
1 30 4 -0.3638 0.1682
1 30 5 -0.1190 0.1356
1 30 6 2.2893 -0.2425
1 30 7 0.7304 -0.1579
1 30 8 0.6033 -0.0188
1 30 9 3.8025 0.3517
1 30 10 1.3748 0.1480
1 31 0 -1.4261 0.6788
1 31 1 0.4580 0.1342
1 31 2 1.0075 -0.6747
1 31 3 0.1707 -0.2918
1 31 4 0.8389 0.1396
1 31 5 -1.2485 0.2008
1 31 6 1.7074 0.2013
1 31 7 -0.8197 -0.1412
1 31 8 0.6105 -0.1937
1 32 1 -4.6531 -0.5895
1 32 2 -13.1825 -0.1789
1 32 3 -3.3037 0.2406
1 32 4 -2.5289 0.5355
1 32 5 0.3742 0.3083
1 32 6 -1.6010 -0.3306
1 33 0 -6.7672 0.2706
1 33 1 -7.2711 -0.1888
1 33 2 -0.7089 -0.2806
1 33 3 -0.0403 -0.8541
1 33 4 0.3347 -0.1075
2 0 0 21.9795 1.2359
2 0 1 -15.7511 0.9428
2 0 2 -82.1193 0.0837
2 0 3 -97.1021 -0.2524
2 0 4 37.6785 0.4243
2 0 5 67.0558 0.1303
2 0 6 -54.5803 -0.1943
2 0 7 -57.7873 0.0827
2 0 8 -24.1663 -0.0118
2 0 9 36.2464 -0.3202
2 0 10 23.4862 0.2889
2 0 11 3.9246 0.0697
2 0 12 6.4280 0.0618
2 0 13 4.5286 0.0003
2 0 14 7.9635 -0.2327
2 0 15 31.7533 -0.0788
2 0 16 -17.7057 0.2725
2 0 17 -39.6142 -0.0093
2 0 18 -37.9033 0.0518
2 0 19 -23.8230 0.0347
2 0 20 18.4646 -0.1240
2 0 21 -3.2320 -0.0196
2 0 22 -8.3016 0.1348
2 1 1 -52.8664 -4.5936
2 1 2 -67.7202 -0.5097
2 1 3 -31.3194 0.8079
2 1 4 25.9762 1.9179
2 1 5 71.7650 1.5800
2 1 6 52.9081 -1.6137
2 1 7 8.8411 -2.1326
2 1 8 -16.4617 0.3373
2 1 9 -4.1010 1.0714
2 1 10 -2.6891 1.1415
2 1 11 -9.2304 0.3928
2 1 12 -8.7745 -1.5215
2 1 13 -5.2730 -0.7022
2 1 14 -8.2749 0.5692
2 1 15 -7.5689 0.9736
2 1 16 -0.0024 0.3167
2 1 17 13.8049 -0.3093
2 1 18 22.0651 -0.9017
2 1 19 40.8883 0.0317
2 1 20 17.5581 0.6305
2 1 21 6.3695 0.5495
2 1 22 -18.9824 -0.0322
2 2 0 -44.6816 0.1157
2 2 1 -15.0107 -0.0354
2 2 2 8.0232 0.4642
2 2 3 52.4212 -0.6535
2 2 4 -39.6013 0.7800
2 2 5 -57.0987 0.0988
2 2 6 -34.7883 1.0551
2 2 7 -22.6057 -1.1014
2 2 8 -2.1792 -0.0947
2 2 9 26.3715 -0.5559
2 2 10 22.3731 0.7508
2 2 11 10.5123 0.0578
2 2 12 -4.7391 0.5266
2 2 13 4.0908 -0.8139
2 2 14 13.4418 0.0587
2 2 15 -21.8699 -0.2223
2 2 16 0.9582 0.4457
2 2 17 -1.6729 0.1358
2 2 18 25.4751 0.1444
2 2 19 21.7243 -0.4714
2 2 20 -24.3229 0.1081
2 2 21 -31.1416 -0.1426
2 2 22 -10.8014 0.1329
2 3 1 63.0678 -1.1409
2 3 2 82.9420 -0.3952
2 3 3 35.8793 0.3303
2 3 4 -13.0648 0.4473
2 3 5 -72.0742 -0.1381
2 3 6 -50.4715 0.3426
2 3 7 -22.7501 0.0895
2 3 8 1.6706 -0.9968
2 3 9 -8.4423 0.4102
2 3 10 9.7437 0.4047
2 3 11 11.5510 -0.0844
2 3 12 -5.6099 0.0597
2 3 13 -10.5195 -0.1259
2 3 14 3.2290 -0.2615
2 3 15 5.3033 0.4021
2 3 16 -14.1442 0.1607
2 3 17 -12.9877 -0.0373
2 3 18 1.7816 -0.1439
2 3 19 -7.6313 -0.0497
2 3 20 10.0551 0.0783
2 3 21 -15.4248 0.2180
2 3 22 0.1932 0.0763
2 4 0 51.9057 0.7523
2 4 1 15.0504 -0.4257
2 4 2 5.1960 -0.1117
2 4 3 19.9225 -0.0427
2 4 4 34.0932 0.4541
2 4 5 10.0333 -0.0476
2 4 6 -55.8774 0.2754
2 4 7 -3.6501 -0.3580
2 4 8 2.8278 0.3074
2 4 9 16.8948 -0.1745
2 4 10 6.2134 0.0710
2 4 11 -0.4676 -0.4357
2 4 12 -4.9462 0.1319
2 4 13 -19.7325 0.1979
2 4 14 -12.5886 0.3230
2 4 15 -1.3681 -0.2563
2 4 16 11.4168 -0.0125
2 4 17 16.9095 -0.2839
2 4 18 0.9404 0.2884
2 4 19 -18.5889 0.1309
2 4 20 11.2230 0.0233
2 4 21 19.2021 -0.1884
2 4 22 20.9200 -0.1423
2 5 1 44.8422 -0.7224
2 5 2 36.8872 0.2006
2 5 3 11.7139 0.1608
2 5 4 -35.2604 0.1440
2 5 5 -14.5432 0.3985
2 5 6 -15.7163 -0.3211
2 5 7 1.1079 -0.5592
2 5 8 -5.5265 -0.0101
2 5 9 2.6003 0.4324
2 5 10 -11.1312 0.3823
2 5 11 -5.0727 0.0753
2 5 12 5.9756 -0.7447
2 5 13 -2.4393 -0.1973
2 5 14 -12.2241 0.4053
2 5 15 -27.8963 0.3324
2 5 16 2.4408 0.1056
2 5 17 -9.5278 -0.1698
2 5 18 4.4005 -0.3076
2 5 19 -9.0389 0.0836
2 5 20 -1.6425 0.2638
2 5 21 11.1893 0.0669
2 5 22 12.4424 -0.1335
2 6 0 -35.6000 0.3540
2 6 1 7.3354 -0.0612
2 6 2 -1.8544 -0.1990
2 6 3 -7.4253 -0.4336
2 6 4 -3.1268 0.0318
2 6 5 10.7379 0.0646
2 6 6 1.4767 0.0387
2 6 7 -17.6904 0.2264
2 6 8 -0.7686 0.1123
2 6 9 20.5531 -0.1480
2 6 10 4.2548 -0.0949
2 6 11 -7.4540 -0.2931
2 6 12 -6.9114 0.0221
2 6 13 0.7892 0.1330
2 6 14 -3.5176 0.3234
2 6 15 -0.2094 -0.0097
2 6 16 5.0612 -0.1326
2 6 17 6.5712 -0.1525
2 6 18 23.2494 0.0519
2 6 19 12.1073 0.0707
2 6 20 -5.5783 0.1863
2 6 21 -1.9980 -0.0460
2 6 22 12.6185 -0.0649
2 7 1 -92.8316 -0.5715
2 7 2 -79.0478 0.3698
2 7 3 -17.4733 0.2668
2 7 4 33.2580 0.0225
2 7 5 12.6677 -0.0204
2 7 6 10.6798 -0.2400
2 7 7 4.1443 -0.0484
2 7 8 8.8822 -0.1057
2 7 9 -2.9695 0.2776
2 7 10 6.6844 0.1689
2 7 11 7.2416 -0.0610
2 7 12 9.7410 -0.2261
2 7 13 5.3116 -0.0996
2 7 14 -2.1966 0.0329
2 7 15 15.8539 0.3035
2 7 16 2.8221 0.0011
2 7 17 12.5304 -0.1121
2 7 18 -23.4764 -0.0789
2 7 19 -3.7318 0.0861
2 7 20 -14.9521 0.1078
2 7 21 8.9507 -0.0022
2 7 22 5.7778 -0.0248
2 8 0 2.9772 0.0957
2 8 1 -16.4902 -0.2510
2 8 2 -23.9216 -0.2015
2 8 3 20.5736 -0.3515
2 8 4 -1.0580 -0.1722
2 8 5 10.3305 -0.0822
2 8 6 -6.3753 0.1672
2 8 7 25.3422 0.0591
2 8 8 6.7994 0.1226
2 8 9 0.1134 0.0720
2 8 10 -12.4999 -0.2116
2 8 11 -6.9517 -0.1595
2 8 12 -6.6050 -0.0176
2 8 13 -5.5962 0.0760
2 8 14 13.5535 0.1660
2 8 15 10.1020 0.0297
2 8 16 11.9180 -0.0297
2 8 17 3.4585 -0.0957
2 8 18 12.7959 0.0586
2 8 19 14.9866 0.0526
2 8 20 14.1127 0.0094
2 8 21 -10.1779 0.0100
2 8 22 -14.3525 0.1231
2 9 1 2.3444 -0.1760
2 9 2 0.6859 0.3798
2 9 3 -3.7600 0.0080
2 9 4 1.7080 -0.3214
2 9 5 7.1113 -0.4231
2 9 6 12.1881 0.2588
2 9 7 10.6526 0.6433
2 9 8 6.0362 -0.0525
2 9 9 0.4225 -0.3577
2 9 10 -0.6003 -0.3326
2 9 11 7.8485 0.1023
2 9 12 8.1988 0.3754
2 9 13 -0.3948 0.1540
2 9 14 2.3998 -0.1538
2 9 15 3.7177 -0.2501
2 9 16 15.0561 -0.1125
2 9 17 9.6639 0.2108
2 9 18 5.8184 0.1750
2 9 19 -19.0140 0.0666
2 9 20 -5.7111 -0.1169
2 9 21 -8.2892 -0.1401
2 9 22 6.5109 0.2371
2 10 0 -21.9208 0.0114
2 10 1 0.8482 0.1085
2 10 2 7.9268 -0.5576
2 10 3 11.9038 -0.2568
2 10 4 13.7082 -0.2879
2 10 5 8.8895 0.1525
2 10 6 -3.5597 0.1783
2 10 7 -3.5522 -0.0078
2 10 8 -10.2455 -0.1916
2 10 9 -12.9873 0.0300
2 10 10 -2.9547 0.1251
2 10 11 -0.8397 0.1622
2 10 12 1.4433 -0.2095
2 10 13 -1.0184 -0.0915
2 10 14 1.9170 -0.1162
2 10 15 -1.7278 0.1640
2 10 16 2.3573 0.1219
2 10 17 -4.4064 0.1119
2 10 18 -15.7479 -0.1212
2 10 19 -26.3307 -0.1833
2 10 20 -27.1646 0.0170
2 10 21 -14.4102 0.1254
2 11 1 5.6005 -0.0518
2 11 2 -8.7582 0.7218
2 11 3 -8.3694 -0.2015
2 11 4 -4.2589 -1.0155
2 11 5 10.6082 -0.6594
2 11 6 0.0462 0.7439
2 11 7 -2.4665 1.2814
2 11 8 -5.9364 0.1328
2 11 9 6.8552 -1.0359
2 11 10 5.3555 -0.8142
2 11 11 3.6387 0.2112
2 11 12 -0.6520 0.9176
2 11 13 15.6623 0.4670
2 11 14 11.9683 -0.3467
2 11 15 1.0469 -0.7463
2 11 16 4.0836 -0.2016
2 11 17 5.0035 0.4545
2 11 18 14.7507 0.4945
2 11 19 2.6856 -0.0532
2 11 20 -5.4912 -0.2947
2 11 21 -7.7879 -0.1648
2 12 0 19.1665 -0.3975
2 12 1 20.5138 0.3839
2 12 2 12.5062 -0.6873
2 12 3 8.9951 -0.1297
2 12 4 -12.8969 -0.3809
2 12 5 -15.3532 0.5143
2 12 6 -11.0482 -0.1374
2 12 7 -0.3650 0.1692
2 12 8 -1.7174 -0.4674
2 12 9 5.9556 0.0749
2 12 10 -1.5328 0.1299
2 12 11 -2.6108 0.4217
2 12 12 -5.2149 -0.2105
2 12 13 -8.7099 -0.1161
2 12 14 -7.5290 -0.3882
2 12 15 3.1466 0.2424
2 12 16 1.8654 0.1096
2 12 17 -6.1684 0.2293
2 12 18 -3.1992 -0.1895
2 12 19 -19.6228 -0.0708
2 12 20 -13.5329 -0.2575
2 12 21 -13.8152 0.0953
2 13 1 -6.7222 0.5987
2 13 2 5.2307 0.8345
2 13 3 7.9126 -0.4840
2 13 4 0.6079 -1.4153
2 13 5 -9.2844 -0.7280
2 13 6 -11.1048 0.9894
2 13 7 -10.6725 1.5333
2 13 8 -5.4401 0.2914
2 13 9 -2.3545 -1.3050
2 13 10 -1.3582 -1.0542
2 13 11 -3.7673 0.1188
2 13 12 0.2815 1.2490
2 13 13 -9.3086 0.5774
2 13 14 1.1572 -0.3630
2 13 15 5.5765 -0.9656
2 13 16 -3.8467 -0.2433
2 13 17 -8.2713 0.5214
2 13 18 -4.6089 0.6308
2 13 19 10.1925 -0.0746
2 13 20 2.2397 -0.4697
2 13 21 -1.6347 -0.3487
2 14 0 4.0093 -0.8120
2 14 1 -0.3980 0.4062
2 14 2 2.8521 -0.8560
2 14 3 -2.2277 0.2443
2 14 4 -3.9042 -0.6745
2 14 5 -0.2060 0.6025
2 14 6 -5.5290 -0.2595
2 14 7 -1.1815 0.3845
2 14 8 -1.7000 -0.6575
2 14 9 -9.1885 0.3160
2 14 10 0.1421 -0.3189
2 14 11 10.0806 0.6642
2 14 12 6.2852 -0.2128
2 14 13 -2.6987 0.0146
2 14 14 0.0163 -0.4775
2 14 15 -6.9067 0.3098
2 14 16 -3.3769 -0.0971
2 14 17 -9.7515 0.3273
2 14 18 -8.8742 -0.2851
2 14 19 -1.2592 0.0486
2 14 20 -1.0090 -0.2207
2 15 1 18.9916 0.4928
2 15 2 13.4783 0.9628
2 15 3 0.1879 -0.4254
2 15 4 -0.9067 -1.3728
2 15 5 -3.6044 -0.7998
2 15 6 1.3263 0.9537
2 15 7 -3.8893 1.4939
2 15 8 0.2189 0.2197
2 15 9 -5.9677 -1.1593
2 15 10 3.8652 -0.9439
2 15 11 -2.9713 0.0246
2 15 12 -2.9177 1.1508
2 15 13 -2.3751 0.5348
2 15 14 -1.4171 -0.2588
2 15 15 -3.8054 -0.9372
2 15 16 -2.4679 -0.2189
2 15 17 0.4283 0.4592
2 15 18 -2.9384 0.6647
2 15 19 -3.7076 -0.0624
2 15 20 1.8487 -0.5890
2 16 0 9.6567 -0.9940
2 16 1 12.1850 0.0657
2 16 2 5.8867 -0.9230
2 16 3 8.8141 0.2721
2 16 4 -4.2969 -0.6361
2 16 5 -12.6999 0.6713
2 16 6 -3.1284 -0.4171
2 16 7 9.1890 0.4273
2 16 8 6.2813 -0.6980
2 16 9 5.6778 0.3084
2 16 10 -2.6379 -0.2632
2 16 11 -3.5024 0.5897
2 16 12 -3.9122 -0.3280
2 16 13 -4.4769 0.2585
2 16 14 -8.4063 -0.5678
2 16 15 2.9403 0.2602
2 16 16 7.5958 -0.0482
2 16 17 10.9745 0.2869
2 16 18 4.4475 -0.2676
2 16 19 -1.7654 -0.0036
2 16 20 -0.9662 -0.1463
2 17 1 -6.5608 0.4148
2 17 2 -5.2633 0.9117
2 17 3 -0.1722 -0.2841
2 17 4 0.1555 -1.1284
2 17 5 6.9399 -0.6812
2 17 6 -0.0870 0.7385
2 17 7 5.5174 1.1970
2 17 8 -3.5183 0.2079
2 17 9 5.7984 -0.9710
2 17 10 -5.5208 -0.7151
2 17 11 5.6302 0.0384
2 17 12 1.0370 0.9227
2 17 13 6.1746 0.4430
2 17 14 -5.3390 -0.3111
2 17 15 -0.2125 -0.7066
2 17 16 -3.0846 -0.1868
2 17 17 0.5126 0.4562
2 17 18 -2.7905 0.4760
2 17 19 1.9206 -0.0506
2 18 0 -6.0161 -1.1213
2 18 1 -7.9587 0.0375
2 18 2 -3.3135 -0.7959
2 18 3 -3.6119 0.1085
2 18 4 1.6033 -0.4835
2 18 5 1.1807 0.4618
2 18 6 -0.1019 -0.1776
2 18 7 4.2577 0.2119
2 18 8 4.9758 -0.5807
2 18 9 -5.1069 0.2157
2 18 10 0.4756 -0.1454
2 18 11 4.5891 0.4759
2 18 12 4.6649 -0.2569
2 18 13 -4.5406 0.0780
2 18 14 -8.5396 -0.3587
2 18 15 -8.8029 0.1639
2 18 16 -0.8927 -0.1028
2 18 17 -0.1883 0.2604
2 18 18 6.1031 -0.1151
2 18 19 0.1820 -0.0287
2 19 1 -5.5523 0.0986
2 19 2 -2.7401 0.7804
2 19 3 4.0847 -0.1742
2 19 4 7.9685 -0.7358
2 19 5 0.6342 -0.3782
2 19 6 3.2817 0.4824
2 19 7 -0.9126 0.7235
2 19 8 2.7449 0.0549
2 19 9 -4.7823 -0.5372
2 19 10 -1.4385 -0.4222
2 19 11 -2.9572 -0.0225
2 19 12 1.7780 0.5838
2 19 13 -1.2948 0.3199
2 19 14 7.0044 -0.1557
2 19 15 -3.6992 -0.5741
2 19 16 -0.8650 -0.1432
2 19 17 -6.5630 0.3950
2 19 18 5.5856 0.2566
2 20 0 1.5297 -0.9032
2 20 1 -2.7942 0.1357
2 20 2 -7.8973 -0.5492
2 20 3 -2.7161 0.1884
2 20 4 -1.6374 -0.3934
2 20 5 -0.8094 0.2793
2 20 6 -2.6583 -0.1513
2 20 7 -0.5485 0.1630
2 20 8 -0.1045 -0.3356
2 20 9 2.4385 0.1315
2 20 10 -4.2237 -0.0656
2 20 11 0.3253 0.2473
2 20 12 0.8279 -0.1890
2 20 13 3.2487 0.0494
2 20 14 3.1985 -0.2404
2 20 15 3.1758 0.1030
2 20 16 0.0166 -0.1427
2 20 17 0.0335 0.1783
2 20 18 -2.1220 -0.0687
2 21 1 -1.4680 -0.2602
2 21 2 -3.2092 0.4705
2 21 3 -0.1598 -0.0183
2 21 4 -4.3471 -0.2148
2 21 5 0.3544 -0.1019
2 21 6 -2.6941 0.2212
2 21 7 5.7150 0.2881
2 21 8 3.0748 -0.1196
2 21 9 1.1187 -0.1932
2 21 10 -0.8360 -0.1195
2 21 11 -2.4462 0.0311
2 21 12 -0.1119 0.2015
2 21 13 -0.5979 0.1274
2 21 14 -3.8409 -0.0357
2 21 15 3.1459 -0.1941
2 21 16 0.2117 -0.1418
2 21 17 3.4872 0.0668
2 22 0 10.5753 -0.5373
2 22 1 6.6838 0.2002
2 22 2 8.4667 -0.3043
2 22 3 -1.6919 0.4525
2 22 4 -3.0809 -0.2308
2 22 5 -6.7491 0.2072
2 22 6 -1.4737 -0.4042
2 22 7 2.4042 0.2478
2 22 8 3.4221 -0.1378
2 22 9 -2.8239 0.2717
2 22 10 -1.6606 -0.2187
2 22 11 -0.3511 0.1135
2 22 12 3.8194 -0.2542
2 22 13 3.7816 0.2031
2 22 14 -1.2085 -0.1279
2 22 15 -0.4288 0.1204
2 22 16 1.3273 -0.2755
2 22 17 0.6260 0.0636
2 23 1 -2.0376 -0.6840
2 23 2 1.3305 0.2887
2 23 3 2.0720 0.1810
2 23 4 2.5838 0.1638
2 23 5 -5.5834 0.2242
2 23 6 -3.7586 -0.0667
2 23 7 -4.2027 -0.1968
2 23 8 2.3814 -0.2488
2 23 9 2.5902 0.1521
2 23 10 0.8966 0.2545
2 23 11 0.4752 -0.0835
2 23 12 -1.0982 -0.1120
2 23 13 -1.8161 0.0071
2 23 14 -4.6783 0.1186
2 23 15 -5.7213 0.0253
2 23 16 -2.2167 -0.0507
2 24 0 0.4314 -0.2978
2 24 1 3.1737 0.3140
2 24 2 -0.8793 -0.0085
2 24 3 4.9114 0.5775
2 24 4 0.2429 -0.1364
2 24 5 0.8508 0.0848
2 24 6 2.9181 -0.3946
2 24 7 4.5041 0.2256
2 24 8 0.1157 -0.0520
2 24 9 -4.6064 0.3958
2 24 10 -2.6508 -0.3303
2 24 11 1.8519 -0.0180
2 24 12 2.9112 -0.2460
2 24 13 1.3734 0.3396
2 24 14 1.1051 -0.0101
2 24 15 -0.4124 0.1219
2 25 1 4.2294 -1.0403
2 25 2 3.7300 0.2143
2 25 3 0.2793 0.3138
2 25 4 0.4453 0.4749
2 25 5 0.4595 0.3373
2 25 6 0.2139 -0.2440
2 25 7 -1.0467 -0.5276
2 25 8 0.0325 -0.3783
2 25 9 0.0168 0.3963
2 25 10 0.0555 0.4968
2 25 11 -0.4258 -0.0802
2 25 12 1.7145 -0.3439
2 25 13 2.1538 -0.1388
2 25 14 0.0406 0.1351
2 25 15 -2.3021 0.2890
2 26 0 4.7302 0.1305
2 26 1 1.7081 0.2458
2 26 2 4.1785 0.2252
2 26 3 -0.4932 0.3016
2 26 4 2.2537 0.0680
2 26 5 0.6569 0.0155
2 26 6 2.3069 -0.2966
2 26 7 0.9748 0.0909
2 26 8 1.8225 0.0969
2 26 9 1.1892 0.1772
2 26 10 4.4841 -0.1840
2 26 11 3.8161 -0.0719
2 26 12 1.8708 -0.1480
2 26 13 -1.0753 0.2554
2 26 14 -0.6556 0.1138
2 27 1 3.5246 -0.9508
2 27 2 4.0328 0.1347
2 27 3 3.5110 0.2397
2 27 4 1.7089 0.6473
2 27 5 3.3604 0.4270
2 27 6 0.1936 -0.4330
2 27 7 0.7470 -0.7017
2 27 8 -2.6578 -0.3134
2 27 9 -0.4442 0.5839
2 27 10 -1.3168 0.4898
2 27 11 -0.4830 -0.1403
2 27 12 -0.1818 -0.4846
2 27 13 0.6033 -0.2788
2 28 0 -3.6174 0.4632
2 28 1 -0.1174 0.0858
2 28 2 0.3038 0.3241
2 28 3 3.5706 -0.0743
2 28 4 0.1787 0.2255
2 28 5 -0.2910 -0.1982
2 28 6 0.0576 0.1530
2 28 7 1.0008 -0.1122
2 28 8 1.7238 0.0904
2 28 9 -1.1228 -0.0075
2 28 10 1.5145 -0.0611
2 28 11 3.4903 -0.0631
2 28 12 4.3208 0.0759
2 29 1 -1.6599 -1.2305
2 29 2 -1.5866 0.1912
2 29 3 1.5973 0.4176
2 29 4 -1.1666 0.7335
2 29 5 -2.1601 0.2512
2 29 6 0.3268 -0.4744
2 29 7 1.5798 -0.8203
2 29 8 4.0572 -0.2955
2 29 9 0.4558 0.7786
2 29 10 1.7619 0.7774
2 29 11 -3.0970 -0.2008
2 30 0 4.6901 0.5533
2 30 1 2.6119 -0.1508
2 30 2 0.6058 0.2253
2 30 3 -0.0823 -0.1087
2 30 4 -0.2396 0.2961
2 30 5 -2.2280 -0.1651
2 30 6 0.0778 0.1348
2 30 7 -0.2933 -0.1170
2 30 8 1.0044 0.2403
2 30 9 0.3491 -0.2090
2 30 10 2.1099 0.1506
2 31 1 -1.7470 -1.1150
2 31 2 -0.1374 0.0835
2 31 3 -3.8617 0.4396
2 31 4 0.6972 0.7535
2 31 5 -1.5713 0.2502
2 31 6 0.7824 -0.5420
2 31 7 0.5001 -0.7325
2 31 8 -0.8311 -0.3601
2 32 0 -0.0610 0.6180
2 32 1 -2.6154 -0.2049
2 32 2 -6.1594 0.1018
2 32 3 -6.4919 -0.1168
2 32 4 -2.6666 0.2560
2 32 5 -1.0417 -0.0378
2 32 6 -1.5911 0.3496
2 33 1 1.7391 -0.9392
2 33 2 -0.9713 -0.0545
2 33 3 -0.1144 0.3193
3 1 0 25.3198 0.0505
3 1 1 -55.2136 1.0646
3 1 2 220.6221 -0.7854
3 1 3 72.6212 -0.6915
3 1 4 23.5596 -1.7473
3 1 5 -171.3247 2.5657
3 1 6 -21.0179 0.6625
3 1 7 9.5819 0.2570
3 1 8 32.5701 -2.7923
3 1 9 -6.9207 0.3683
3 1 10 32.1063 0.4641
3 1 11 -4.7183 1.8335
3 1 12 -0.3186 -0.8231
3 1 13 -11.8702 -0.4744
3 1 14 0.0689 -1.3200
3 1 15 -19.7105 0.9308
3 1 16 -16.6191 0.4486
3 1 17 15.6021 0.7571
3 1 18 10.4453 -0.9204
3 1 19 -36.5399 -0.4176
3 1 20 -42.4443 -0.2833
3 1 21 -40.7609 0.9315
3 1 22 -7.0671 0.0433
3 2 1 -75.8009 0.9647
3 2 2 -90.8477 0.5670
3 2 3 -16.1222 -0.4735
3 2 4 76.9945 -1.6689
3 2 5 113.8263 -0.6610
3 2 6 78.0069 1.2143
3 2 7 58.6719 1.4993
3 2 8 12.0801 0.0837
3 2 9 -5.4360 -1.4409
3 2 10 5.0349 -0.9263
3 2 11 6.4392 0.3237
3 2 12 -4.9411 1.1110
3 2 13 -32.9334 0.5704
3 2 14 -3.5220 -0.7059
3 2 15 -16.0763 -0.8938
3 2 16 -14.9431 0.0564
3 2 17 10.6858 0.4920
3 2 18 35.2347 0.4599
3 2 19 16.9468 0.0948
3 2 20 -20.5594 -0.6015
3 2 21 8.5038 -0.2158
3 2 22 17.4112 0.1513
3 3 0 94.6031 0.1888
3 3 1 183.7516 0.9585
3 3 2 -29.2992 -1.0304
3 3 3 45.2160 -0.6730
3 3 4 -35.4664 -0.4323
3 3 5 33.4599 1.2998
3 3 6 -67.7307 0.5526
3 3 7 -26.2233 0.0476
3 3 8 -12.3189 -1.5870
3 3 9 27.6150 -0.1647
3 3 10 -1.8394 0.5107
3 3 11 19.9252 1.0717
3 3 12 -9.9787 -0.2408
3 3 13 -5.2286 -0.5129
3 3 14 -19.0885 -0.7792
3 3 15 -5.3942 0.2894
3 3 16 0.8501 0.4773
3 3 17 -9.3540 0.6181
3 3 18 -20.4527 -0.4665
3 3 19 -16.3793 -0.4239
3 3 20 -0.6170 -0.1912
3 3 21 40.4349 0.3289
3 3 22 32.1539 0.2853
3 4 1 -0.4130 1.6746
3 4 2 4.0878 0.8551
3 4 3 -8.1446 -0.8133
3 4 4 -5.5973 -1.4697
3 4 5 -16.3202 -0.7464
3 4 6 -10.9483 0.7758
3 4 7 -40.4489 1.4068
3 4 8 0.4301 0.1768
3 4 9 24.8966 -0.9748
3 4 10 15.8750 -0.9642
3 4 11 9.3401 0.3009
3 4 12 9.2982 0.9367
3 4 13 36.9764 0.3063
3 4 14 -12.4263 -0.4913
3 4 15 0.4278 -0.6785
3 4 16 -4.6564 -0.2220
3 4 17 7.4179 0.7067
3 4 18 -3.9844 0.4318
3 4 19 25.0975 -0.1721
3 4 20 31.0542 -0.4154
3 4 21 0.9213 -0.1879
3 4 22 1.1733 0.0122
3 5 0 24.6611 -0.2163
3 5 1 -29.5261 -0.0400
3 5 2 78.1816 0.3822
3 5 3 -7.1053 -0.4142
3 5 4 16.5757 0.2390
3 5 5 -15.8000 -0.2061
3 5 6 22.0645 0.6479
3 5 7 -12.5416 -0.5019
3 5 8 2.7373 0.2339
3 5 9 4.1761 -0.5665
3 5 10 13.0116 0.3415
3 5 11 -13.8602 -0.0549
3 5 12 15.7849 0.3032
3 5 13 11.7763 -0.3411
3 5 14 10.2479 0.1413
3 5 15 2.6323 -0.2703
3 5 16 8.0820 0.2453
3 5 17 8.4992 -0.0813
3 5 18 5.3715 0.2760
3 5 19 14.4719 -0.0916
3 5 20 21.5049 0.0218
3 5 21 8.4252 -0.2711
3 5 22 10.9838 0.0434
3 6 1 -42.0834 0.7170
3 6 2 -25.0261 0.2755
3 6 3 30.4314 -0.0862
3 6 4 11.8330 -1.1758
3 6 5 -18.6657 -0.6770
3 6 6 -41.2598 0.5930
3 6 7 -0.4459 0.8857
3 6 8 0.9070 0.1378
3 6 9 -9.9618 -0.6775
3 6 10 -18.5638 -0.6237
3 6 11 -16.7496 0.3437
3 6 12 -6.4469 0.5691
3 6 13 -21.8212 0.2315
3 6 14 14.1362 -0.5018
3 6 15 3.7028 -0.5835
3 6 16 20.0892 0.0645
3 6 17 -17.0896 0.4253
3 6 18 -3.9783 0.3486
3 6 19 -41.9184 0.0061
3 6 20 -12.4862 -0.5270
3 6 21 1.6083 -0.1228
3 6 22 10.9696 0.2034
3 7 0 -122.0992 -0.2159
3 7 1 -93.7422 0.0131
3 7 2 -51.2096 0.6234
3 7 3 17.3911 -0.2732
3 7 4 32.8657 -0.1244
3 7 5 9.5940 0.1811
3 7 6 -11.8776 0.6112
3 7 7 1.8708 -0.1971
3 7 8 0.8324 -0.4221
3 7 9 9.3358 -0.3718
3 7 10 2.0133 0.4035
3 7 11 9.1233 0.2244
3 7 12 -12.0795 0.1840
3 7 13 -1.3553 -0.4118
3 7 14 2.8651 -0.1552
3 7 15 11.2232 0.1035
3 7 16 3.3744 0.3515
3 7 17 5.4576 -0.0586
3 7 18 2.7929 0.0214
3 7 19 -0.5520 -0.1544
3 7 20 8.4781 0.0612
3 7 21 10.4327 0.0338
3 7 22 -4.7572 0.0450
3 8 1 0.7465 0.3466
3 8 2 -3.3768 0.0829
3 8 3 -14.0164 -0.3886
3 8 4 11.3533 -1.0185
3 8 5 -3.5631 -0.3718
3 8 6 -16.3680 0.6601
3 8 7 -14.3084 1.0598
3 8 8 6.4600 -0.1256
3 8 9 3.1309 -0.9031
3 8 10 -13.4632 -0.6887
3 8 11 -16.0829 0.4672
3 8 12 0.7098 0.7466
3 8 13 14.9009 0.2990
3 8 14 -5.5835 -0.5435
3 8 15 -11.7609 -0.6442
3 8 16 -19.4368 -0.1408
3 8 17 17.7097 0.5186
3 8 18 4.4226 0.4691
3 8 19 31.3439 -0.0877
3 8 20 1.4122 -0.3705
3 8 21 5.1071 -0.1311
3 8 22 -10.7262 0.1426
3 9 0 -13.5181 -0.4292
3 9 1 -12.4636 -0.0624
3 9 2 -10.7072 0.3349
3 9 3 1.8529 -0.2245
3 9 4 7.1369 0.0583
3 9 5 18.6877 0.3745
3 9 6 6.8103 0.5033
3 9 7 -5.1615 -0.0975
3 9 8 -5.5660 -0.5961
3 9 9 -2.9082 -0.3620
3 9 10 -0.2539 0.4170
3 9 11 -6.3998 0.4130
3 9 12 -9.1494 0.0082
3 9 13 -0.8147 -0.4060
3 9 14 4.8936 -0.0766
3 9 15 5.5553 0.0591
3 9 16 0.9262 0.3369
3 9 17 -6.7160 0.0809
3 9 18 -2.3603 -0.1177
3 9 19 5.3215 -0.1647
3 9 20 5.2327 0.0248
3 9 21 -2.1718 0.0245
3 10 1 -4.3284 0.3789
3 10 2 3.3969 0.1673
3 10 3 27.3549 -0.3176
3 10 4 12.0298 -0.9934
3 10 5 -6.7303 -0.3427
3 10 6 -11.4843 0.6399
3 10 7 -7.8052 1.0680
3 10 8 5.4591 -0.1410
3 10 9 3.6331 -0.8178
3 10 10 4.8278 -0.7873
3 10 11 1.2196 0.3745
3 10 12 -4.3919 0.6939
3 10 13 -3.8535 0.4507
3 10 14 4.0216 -0.4480
3 10 15 6.4202 -0.5858
3 10 16 7.7542 -0.2074
3 10 17 -3.6884 0.4107
3 10 18 11.6454 0.3507
3 10 19 -12.8271 0.0843
3 10 20 -5.2213 -0.3649
3 10 21 -12.7356 -0.1091
3 11 0 -27.4062 -0.3208
3 11 1 16.3367 -0.3909
3 11 2 10.3782 0.0983
3 11 3 26.3811 -0.3747
3 11 4 -12.6402 0.1042
3 11 5 -8.9680 0.4745
3 11 6 -17.4327 0.6284
3 11 7 5.8079 -0.2191
3 11 8 5.3206 -0.5555
3 11 9 15.5937 -0.3147
3 11 10 1.5692 0.3356
3 11 11 -1.8315 0.3968
3 11 12 -2.1043 0.0522
3 11 13 -1.2203 -0.4094
3 11 14 0.3657 -0.1494
3 11 15 -4.1918 0.1491
3 11 16 -12.4113 0.3268
3 11 17 -8.1060 0.0377
3 11 18 -0.7567 -0.1070
3 11 19 1.8908 -0.2033
3 11 20 -4.4650 -0.0442
3 11 21 -1.4044 0.1461
3 12 1 -26.6505 0.2716
3 12 2 -5.8006 0.1918
3 12 3 15.4341 -0.1728
3 12 4 36.0645 -0.7363
3 12 5 27.8087 -0.2675
3 12 6 10.0058 0.4796
3 12 7 2.0198 0.7056
3 12 8 -0.1035 -0.0453
3 12 9 3.7790 -0.6091
3 12 10 -6.9547 -0.6490
3 12 11 -2.5109 0.3418
3 12 12 7.5335 0.5187
3 12 13 7.0185 0.2868
3 12 14 -4.5022 -0.2845
3 12 15 -10.1994 -0.3731
3 12 16 -6.9619 -0.1774
3 12 17 -6.6068 0.3076
3 12 18 -8.7951 0.2042
3 12 19 7.8343 0.0286
3 12 20 9.5638 -0.2498
3 12 21 14.2475 -0.1153
3 13 0 10.1815 -0.2787
3 13 1 -8.2493 -0.4340
3 13 2 24.7868 0.1774
3 13 3 5.8975 -0.3601
3 13 4 14.4792 0.0614
3 13 5 -6.1055 0.0400
3 13 6 8.7423 0.4980
3 13 7 -1.6189 -0.1015
3 13 8 7.9390 -0.0780
3 13 9 -6.5830 -0.3049
3 13 10 5.8676 0.1845
3 13 11 1.8749 -0.0056
3 13 12 7.1055 0.1194
3 13 13 2.8917 -0.2006
3 13 14 0.9621 0.0180
3 13 15 7.7597 0.0114
3 13 16 16.9303 0.2351
3 13 17 16.1416 -0.0545
3 13 18 3.2598 -0.0060
3 13 19 -14.3635 -0.1773
3 13 20 -12.3588 0.0538
3 13 21 -12.6939 0.0576
3 14 1 -9.5632 0.2319
3 14 2 -22.1191 -0.1510
3 14 3 -3.4905 -0.1255
3 14 4 1.1511 -0.1844
3 14 5 -3.5319 -0.0501
3 14 6 -9.2587 0.1533
3 14 7 4.1033 0.1535
3 14 8 5.9423 -0.0798
3 14 9 -0.0619 -0.1984
3 14 10 -3.9021 -0.0958
3 14 11 -0.5215 0.0975
3 14 12 -1.9973 0.1050
3 14 13 -5.0406 0.0964
3 14 14 -2.4349 -0.1329
3 14 15 2.4168 0.0002
3 14 16 16.9236 0.0152
3 14 17 17.1685 -0.0147
3 14 18 5.8183 -0.0522
3 14 19 -18.4271 0.0402
3 14 20 -4.9808 -0.0709
3 15 0 -11.1346 -0.0882
3 15 1 0.1386 -0.0626
3 15 2 -11.0728 0.0995
3 15 3 9.7644 -0.1851
3 15 4 1.6562 -0.1401
3 15 5 11.0645 -0.2275
3 15 6 -12.4466 0.2354
3 15 7 -7.4477 0.0829
3 15 8 -11.0395 0.1215
3 15 9 10.0336 -0.1565
3 15 10 2.3110 0.0654
3 15 11 0.2420 -0.1381
3 15 12 -9.8881 -0.0289
3 15 13 -6.0317 -0.0752
3 15 14 -6.1828 0.1546
3 15 15 -9.0785 -0.0173
3 15 16 -5.6231 0.1219
3 15 17 -6.6993 0.0148
3 15 18 -1.3440 -0.0629
3 15 19 -0.8889 -0.1184
3 15 20 0.5201 0.1092
3 16 1 -17.3820 -0.2433
3 16 2 -8.0983 -0.4075
3 16 3 -1.8953 0.0508
3 16 4 4.1379 0.3597
3 16 5 -6.2565 0.1466
3 16 6 -6.9880 -0.1814
3 16 7 -5.7684 -0.4330
3 16 8 5.6372 -0.0275
3 16 9 -1.2634 0.2571
3 16 10 -1.7419 0.2572
3 16 11 -4.6729 -0.0094
3 16 12 2.8009 -0.2914
3 16 13 -3.4574 -0.2443
3 16 14 -1.0201 0.1741
3 16 15 3.2783 0.2284
3 16 16 10.6918 0.1197
3 16 17 4.4670 -0.1701
3 16 18 5.4390 -0.2098
3 16 19 8.1583 -0.0986
3 16 20 -2.7609 0.1760
3 17 0 -16.2224 0.0617
3 17 1 -2.3491 0.1362
3 17 2 -2.8038 -0.0402
3 17 3 0.0927 0.0428
3 17 4 -3.8454 -0.2922
3 17 5 -6.2415 -0.0298
3 17 6 -0.9688 -0.1635
3 17 7 -1.2260 0.1864
3 17 8 1.0018 -0.0206
3 17 9 -4.6148 0.1488
3 17 10 1.5780 -0.0905
3 17 11 4.5248 -0.0034
3 17 12 3.9843 -0.1505
3 17 13 1.6805 0.0497
3 17 14 -0.2019 -0.0482
3 17 15 6.0034 0.1319
3 17 16 -0.1593 -0.0463
3 17 17 3.5379 0.1333
3 17 18 -2.5102 0.0027
3 17 19 -1.9077 0.0486
3 18 1 0.7409 -0.4352
3 18 2 -2.1240 -0.5105
3 18 3 -1.5652 0.2051
3 18 4 -4.8633 0.6902
3 18 5 2.7765 0.2619
3 18 6 3.1106 -0.4246
3 18 7 5.2103 -0.6571
3 18 8 2.4372 0.0140
3 18 9 11.8311 0.4561
3 18 10 7.3782 0.4337
3 18 11 6.0609 -0.1688
3 18 12 -0.4789 -0.4296
3 18 13 7.4625 -0.3125
3 18 14 1.3137 0.2316
3 18 15 -8.2906 0.3261
3 18 16 -24.4948 0.1627
3 18 17 -11.6202 -0.3150
3 18 18 -3.2858 -0.2248
3 18 19 1.8778 0.0158
3 19 0 4.1604 0.2244
3 19 1 -5.1678 0.1372
3 19 2 1.6266 -0.1012
3 19 3 -0.0527 0.2391
3 19 4 7.2849 -0.1027
3 19 5 1.8422 -0.0946
3 19 6 2.6178 -0.4260
3 19 7 -4.9038 0.1473
3 19 8 4.7849 0.1272
3 19 9 4.3793 0.3177
3 19 10 4.0190 -0.2430
3 19 11 -4.0971 -0.1000
3 19 12 0.6518 -0.1152
3 19 13 1.0482 0.2401
3 19 14 4.0467 0.0283
3 19 15 -0.6815 -0.0460
3 19 16 2.4711 -0.1793
3 19 17 -6.8362 0.0630
3 19 18 -2.1585 0.1436
3 20 1 0.2527 -0.5249
3 20 2 0.3852 -0.6030
3 20 3 -0.9985 0.3723
3 20 4 2.3545 0.9096
3 20 5 -0.2863 0.4012
3 20 6 2.1296 -0.5532
3 20 7 1.1619 -0.8881
3 20 8 -3.7171 0.0527
3 20 9 -5.4985 0.6171
3 20 10 -6.7082 0.5388
3 20 11 -0.7549 -0.2718
3 20 12 2.2768 -0.5671
3 20 13 4.2353 -0.3045
3 20 14 5.2629 0.3257
3 20 15 1.1497 0.4321
3 20 16 5.8947 0.0631
3 20 17 -3.4182 -0.3333
3 20 18 -0.8358 -0.2547
3 21 0 -7.2065 0.2643
3 21 1 14.2996 0.1940
3 21 2 -9.4465 -0.0892
3 21 3 6.0160 0.3371
3 21 4 -12.7291 0.0414
3 21 5 8.3412 -0.3459
3 21 6 -4.7073 -0.4672
3 21 7 7.5592 0.1550
3 21 8 -4.7593 0.3713
3 21 9 0.1098 0.2377
3 21 10 -2.3503 -0.2283
3 21 11 1.4425 -0.2581
3 21 12 -3.6384 -0.0529
3 21 13 -3.7193 0.2877
3 21 14 -4.6839 0.1938
3 21 15 0.4707 -0.0835
3 21 16 1.8940 -0.3221
3 21 17 1.0237 -0.0299
3 22 1 0.2314 -0.3300
3 22 2 -1.2412 -0.4661
3 22 3 1.6216 0.3652
3 22 4 -0.6211 0.9425
3 22 5 4.6300 0.3928
3 22 6 -0.4089 -0.5157
3 22 7 3.3627 -0.8583
3 22 8 0.9719 0.0151
3 22 9 -2.3798 0.6143
3 22 10 -1.0175 0.5086
3 22 11 -1.4822 -0.2168
3 22 12 0.6559 -0.5411
3 22 13 -1.1152 -0.2540
3 22 14 -0.1133 0.3199
3 22 15 1.6520 0.3915
3 22 16 1.4717 0.1213
3 22 17 2.3415 -0.3024
3 23 0 11.7835 0.3077
3 23 1 -3.2738 0.2340
3 23 2 10.5633 -0.0863
3 23 3 -5.4079 0.3076
3 23 4 3.8258 0.0014
3 23 5 -11.8909 -0.3851
3 23 6 3.5612 -0.4649
3 23 7 -3.9726 0.0801
3 23 8 3.7229 0.5512
3 23 9 -3.9757 0.2216
3 23 10 1.8074 -0.2773
3 23 11 -1.1517 -0.3259
3 23 12 2.9311 -0.0199
3 23 13 -1.1466 0.3647
3 23 14 0.6277 0.1944
3 23 15 -0.5339 -0.0050
3 23 16 -1.0852 -0.4088
3 24 1 4.4245 -0.0176
3 24 2 5.6945 -0.3350
3 24 3 2.7550 0.2869
3 24 4 -1.0169 0.8234
3 24 5 -2.8021 0.2837
3 24 6 -0.0834 -0.4051
3 24 7 -1.9150 -0.7962
3 24 8 -3.2494 0.1350
3 24 9 -2.3015 0.5753
3 24 10 -3.6442 0.3898
3 24 11 -0.4673 -0.2343
3 24 12 -0.3746 -0.4600
3 24 13 -2.9687 -0.1131
3 24 14 -3.4362 0.2871
3 24 15 -2.9010 0.3894
3 25 0 -3.9753 0.4500
3 25 1 7.8064 0.2844
3 25 2 -5.6605 -0.2728
3 25 3 5.4996 0.2472
3 25 4 -3.0658 -0.0703
3 25 5 7.3952 -0.2432
3 25 6 -4.7678 -0.4839
3 25 7 0.6606 0.1473
3 25 8 -4.6626 0.3449
3 25 9 3.8610 0.2679
3 25 10 -1.3285 -0.2953
3 25 11 4.0953 -0.2458
3 25 12 -2.3812 -0.0004
3 25 13 1.0950 0.3577
3 25 14 -1.4532 0.1514
3 25 15 0.2821 -0.0243
3 26 1 2.9867 0.0775
3 26 2 3.9798 -0.1621
3 26 3 1.1967 0.1916
3 26 4 0.6433 0.4777
3 26 5 0.3071 0.1987
3 26 6 1.2235 -0.2895
3 26 7 0.5540 -0.4504
3 26 8 -0.0448 0.1308
3 26 9 -1.8037 0.3371
3 26 10 -0.5398 0.3816
3 26 11 -0.0156 -0.1397
3 26 12 0.1298 -0.3904
3 26 13 4.0124 -0.2274
3 26 14 -0.0458 0.2640
3 27 0 1.1982 0.4258
3 27 1 -1.0581 0.2608
3 27 2 1.5486 -0.2856
3 27 3 1.7698 0.1993
3 27 4 4.0905 -0.1402
3 27 5 2.6064 -0.0631
3 27 6 1.9918 -0.5871
3 27 7 -1.2943 0.1836
3 27 8 0.2246 0.2104
3 27 9 -0.3729 0.4064
3 27 10 4.3060 -0.2887
3 27 11 1.0600 -0.3970
3 27 12 4.5147 0.0098
3 27 13 2.4682 0.4148
3 28 1 0.8830 0.4038
3 28 2 0.1376 -0.1129
3 28 3 1.5926 0.0717
3 28 4 -0.7127 0.0961
3 28 5 0.5158 0.1288
3 28 6 0.4634 -0.0481
3 28 7 2.6180 -0.1287
3 28 8 -2.2023 0.0633
3 28 9 -1.3142 0.1740
3 28 10 -1.2295 0.2296
3 28 11 -1.2599 -0.1156
3 28 12 -3.0466 -0.1431
3 29 0 -1.2362 0.5036
3 29 1 2.1992 0.2351
3 29 2 -3.9815 -0.2296
3 29 3 0.8400 0.1461
3 29 4 -2.7150 -0.0149
3 29 5 2.0299 -0.2478
3 29 6 -1.2849 -0.3905
3 29 7 0.9940 0.1035
3 29 8 -1.3976 0.4013
3 29 9 -1.7554 0.1257
3 29 10 -0.9976 -0.2571
3 29 11 -1.0421 -0.1047
3 30 1 -1.3687 0.3988
3 30 2 -0.9711 -0.0404
3 30 3 -2.1754 -0.0578
3 30 4 -1.3774 0.0396
3 30 5 1.5387 0.0429
3 30 6 -0.3118 0.1045
3 30 7 -3.6811 0.0123
3 30 8 -0.1752 0.1848
3 30 9 0.8993 0.0446
3 30 10 3.5431 -0.1613
3 31 0 -3.2382 0.7119
3 31 1 2.1967 -0.1166
3 31 2 2.1580 -0.2048
3 31 3 1.2158 0.0007
3 31 4 -0.8999 0.3963
3 31 5 -3.0839 -0.4492
3 31 6 0.8378 -0.0685
3 31 7 -1.4250 -0.1729
3 31 8 1.0122 0.5725
3 32 1 2.0178 0.5265
3 32 2 -0.9572 0.1730
3 32 3 -1.1770 -0.2176
3 32 4 -1.2859 -0.2545
3 32 5 -0.8152 0.0153
3 32 6 5.7040 0.4756
3 33 0 -6.6364 0.5031
3 33 1 -7.8973 -0.1568
3 33 2 -0.3462 -0.1005
3 33 3 -0.6073 -0.6550
4 0 0 80.8886 0.1427
4 0 1 237.6539 -1.7092
4 0 2 63.5992 -1.2883
4 0 3 103.5486 -3.5019
4 0 4 -78.2155 1.0414
4 0 5 16.2178 1.2197
4 0 6 -9.2729 3.6004
4 0 7 94.5206 -2.3436
4 0 8 -17.2037 -1.5509
4 0 9 -18.6270 -2.2363
4 0 10 -31.3364 2.4991
4 0 11 -9.6902 1.0964
4 0 12 -30.5486 1.2403
4 0 13 12.2438 -2.2495
4 0 14 -7.4958 -0.7634
4 0 15 8.9560 -0.4943
4 0 16 -34.6829 2.1193
4 0 17 -0.5617 0.1627
4 0 18 -12.3983 -0.1057
4 0 19 -13.3795 -1.5735
4 0 20 -15.7500 0.0832
4 0 21 0.7061 0.2752
4 0 22 -1.4420 0.9925
4 1 1 27.9593 -0.7998
4 1 2 31.5246 0.0441
4 1 3 0.6033 0.0961
4 1 4 -43.9205 0.0647
4 1 5 -54.8099 0.5661
4 1 6 -21.2898 -0.2388
4 1 7 4.3288 -0.3176
4 1 8 10.1840 0.2847
4 1 9 3.5460 -0.0531
4 1 10 2.1760 -0.0757
4 1 11 14.7787 0.1048
4 1 12 1.7372 -0.1671
4 1 13 6.9399 0.0984
4 1 14 -22.3727 0.2567
4 1 15 -33.4985 -0.0954
4 1 16 -36.0806 -0.1159
4 1 17 21.9184 -0.1179
4 1 18 78.8772 0.1109
4 1 19 77.8158 0.0696
4 1 20 23.5030 0.1402
4 1 21 -6.0200 -0.2017
4 1 22 -6.2495 -0.0992
4 2 0 298.9966 1.3797
4 2 1 78.9379 0.3586
4 2 2 74.0866 -0.5727
4 2 3 -141.1695 0.0469
4 2 4 7.1433 -0.2030
4 2 5 -38.1777 -0.4956
4 2 6 62.8031 -0.7750
4 2 7 -71.8238 0.5899
4 2 8 6.7224 0.8310
4 2 9 -11.3048 0.4702
4 2 10 28.9529 -0.8740
4 2 11 8.8009 -0.5902
4 2 12 20.6711 -0.1302
4 2 13 -11.0980 0.8547
4 2 14 -1.4126 0.4409
4 2 15 -14.2188 -0.1474
4 2 16 -0.1220 -0.7417
4 2 17 -16.8181 -0.0873
4 2 18 -11.5439 0.2482
4 2 19 -0.8491 0.4380
4 2 20 -5.6942 -0.1641
4 2 21 -8.0675 -0.3265
4 2 22 5.5660 -0.2532
4 3 1 -30.9873 0.1034
4 3 2 -36.1915 -0.3458
4 3 3 -4.5107 -0.1365
4 3 4 44.1813 -0.1077
4 3 5 71.5572 -0.1822
4 3 6 36.9640 0.5418
4 3 7 14.1724 0.3743
4 3 8 -2.9817 -0.2249
4 3 9 8.4157 -0.3195
4 3 10 4.2245 -0.1847
4 3 11 -39.0623 -0.1083
4 3 12 -27.1377 0.4274
4 3 13 -37.3907 0.1570
4 3 14 18.7153 -0.1128
4 3 15 24.4232 -0.2167
4 3 16 38.1477 -0.0224
4 3 17 -14.6450 -0.0277
4 3 18 -62.6300 0.1994
4 3 19 -52.7172 0.0759
4 3 20 -1.6670 -0.0523
4 3 21 3.1474 -0.1844
4 3 22 -3.8110 -0.0908
4 4 0 -26.4317 1.4136
4 4 1 34.2908 0.9318
4 4 2 -84.1969 -0.0042
4 4 3 -33.0080 1.5035
4 4 4 -85.9605 -0.8985
4 4 5 23.2289 -0.6867
4 4 6 17.5149 -2.2314
4 4 7 54.5829 1.4668
4 4 8 -12.1017 1.0319
4 4 9 -4.9649 1.5257
4 4 10 -12.3628 -1.6257
4 4 11 2.3878 -0.8140
4 4 12 -11.3448 -0.7299
4 4 13 7.8110 1.6141
4 4 14 -5.0223 0.4792
4 4 15 6.5545 0.2773
4 4 16 0.5047 -1.4578
4 4 17 2.6080 -0.0946
4 4 18 -11.1887 0.1800
4 4 19 -4.6380 1.0009
4 4 20 3.7552 -0.2738
4 4 21 6.1344 -0.2950
4 4 22 -9.9663 -0.4690
4 5 1 13.2291 0.4946
4 5 2 0.4407 0.2747
4 5 3 -23.0044 0.1802
4 5 4 -42.9213 -0.3286
4 5 5 -34.1098 -0.3694
4 5 6 4.8823 0.1077
4 5 7 10.5628 0.2278
4 5 8 8.1659 0.2199
4 5 9 -5.5636 -0.1694
4 5 10 2.4056 -0.0322
4 5 11 42.8322 -0.1061
4 5 12 17.9085 0.0013
4 5 13 24.2228 -0.1209
4 5 14 -17.0662 0.0747
4 5 15 2.4972 0.0249
4 5 16 -15.9370 0.1373
4 5 17 -2.0288 -0.0122
4 5 18 -8.4763 -0.0492
4 5 19 -15.4262 -0.1293
4 5 20 -22.5413 0.0021
4 5 21 14.8997 0.0483
4 5 22 15.1913 0.0709
4 6 0 -110.9190 0.1392
4 6 1 -84.8065 0.5490
4 6 2 -9.2891 0.2608
4 6 3 -4.7090 0.5788
4 6 4 57.7992 -0.2173
4 6 5 35.8604 -0.5334
4 6 6 57.9567 -0.6788
4 6 7 -3.8065 0.1813
4 6 8 -5.8522 0.4921
4 6 9 -30.3446 0.5658
4 6 10 -0.2904 -0.2594
4 6 11 -1.3209 -0.4210
4 6 12 3.6981 -0.2256
4 6 13 -2.2734 0.3784
4 6 14 5.4213 0.4003
4 6 15 11.9948 0.0041
4 6 16 -4.7169 -0.4732
4 6 17 -2.8639 -0.1888
4 6 18 -7.5347 0.1825
4 6 19 0.7516 0.3979
4 6 20 0.4254 -0.0021
4 6 21 8.1534 -0.1913
4 6 22 -0.6594 -0.0304
4 7 1 3.7501 0.3848
4 7 2 0.3983 0.3817
4 7 3 -0.4360 0.2879
4 7 4 11.7379 -0.0998
4 7 5 21.0101 -0.1854
4 7 6 -0.7027 -0.2446
4 7 7 -3.6041 -0.1597
4 7 8 2.0917 0.5042
4 7 9 15.5655 0.0381
4 7 10 4.2077 -0.0025
4 7 11 -18.4096 -0.1052
4 7 12 -1.0199 -0.1578
4 7 13 -2.4167 -0.1220
4 7 14 6.8547 0.1001
4 7 15 -5.7632 0.0719
4 7 16 10.0865 0.0923
4 7 17 -5.7133 -0.0394
4 7 18 -5.7721 -0.0213
4 7 19 -4.7453 0.0361
4 7 20 7.1514 -0.0671
4 7 21 -16.3056 0.0036
4 7 22 -16.9861 0.0639
4 8 0 95.8758 0.4706
4 8 1 3.9839 -0.3044
4 8 2 -29.8146 -0.2113
4 8 3 -61.1788 -0.6689
4 8 4 -20.1892 0.3168
4 8 5 -6.1118 0.2087
4 8 6 17.9076 0.5112
4 8 7 8.5596 -0.5323
4 8 8 9.5006 -0.2442
4 8 9 2.3896 -0.3167
4 8 10 -3.1838 0.5767
4 8 11 0.3720 0.1911
4 8 12 -1.1210 0.0960
4 8 13 2.6155 -0.3743
4 8 14 5.3392 -0.0311
4 8 15 10.6414 -0.0899
4 8 16 9.2136 0.2877
4 8 17 1.5099 -0.0494
4 8 18 -1.8972 0.0837
4 8 19 2.7397 -0.2054
4 8 20 -0.3097 -0.0314
4 8 21 -12.2666 0.0579
4 8 22 -6.6832 0.3526
4 9 1 4.6227 0.5461
4 9 2 8.0008 0.0038
4 9 3 3.0325 0.1183
4 9 4 -2.4499 0.0143
4 9 5 -9.2675 -0.2984
4 9 6 -2.5563 0.1241
4 9 7 -2.4867 0.0952
4 9 8 -4.2008 -0.0122
4 9 9 -4.9818 0.0018
4 9 10 11.7383 0.0322
4 9 11 24.8466 -0.0240
4 9 12 17.9401 0.0838
4 9 13 8.9734 -0.0476
4 9 14 9.9415 -0.1437
4 9 15 13.8572 0.0229
4 9 16 -15.6256 0.0431
4 9 17 -11.1713 -0.0254
4 9 18 -16.9716 0.1184
4 9 19 1.7332 0.0697
4 9 20 -8.7187 -0.0014
4 9 21 -1.1506 -0.0639
4 10 0 -22.6144 0.5849
4 10 1 2.8556 -0.2447
4 10 2 40.0841 -0.5411
4 10 3 25.3484 -1.0889
4 10 4 23.0063 -0.0323
4 10 5 2.5594 0.6298
4 10 6 3.4613 0.9980
4 10 7 -8.3310 -0.3675
4 10 8 0.9316 -0.6603
4 10 9 0.4393 -0.5664
4 10 10 10.1523 0.5411
4 10 11 5.6664 0.4492
4 10 12 -0.8430 0.1976
4 10 13 -0.0194 -0.5983
4 10 14 -3.0807 -0.2068
4 10 15 0.4632 0.0791
4 10 16 -0.1309 0.3912
4 10 17 8.8606 0.0566
4 10 18 2.6926 -0.1077
4 10 19 7.0942 -0.3598
4 10 20 1.2013 0.0192
4 10 21 13.5118 -0.0071
4 11 1 -2.5074 0.2590
4 11 2 -10.4515 -0.0450
4 11 3 -2.8502 -0.0147
4 11 4 -2.4294 -0.2144
4 11 5 -0.7009 -0.0687
4 11 6 -14.8439 0.0833
4 11 7 -24.7076 0.1654
4 11 8 -19.4002 0.1022
4 11 9 -5.7679 -0.1619
4 11 10 -5.8991 -0.1602
4 11 11 -9.7785 0.2412
4 11 12 -15.5119 0.0633
4 11 13 -4.1782 0.0654
4 11 14 -7.1058 -0.1651
4 11 15 -6.5676 -0.1524
4 11 16 8.7079 -0.0579
4 11 17 -2.0290 0.1381
4 11 18 2.3395 0.1541
4 11 19 -10.3239 0.0727
4 11 20 -2.0312 -0.0756
4 11 21 -4.2041 0.0350
4 12 0 -36.5552 0.8047
4 12 1 -7.5226 -0.0939
4 12 2 -30.2584 -0.6323
4 12 3 4.1989 -1.3414
4 12 4 -9.4931 -0.0976
4 12 5 2.5594 0.8211
4 12 6 -4.6395 1.0358
4 12 7 0.3689 -0.1602
4 12 8 -9.8013 -0.8862
4 12 9 0.7878 -0.6940
4 12 10 -10.8670 0.6420
4 12 11 -7.6420 0.5847
4 12 12 -3.3602 0.0991
4 12 13 8.3223 -0.7016
4 12 14 5.5322 -0.3547
4 12 15 4.7275 0.1926
4 12 16 -3.4128 0.6324
4 12 17 -2.6487 0.0908
4 12 18 -0.6484 -0.3547
4 12 19 1.2421 -0.2900
4 12 20 4.8930 -0.1142
4 12 21 0.7177 -0.0205
4 13 1 -5.9661 0.1050
4 13 2 0.0813 -0.3740
4 13 3 0.0653 -0.0978
4 13 4 12.1305 -0.1998
4 13 5 10.3253 -0.0113
4 13 6 9.2087 0.0446
4 13 7 6.1217 0.1602
4 13 8 4.4276 0.0700
4 13 9 -1.8382 -0.0745
4 13 10 -4.2906 -0.2175
4 13 11 -4.7352 0.1869
4 13 12 3.3677 0.0881
4 13 13 8.2064 0.0895
4 13 14 14.0964 -0.1931
4 13 15 10.7830 -0.1102
4 13 16 -4.5550 -0.0843
4 13 17 3.0969 0.0483
4 13 18 0.1482 0.1128
4 13 19 2.3483 0.1927
4 13 20 -5.4337 -0.0728
4 14 0 50.2688 0.9908
4 14 1 13.7530 -0.1104
4 14 2 28.5266 -0.4067
4 14 3 -9.9152 -1.4149
4 14 4 8.4098 -0.0247
4 14 5 -9.6330 0.6690
4 14 6 1.2291 1.1909
4 14 7 -15.5187 -0.3337
4 14 8 7.4278 -0.8677
4 14 9 -1.8572 -0.6631
4 14 10 13.1930 0.6411
4 14 11 0.7840 0.7165
4 14 12 2.3172 0.1423
4 14 13 -1.6962 -0.9634
4 14 14 4.7626 -0.3568
4 14 15 0.0365 0.2041
4 14 16 0.4350 0.7740
4 14 17 3.1971 0.1993
4 14 18 2.2098 -0.3134
4 14 19 6.4563 -0.5820
4 14 20 -1.6798 -0.0039
4 15 1 -14.4110 0.1325
4 15 2 -19.3063 -0.5073
4 15 3 -5.2012 -0.1268
4 15 4 0.9655 -0.1102
4 15 5 6.2774 -0.0010
4 15 6 5.9654 -0.0453
4 15 7 -0.8272 0.0907
4 15 8 -6.7580 0.0709
4 15 9 -10.5962 0.0384
4 15 10 -5.5197 -0.2129
4 15 11 -0.1561 0.0486
4 15 12 4.5929 0.0156
4 15 13 0.7636 0.1097
4 15 14 -2.8926 -0.1662
4 15 15 -0.6218 0.0017
4 15 16 3.5841 -0.0872
4 15 17 0.2072 -0.0265
4 15 18 -1.4875 0.0301
4 15 19 -3.2015 0.1041
4 15 20 -0.1996 -0.0181
4 16 0 -22.5408 1.2021
4 16 1 -4.3581 -0.2016
4 16 2 2.4093 -0.3570
4 16 3 13.9452 -1.4768
4 16 4 -6.2849 0.2017
4 16 5 -3.6996 0.6110
4 16 6 -0.9460 1.1609
4 16 7 13.1676 -0.6000
4 16 8 -2.8442 -0.7258
4 16 9 -0.6724 -0.7343
4 16 10 -8.5465 0.9119
4 16 11 1.6063 0.5764
4 16 12 0.4410 0.1951
4 16 13 3.9302 -0.9747
4 16 14 1.3691 -0.3917
4 16 15 -0.8438 0.0997
4 16 16 -2.8022 0.8951
4 16 17 0.8315 0.1227
4 16 18 1.8934 -0.1697
4 16 19 -1.7965 -0.5527
4 17 1 -5.5336 -0.0233
4 17 2 -1.6540 -0.3741
4 17 3 1.6901 -0.0594
4 17 4 3.0207 -0.0303
4 17 5 -4.6409 -0.0045
4 17 6 -7.7744 0.0211
4 17 7 -2.3345 -0.0375
4 17 8 6.8311 0.0630
4 17 9 12.8967 -0.0445
4 17 11 5.7507 0.0865
4 17 12 -1.8349 -0.0508
4 17 13 -3.2754 0.0972
4 17 14 -6.9157 -0.1449
4 17 15 -12.2399 -0.0043
4 17 17 2.5533 0.0376
4 17 18 4.0076 -0.1011
4 17 19 -3.3018 -0.0091
4 18 0 -17.6152 0.7456
4 18 1 -2.5693 -0.4937
4 18 2 3.0575 -0.3633
4 18 3 6.1361 -1.1223
4 18 4 -0.2644 0.3978
4 18 5 -4.2339 0.3841
4 18 6 -7.7257 0.8551
4 18 7 -5.7666 -0.5875
4 18 8 0.1894 -0.4429
4 18 9 3.8609 -0.5919
4 18 10 4.6952 0.7378
4 18 11 -0.0296 0.3892
4 18 12 2.4872 0.2207
4 18 13 1.5072 -0.7401
4 18 14 -3.2701 -0.2502
4 18 15 -1.6277 -0.0280
4 18 16 -0.7010 0.6146
4 18 17 2.4560 0.0308
4 18 18 -0.9628 -0.0016
4 18 19 0.1810 -0.2487
4 19 1 0.1273 0.0090
4 19 2 -1.4762 -0.0985
4 19 3 -2.5268 0.0030
4 19 4 4.0057 -0.0683
4 19 5 3.1354 -0.0621
4 19 6 1.8765 0.1037
4 19 7 -2.2230 0.0512
4 19 8 1.6644 0.0044
4 19 9 -1.7847 -0.1378
4 19 10 -2.6494 -0.2189
4 19 11 -0.9692 0.0749
4 19 12 2.5150 0.1195
4 19 13 -2.0677 0.1136
4 19 14 -3.5190 -0.1198
4 19 15 1.9899 -0.0904
4 19 16 1.9061 0.0023
4 19 17 2.9539 0.0081
4 19 18 3.1703 -0.0120
4 20 0 -4.3103 0.1743
4 20 1 -13.7638 -0.7010
4 20 2 13.5273 -0.1968
4 20 3 2.0149 -0.5770
4 20 4 5.7680 0.3382
4 20 5 -10.6491 0.1088
4 20 6 6.2577 0.3947
4 20 7 -3.4409 -0.2997
4 20 8 0.6205 -0.0860
4 20 9 -7.1283 -0.3061
4 20 10 -0.1662 0.3280
4 20 11 2.3800 0.0211
4 20 12 0.7737 0.2291
4 20 13 -3.1153 -0.3900
4 20 14 0.0909 0.0571
4 20 15 -2.4084 -0.0884
4 20 16 2.5946 0.1682
4 20 17 0.6492 -0.0860
4 20 18 -0.0331 0.0100
4 21 1 -0.2458 0.2518
4 21 2 1.1998 -0.1995
4 21 3 4.8452 0.0307
4 21 4 2.6126 -0.0569
4 21 5 -0.1466 0.0156
4 21 6 -3.0307 0.0910
4 21 7 -0.2399 -0.0112
4 21 8 -3.8121 -0.0006
4 21 9 -6.2150 -0.1081
4 21 10 -8.5841 -0.1520
4 21 11 -1.4171 0.0674
4 21 12 1.5012 0.0664
4 21 13 2.9455 0.1378
4 21 14 1.6739 0.0357
4 21 15 2.5316 -0.0932
4 21 16 3.2895 -0.0612
4 21 17 -0.3371 -0.1006
4 22 0 -25.5457 -0.0028
4 22 1 3.0224 -0.5824
4 22 2 -5.0190 0.0756
4 22 3 16.1208 -0.1740
4 22 4 -8.4629 0.2331
4 22 5 5.6243 -0.1771
4 22 6 -9.3651 0.0342
4 22 7 8.3088 -0.0634
4 22 8 -4.1692 0.2822
4 22 9 2.2457 -0.0832
4 22 10 -2.3469 -0.0318
4 22 11 0.1247 -0.2900
4 22 12 -6.4572 0.1478
4 22 13 -9.8703 -0.0249
4 22 14 -9.6989 0.1880
4 22 15 -1.1478 -0.1066
4 22 16 -0.2281 0.0514
4 22 17 -0.2218 -0.1624
4 23 1 1.9747 0.1564
4 23 2 1.4227 -0.2263
4 23 3 -0.6849 0.0818
4 23 4 -0.8967 -0.0835
4 23 5 0.3768 0.0384
4 23 6 1.2856 0.0629
4 23 7 -0.1015 -0.0682
4 23 8 1.2151 -0.0553
4 23 9 1.5746 -0.0671
4 23 10 4.0084 0.0263
4 23 11 1.5745 0.0605
4 23 12 -0.8889 0.0611
4 23 13 -2.1547 0.0509
4 23 14 -0.2202 -0.0213
4 23 15 3.2519 -0.0642
4 23 16 4.4050 0.0769
4 24 0 15.5832 -0.0159
4 24 1 3.2577 -0.4333
4 24 2 12.0875 0.3074
4 24 3 -2.7012 0.3380
4 24 4 4.6051 0.1869
4 24 5 -6.7637 -0.6162
4 24 6 9.0907 -0.2157
4 24 7 0.9992 0.0286
4 24 8 5.1471 0.6480
4 24 9 -5.8127 0.1222
4 24 10 0.5863 -0.2227
4 24 11 -2.3856 -0.6371
4 24 12 4.6651 -0.0277
4 24 13 1.0069 0.3691
4 24 14 3.6615 0.2875
4 24 15 -1.9236 -0.2652
4 25 1 1.7464 0.0364
4 25 2 2.0458 -0.1273
4 25 3 -0.2831 0.1439
4 25 4 0.0745 -0.1016
4 25 5 0.8187 -0.1268
4 25 6 2.3273 0.0978
4 25 7 1.8825 -0.1254
4 25 8 0.3229 -0.0112
4 25 9 1.6042 -0.0233
4 25 10 -1.7549 0.0859
4 25 11 -4.1057 0.0519
4 25 12 -4.1064 -0.0617
4 25 13 0.3091 0.0726
4 25 14 1.2837 -0.0081
4 25 15 -2.5543 -0.0504
4 26 0 2.9087 -0.2113
4 26 1 4.6229 -0.2040
4 26 2 -2.6535 0.6209
4 26 3 -1.5041 0.5672
4 26 4 -4.3861 0.1073
4 26 5 1.1569 -0.8476
4 26 6 -3.8429 -0.4285
4 26 7 0.7269 0.1257
4 26 8 -4.7000 0.8384
4 26 9 2.6663 0.1882
4 26 10 -3.2941 -0.3043
4 26 11 2.5551 -0.6158
4 26 12 -2.8393 -0.1590
4 26 13 2.2597 0.2994
4 26 14 -0.7167 0.2542
4 27 1 -1.8809 0.0640
4 27 2 -2.4723 0.0798
4 27 3 -0.8152 0.0951
4 27 4 -0.8859 -0.1822
4 27 5 0.4499 -0.2064
4 27 6 -0.0000 0.1325
4 27 7 0.6493 -0.0166
4 27 8 -0.4038 0.0418
4 27 9 -0.6345 -0.0892
4 27 10 -0.1205 -0.0335
4 27 11 0.2926 0.0235
4 27 12 -1.4337 0.0360
4 27 13 -3.2402 0.0154
4 28 0 -0.1650 -0.1201
4 28 1 -1.9061 -0.0311
4 28 2 0.4067 0.5354
4 28 3 -1.9700 0.8361
4 28 4 -0.8528 -0.0288
4 28 5 -2.2154 -0.7221
4 28 6 -1.4375 -0.7786
4 28 7 0.1322 0.3844
4 28 8 2.8887 0.6584
4 28 9 2.4194 0.3571
4 28 10 0.4640 -0.3395
4 28 11 0.4089 -0.4244
4 28 12 -0.4113 0.0668
4 29 1 -0.6236 0.1590
4 29 2 -1.0014 0.1042
4 29 3 -0.0422 0.1975
4 29 4 -0.0018 -0.2099
4 29 5 0.1553 -0.1441
4 29 6 0.2079 0.1605
4 29 7 1.1776 0.0309
4 29 8 1.5099 -0.0596
4 29 9 0.9415 -0.0982
4 29 10 0.1299 0.1334
4 29 11 1.1905 -0.0243
4 30 0 -1.1069 -0.1164
4 30 1 1.4977 0.2606
4 30 2 3.1908 0.0322
4 30 3 1.7370 0.8869
4 30 4 -5.1902 -0.1132
4 30 5 -1.2173 -0.2530
4 30 6 -0.4825 -0.6752
4 30 7 0.6949 0.2922
4 30 8 -3.6544 0.3110
4 30 9 0.4405 0.1132
4 31 1 0.7199 0.2126
4 31 2 1.5330 -0.0840
4 31 3 0.9457 0.3647
4 31 4 1.1548 0.0354
4 31 5 1.3710 -0.0321
4 31 6 3.5836 -0.0262
4 31 7 3.3289 -0.0929
4 31 8 0.8963 0.0624
4 32 0 -1.9001 0.2470
4 32 1 2.0946 0.3858
4 32 2 2.9261 -0.0475
4 32 3 1.4282 0.2244
4 32 4 1.8132 0.1174
4 32 5 -1.4817 -0.0513
4 32 6 1.2133 0.1858
4 33 1 1.8679 0.3362
4 33 2 0.8184 -0.0386
4 33 3 0.5135 0.1326
5 1 0 18.1272 1.3353
5 1 1 35.2546 -0.0390
5 1 2 1.9246 0.8182
5 1 3 11.7293 -0.9716
5 1 4 -11.2761 0.7858
5 1 5 57.7787 -0.2581
5 1 6 -6.5255 1.1473
5 1 7 1.0965 -0.8109
5 1 8 -40.0561 0.0211
5 1 9 18.9839 -0.8647
5 1 10 7.1895 1.0175
5 1 11 1.1908 0.1572
5 1 12 -23.1023 0.3688
5 1 13 -24.6743 -0.9647
5 1 14 -23.3995 0.0913
5 1 15 19.8932 -0.2297
5 1 16 2.6856 0.6826
5 1 17 17.3767 -0.1816
5 1 18 -28.2808 -0.0095
5 1 19 -49.5662 -0.5324
5 1 20 -45.5470 0.2179
5 1 21 -4.1275 -0.1170
5 1 22 22.5081 0.2457
5 2 1 0.7663 -0.4152
5 2 2 -9.5085 0.5395
5 2 3 10.5285 0.0728
5 2 4 24.0909 -0.5546
5 2 5 19.5545 -0.2718
5 2 6 0.3994 0.2184
5 2 7 12.6688 0.7759
5 2 8 15.9741 0.0020
5 2 9 6.6241 -0.7750
5 2 10 -5.3680 -0.4834
5 2 11 1.2207 0.1301
5 2 12 -18.8285 0.5977
5 2 13 -22.8241 0.6433
5 2 14 -27.8494 -0.5935
5 2 15 2.9316 -0.4908
5 2 16 1.0815 -0.0278
5 2 17 16.9035 0.3336
5 2 18 -3.7592 0.2527
5 2 19 2.4347 0.0314
5 2 20 -16.9040 -0.4776
5 2 21 -0.4499 -0.2519
5 2 22 -19.0402 0.1430
5 3 0 -52.3856 0.2510
5 3 1 -65.5944 0.4511
5 3 2 -55.2172 0.8709
5 3 3 -42.2203 -0.3098
5 3 4 -1.3618 0.3418
5 3 5 -45.8806 -0.6013
5 3 6 -10.5518 0.7048
5 3 7 -23.0898 -0.3771
5 3 8 27.5486 0.2340
5 3 9 -2.3708 -0.4910
5 3 10 4.7241 0.5509
5 3 11 -3.8785 -0.1387
5 3 12 9.1845 0.2996
5 3 13 14.9795 -0.5087
5 3 14 8.8490 0.1991
5 3 15 -11.3604 -0.1786
5 3 16 4.6922 0.3282
5 3 17 -2.9722 -0.2587
5 3 18 -9.3919 0.0901
5 3 19 -24.1734 -0.2320
5 3 20 -18.2258 0.1323
5 3 21 -3.3198 -0.0031
5 3 22 2.6039 0.1562
5 4 1 -11.5691 0.0280
5 4 2 -14.1102 0.0690
5 4 3 -30.3222 -0.4173
5 4 4 5.8230 0.5054
5 4 5 25.9581 0.0911
5 4 6 23.7244 -0.1703
5 4 7 -9.7198 -0.0412
5 4 8 -7.7668 -0.0544
5 4 9 4.5559 -0.0107
5 4 10 5.9990 -0.0808
5 4 11 -13.1359 0.1037
5 4 12 2.6561 0.0377
5 4 13 1.0623 0.0156
5 4 14 9.2349 0.0748
5 4 15 -7.8619 0.1055
5 4 16 5.6398 -0.2778
5 4 17 -0.2667 0.0470
5 4 18 15.7955 0.0379
5 4 19 10.9741 0.0019
5 4 20 19.4326 0.1053
5 4 21 -1.9935 -0.1177
5 4 22 14.9472 -0.1867
5 5 0 -1.9546 0.2038
5 5 1 9.6281 0.4367
5 5 2 30.1458 0.2623
5 5 3 7.2769 -0.3618
5 5 4 -20.3853 -0.1265
5 5 5 13.4854 0.6303
5 5 6 7.1473 0.4021
5 5 7 11.3764 -0.3562
5 5 8 -21.8780 -0.6341
5 5 9 -6.1388 -0.2088
5 5 10 -7.6301 0.4320
5 5 11 7.1554 0.5926
5 5 12 19.7962 0.0143
5 5 13 15.4875 -0.3262
5 5 14 7.8880 -0.4519
5 5 15 -8.0945 0.1109
5 5 16 -8.5684 0.2883
5 5 17 -14.3055 0.2137
5 5 18 -7.1516 -0.2411
5 5 19 -1.3483 -0.1656
5 5 20 1.1710 -0.0328
5 5 21 -2.9580 0.2756
5 5 22 2.7711 0.1121
5 6 1 -53.8526 -0.5731
5 6 2 -43.0339 -0.6024
5 6 3 27.9089 0.2683
5 6 4 11.3941 0.7917
5 6 5 -18.9954 0.4833
5 6 6 -38.1768 -0.4804
5 6 7 -7.7143 -0.9909
5 6 8 15.9523 -0.0149
5 6 9 17.3176 0.8232
5 6 10 -2.7816 0.6270
5 6 11 -4.0663 -0.2588
5 6 12 -7.0725 -0.6565
5 6 13 -0.6265 -0.3887
5 6 14 -8.4399 0.5009
5 6 15 5.4366 0.6196
5 6 16 9.8758 0.1177
5 6 17 6.2121 -0.5628
5 6 18 -2.2363 -0.3471
5 6 19 -2.5446 0.1182
5 6 20 0.0492 0.4136
5 6 21 -1.2537 0.1850
5 6 22 -13.7703 0.0261
5 7 0 118.7056 0.2981
5 7 1 86.1209 0.7087
5 7 2 -28.8897 -0.4132
5 7 3 -42.2830 -0.3293
5 7 4 -19.2156 -0.3786
5 7 5 6.4242 1.0739
5 7 6 29.2143 0.5408
5 7 7 27.4439 -0.0606
5 7 8 18.6490 -1.3602
5 7 9 -6.1768 -0.1583
5 7 10 -2.0530 0.3184
5 7 11 0.8464 0.9510
5 7 12 -2.2003 0.0666
5 7 13 -7.9300 -0.3189
5 7 14 -0.4449 -0.6875
5 7 15 14.5611 0.1701
5 7 16 2.5763 0.2423
5 7 17 -1.0194 0.4092
5 7 18 -4.0899 -0.3274
5 7 19 6.6530 -0.1822
5 7 20 1.6681 -0.0621
5 7 21 3.4374 0.3149
5 7 22 -4.3229 0.1038
5 8 1 1.2828 -1.1823
5 8 2 -2.2975 -0.7372
5 8 3 -18.3488 0.2425
5 8 4 -2.5016 0.6952
5 8 5 -9.7917 0.3624
5 8 6 -12.5493 -0.3037
5 8 7 8.0667 -0.6181
5 8 8 16.4042 -0.0346
5 8 9 4.1188 0.3983
5 8 10 -4.8421 0.7626
5 8 11 4.5107 -0.2955
5 8 12 12.4268 -0.5290
5 8 13 10.7800 -0.2475
5 8 14 6.3736 0.3824
5 8 15 -6.7538 0.3451
5 8 16 -12.1711 0.1910
5 8 17 -3.3122 -0.3616
5 8 18 2.6555 -0.1897
5 8 19 5.7059 -0.0045
5 8 20 -1.4241 0.3002
5 8 21 10.3113 0.1578
5 8 22 7.8765 0.1698
5 9 0 23.0656 0.4455
5 9 1 8.6743 0.7121
5 9 2 5.4017 -0.0603
5 9 3 -28.6658 -0.4398
5 9 4 -22.2724 -0.2606
5 9 5 8.9348 0.6117
5 9 6 20.9400 0.4599
5 9 7 5.1301 -0.0284
5 9 8 -5.3255 -0.5775
5 9 9 -3.6873 -0.3138
5 9 10 3.2560 0.1839
5 9 11 8.2249 0.4448
5 9 12 4.1035 0.0543
5 9 13 2.8028 -0.1186
5 9 14 -1.7248 -0.2088
5 9 15 -5.0644 -0.0402
5 9 16 0.5357 0.2105
5 9 17 -3.6557 0.1137
5 9 18 2.3374 -0.1520
5 9 19 -0.0603 -0.1968
5 9 20 7.8300 0.0117
5 9 21 -5.3233 0.1760
5 10 1 -10.3501 -0.7393
5 10 2 1.7456 -0.5270
5 10 3 31.9675 -0.3870
5 10 4 22.8405 0.4785
5 10 5 -1.4499 0.3740
5 10 6 -8.6442 -0.0895
5 10 7 -10.1562 -0.3538
5 10 8 1.8332 -0.0568
5 10 9 0.5375 0.2401
5 10 10 2.3227 0.4118
5 10 11 -8.8840 -0.1308
5 10 12 2.1596 -0.2999
5 10 13 5.3805 -0.2910
5 10 14 -1.9515 0.2863
5 10 15 -9.6251 0.3127
5 10 16 -18.7933 -0.0138
5 10 17 0.9123 -0.1342
5 10 18 -0.2041 -0.0447
5 10 19 0.5859 -0.0742
5 10 20 -5.9574 0.2036
5 10 21 -7.6652 0.0595
5 11 0 27.4950 0.3916
5 11 1 -8.3620 0.6714
5 11 2 -20.7904 0.2377
5 11 3 -35.5479 -0.3140
5 11 4 1.4784 -0.1627
5 11 5 -5.1157 -0.0535
5 11 6 4.1159 0.5289
5 11 7 -5.5167 -0.0622
5 11 8 3.2107 -0.1249
5 11 9 4.1706 -0.1897
5 11 10 4.0331 0.1639
5 11 11 -7.1181 0.0540
5 11 12 -0.5294 0.0024
5 11 13 -3.4104 -0.1605
5 11 14 2.7435 0.0679
5 11 15 -0.4458 0.1281
5 11 16 3.9729 0.1406
5 11 17 8.0996 -0.0995
5 11 18 1.2967 -0.1303
5 11 19 3.6478 -0.1617
5 11 20 -10.4943 0.1246
5 11 21 3.6245 0.0204
5 12 1 -37.0703 -0.4785
5 12 2 -26.6805 -0.3016
5 12 3 -5.8302 -0.2082
5 12 4 -1.8123 0.2651
5 12 5 -3.9703 0.1354
5 12 6 -11.0635 -0.0966
5 12 7 3.1096 -0.3356
5 12 8 5.4353 0.0988
5 12 9 5.0950 0.2565
5 12 10 -13.5377 0.2074
5 12 11 -3.4150 -0.1253
5 12 12 -6.1522 -0.2562
5 12 13 1.2090 -0.1725
5 12 14 0.3322 0.1223
5 12 15 9.7180 0.2361
5 12 16 17.2529 0.0870
5 12 17 6.6389 -0.1361
5 12 18 4.0056 -0.1028
5 12 19 1.5589 0.0603
5 12 20 -0.4249 0.0866
5 12 21 12.3795 -0.0771
5 13 0 -26.6853 0.2960
5 13 1 -5.9073 0.4277
5 13 2 -28.5244 0.1569
5 13 3 -3.9444 -0.1855
5 13 4 -12.7983 -0.2082
5 13 5 10.4024 0.0199
5 13 6 -1.6840 0.1981
5 13 7 2.1661 -0.0903
5 13 8 -11.7870 0.0612
5 13 9 -4.8948 -0.0946
5 13 10 -4.1631 0.1814
5 13 11 6.4241 -0.0821
5 13 12 -3.4705 -0.0394
5 13 13 -2.3209 -0.0652
5 13 14 -6.0595 0.0974
5 13 15 -0.9539 0.1434
5 13 16 -6.7933 0.0159
5 13 17 -6.7165 -0.1000
5 13 18 -0.1659 0.0239
5 13 19 -3.0741 -0.0431
5 13 20 -3.1231 -0.0291
5 14 1 15.9316 -0.0148
5 14 2 9.4340 0.1158
5 14 3 7.3281 -0.0383
5 14 4 2.3752 0.1237
5 14 5 -5.1183 -0.0433
5 14 6 -3.1893 -0.1742
5 14 7 2.4010 -0.1599
5 14 8 4.7229 0.0273
5 14 9 1.0776 0.1741
5 14 10 2.9312 0.1959
5 14 11 0.8743 -0.0819
5 14 12 8.0222 -0.1406
5 14 13 7.6070 -0.1496
5 14 14 -5.0699 -0.0335
5 14 15 -25.7895 0.1504
5 14 16 -37.2617 0.1304
5 14 17 -26.2858 -0.0688
5 14 18 -19.9727 -0.0977
5 14 19 -9.8921 0.0310
5 14 20 5.4140 0.0740
5 15 0 12.5807 0.0017
5 15 1 -12.2453 0.2549
5 15 2 13.8269 -0.0401
5 15 3 -12.5891 -0.0478
5 15 4 5.1888 -0.1375
5 15 5 -10.2491 -0.1446
5 15 6 9.1699 0.0093
5 15 7 1.1696 0.0652
5 15 8 7.4686 0.0352
5 15 9 -5.1273 0.0412
5 15 10 -2.4353 0.0074
5 15 11 -2.6882 -0.0855
5 15 12 4.9041 -0.0056
5 15 13 0.4370 0.0668
5 15 14 0.7548 0.1395
5 15 15 -9.1710 -0.0654
5 15 16 -2.3241 -0.0479
5 15 17 -1.2964 0.0724
5 15 18 -1.4198 -0.0685
5 15 19 -3.1363 0.0907
5 15 20 -1.5998 0.0843
5 16 1 -13.7838 0.2300
5 16 2 -5.9600 0.4464
5 16 3 7.6594 0.2081
5 16 4 14.8334 -0.2242
5 16 5 7.0648 -0.2029
5 16 6 -2.5448 -0.0494
5 16 7 -6.9205 0.2140
5 16 8 1.4475 -0.0012
5 16 9 -3.1043 -0.1280
5 16 10 -0.0826 -0.0605
5 16 11 -4.6226 0.1164
5 16 12 3.2058 0.1451
5 16 13 4.1222 -0.0099
5 16 14 1.1216 -0.1756
5 16 15 -7.7303 -0.1805
5 16 16 -15.2561 0.0248
5 16 17 -5.6236 0.2069
5 16 18 3.9360 0.1056
5 16 19 10.8157 -0.0982
5 17 0 6.9981 -0.0973
5 17 1 12.8206 -0.2208
5 17 2 3.1559 -0.1365
5 17 3 6.5351 0.0514
5 17 4 5.0167 -0.0408
5 17 5 18.0107 -0.1043
5 17 6 6.8470 -0.2445
5 17 7 2.6101 0.0898
5 17 8 -4.9871 0.1866
5 17 9 3.1373 0.1476
5 17 10 -3.2891 -0.1885
5 17 11 -5.7880 -0.1237
5 17 12 -3.3446 -0.0085
5 17 13 5.7163 0.2203
5 17 14 1.6232 0.0694
5 17 15 4.2417 0.0116
5 17 16 -0.7166 -0.1656
5 17 17 2.3314 -0.1009
5 17 18 -3.5260 0.1181
5 17 19 0.7917 0.0928
5 18 1 -0.8686 0.3441
5 18 2 -4.7354 0.5938
5 18 3 -8.1506 0.1155
5 18 4 -9.9490 -0.6234
5 18 5 -2.9247 -0.2864
5 18 6 1.0722 0.3553
5 18 7 5.4659 0.6414
5 18 8 4.4281 -0.0880
5 18 9 0.9663 -0.5263
5 18 10 -6.8549 -0.3595
5 18 11 -2.9910 0.3195
5 18 12 -3.2336 0.5093
5 18 13 -1.9102 0.1287
5 18 14 -1.0037 -0.3536
5 18 15 8.8179 -0.3665
5 18 16 8.3794 -0.0741
5 18 17 8.6418 0.2452
5 18 18 5.0945 0.2137
5 18 19 5.3190 0.1400
5 19 0 13.9108 -0.2274
5 19 1 6.5558 -0.5801
5 19 2 1.6620 -0.1149
5 19 3 0.0650 0.2019
5 19 4 2.9414 0.1560
5 19 5 -3.9309 -0.2877
5 19 6 -3.8658 -0.2799
5 19 7 -3.1832 0.0829
5 19 8 -1.1643 0.3789
5 19 9 1.1089 0.1584
5 19 10 -1.4307 -0.2838
5 19 11 -1.3116 -0.2404
5 19 12 -2.2368 0.0219
5 19 13 -4.6053 0.2672
5 19 14 -2.7771 0.1710
5 19 15 -4.0719 -0.1064
5 19 16 2.8181 -0.1689
5 19 17 5.7929 -0.1425
5 19 18 4.5477 0.1431
5 20 1 0.7779 0.2331
5 20 2 0.0083 0.6359
5 20 3 -2.9582 -0.1445
5 20 4 0.1942 -0.6904
5 20 5 -5.7959 -0.3501
5 20 6 1.7356 0.4664
5 20 7 -2.5170 0.8538
5 20 8 -1.2909 -0.0230
5 20 9 -2.8530 -0.6683
5 20 10 1.3686 -0.4623
5 20 11 -0.1654 0.2691
5 20 12 2.0976 0.5704
5 20 13 2.8418 0.3077
5 20 14 3.9995 -0.3629
5 20 15 -0.6420 -0.3812
5 20 16 -0.2181 -0.1962
5 20 17 -1.7881 0.2794
5 20 18 0.7028 0.1910
5 21 0 -0.4996 -0.2460
5 21 1 -8.9563 -0.6347
5 21 2 4.8106 -0.0859
5 21 3 -2.1920 0.2317
5 21 4 5.9329 0.3182
5 21 5 -1.0452 -0.4094
5 21 6 -0.8321 -0.3298
5 21 7 -4.7554 0.0886
5 21 8 0.4085 0.5523
5 21 9 -2.4122 0.1077
5 21 10 2.9915 -0.2556
5 21 11 4.2804 -0.4178
5 21 12 4.8117 0.0868
5 21 13 4.3557 0.2869
5 21 14 3.2030 0.1812
5 21 15 -1.8522 -0.1938
5 21 16 -3.0756 -0.0724
5 21 17 -1.7508 -0.0617
5 22 1 1.2525 0.2725
5 22 2 3.5687 0.5041
5 22 3 3.1137 -0.2187
5 22 4 -1.2795 -0.7141
5 22 5 -0.3161 -0.3494
5 22 6 -4.4270 0.4373
5 22 7 -0.8101 0.7808
5 22 8 -0.6329 -0.0096
5 22 9 -1.3968 -0.4847
5 22 10 1.3974 -0.4861
5 22 11 2.1474 0.1906
5 22 12 2.0871 0.4655
5 22 13 1.9635 0.2345
5 22 14 -0.2842 -0.1342
5 22 15 -1.2552 -0.3375
5 22 16 1.2826 -0.1327
5 22 17 0.6144 0.1102
5 23 0 0.6554 -0.2204
5 23 1 -0.4563 -0.6441
5 23 2 -2.7836 -0.1378
5 23 3 1.2601 0.3212
5 23 4 1.2925 0.2443
5 23 5 -0.1187 -0.4186
5 23 6 -0.5272 -0.3525
5 23 7 1.5462 0.1192
5 23 8 -2.3591 0.5115
5 23 9 0.9671 0.1370
5 23 10 -0.4556 -0.2418
5 23 11 -0.4255 -0.3996
5 23 12 -4.4727 0.0657
5 23 13 -4.3275 0.1833
5 23 14 -2.9842 0.1945
5 23 15 2.7110 -0.1586
5 23 16 -3.9366 -0.1063
5 24 1 0.7518 0.4543
5 24 2 -0.4783 0.4372
5 24 3 -1.6930 -0.1995
5 24 4 -1.6747 -0.7063
5 24 5 -0.1985 -0.3147
5 24 6 6.0459 0.3651
5 24 7 0.2233 0.6307
5 24 8 -0.7087 0.0131
5 24 9 -2.0658 -0.3843
5 24 10 1.6976 -0.4234
5 24 11 1.2955 0.1244
5 24 12 3.2502 0.3608
5 24 13 -0.7929 0.2273
5 24 14 -0.6033 -0.1383
5 24 15 0.9671 -0.2167
5 25 0 0.0226 -0.2718
5 25 1 -2.3107 -0.5172
5 25 2 0.6288 -0.1944
5 25 3 -4.2757 0.1685
5 25 4 -1.0348 0.1707
5 25 5 -2.1015 -0.1557
5 25 6 2.3022 -0.3878
5 25 7 0.4537 0.0536
5 25 8 3.2007 0.3016
5 25 9 0.2253 0.1924
5 25 10 0.6037 -0.2034
5 25 11 -1.2851 -0.1994
5 25 12 -0.8865 -0.0351
5 25 13 -2.4866 0.1502
5 25 14 0.5038 0.0339
5 26 1 2.9543 0.2032
5 26 2 4.2300 0.4474
5 26 3 -2.1723 -0.0692
5 26 4 -1.5154 -0.5506
5 26 5 -3.2844 -0.1531
5 26 6 0.2472 0.2165
5 26 7 -0.7725 0.4469
5 26 8 -0.6685 -0.0628
5 26 9 -1.3786 -0.3246
5 26 10 -0.4391 -0.1191
5 26 11 0.8099 0.0995
5 26 12 -4.3057 0.1076
5 26 13 -0.8819 0.0351
5 26 14 -0.9282 -0.0555
5 27 0 -0.6393 -0.1180
5 27 1 -3.9862 -0.4376
5 27 2 0.6250 -0.1907
5 27 3 -3.2324 0.0213
5 27 4 -0.6379 0.2222
5 27 5 -1.6901 -0.0688
5 27 6 0.6632 -0.2225
5 27 7 -0.3042 -0.0602
5 27 8 0.5952 0.1695
5 27 9 -0.4410 0.1301
5 27 10 -1.2233 -0.2146
5 27 11 -2.0431 0.0487
5 27 12 -1.6481 -0.1226
5 27 13 1.5961 0.2101
5 28 1 -1.4476 0.0339
5 28 2 -0.9536 0.2366
5 28 3 2.9133 0.0481
5 28 4 2.4936 -0.0779
5 28 5 1.9386 -0.0349
5 28 6 0.9375 0.0144
5 28 7 3.6621 0.1669
5 28 8 0.8849 -0.0088
5 28 9 -0.3902 -0.0460
5 28 10 -1.1034 -0.0589
5 28 11 -1.0789 -0.0919
5 28 12 3.0160 0.1853
5 29 0 0.0197 0.1363
5 29 1 -1.1328 -0.1524
5 29 2 0.9977 -0.1254
5 29 3 -0.0608 -0.0631
5 29 4 -0.0509 0.1289
5 29 5 -0.5582 0.0509
5 29 6 1.4261 -0.1201
5 29 7 0.7350 0.0916
5 29 8 -1.1051 -0.0531
5 29 9 0.7590 0.1930
5 29 10 -0.3078 -0.2727
5 29 11 0.5333 -0.1536
5 30 1 1.7834 -0.1913
5 30 2 3.5840 0.0865
5 30 3 0.8005 0.0133
5 30 4 -0.3878 0.3844
5 30 5 2.2651 0.1723
5 30 6 4.5729 -0.1973
5 30 7 3.2088 -0.1333
5 30 8 2.4849 0.0860
5 30 9 1.3017 0.3088
5 31 0 1.2405 0.3445
5 31 1 2.5384 0.0829
5 31 2 2.9143 -0.1318
5 31 3 2.3147 0.0935
5 31 4 2.4853 -0.0485
5 31 5 0.0971 0.3050
5 31 6 -1.4698 -0.2101
5 31 7 -0.6471 0.0594
5 31 8 -0.0614 0.0673
5 32 1 -1.2182 -0.1307
5 32 2 -3.5379 -0.0026
5 32 3 -1.6690 0.0253
5 32 4 1.7963 0.1125
5 32 5 1.5421 0.2185
5 32 6 2.6855 0.1489
5 33 0 7.9654 0.0389
5 33 1 2.6202 0.3917
5 33 2 3.5912 -0.0809
6 0 0 69.0520 -1.5026
6 0 1 104.4368 -0.8399
6 0 2 -17.7886 -0.9441
6 0 3 6.7605 -0.2348
6 0 4 -4.4551 -0.1025
6 0 5 55.1025 0.3207
6 0 6 30.2893 0.5376
6 0 7 26.5934 -0.3921
6 0 8 -20.3865 -0.3797
6 0 9 -24.6189 -0.4136
6 0 10 -23.6824 0.4108
6 0 11 -18.7676 0.2990
6 0 12 -8.5024 0.2364
6 0 13 -5.1217 -0.5136
6 0 14 2.0587 -0.2090
6 0 15 1.5189 -0.0013
6 0 16 1.7064 0.5148
6 0 17 -21.8190 0.0178
6 0 18 -2.5235 -0.1357
6 0 19 -4.8516 -0.3535
6 0 20 4.1130 0.0418
6 0 21 4.8554 0.0961
6 0 22 0.5257 0.1482
6 1 1 -4.2419 3.7786
6 1 2 0.8939 0.9971
6 1 3 -0.9494 -0.6059
6 1 4 7.3626 -2.3672
6 1 5 -2.9460 -1.3023
6 1 6 2.0816 1.6967
6 1 7 -13.4740 1.8449
6 1 8 -15.7389 -0.0071
6 1 9 -13.2753 -1.2908
6 1 10 7.3179 -1.1611
6 1 11 18.1223 0.1084
6 1 12 4.6231 1.3584
6 1 13 -2.6546 0.6744
6 1 14 -0.3726 -0.3081
6 1 15 -1.7930 -1.2805
6 1 16 2.2757 -0.1743
6 1 17 -6.2168 0.5810
6 1 18 21.5930 0.8236
6 1 19 -0.5795 -0.0881
6 1 20 -4.7479 -0.5444
6 1 21 -22.8274 -0.6029
6 1 22 -4.9802 0.2502
6 2 0 -26.7525 0.3288
6 2 1 -74.1299 -0.0445
6 2 2 -17.0421 -0.2980
6 2 3 -11.8897 -0.6849
6 2 4 31.3930 -0.1156
6 2 5 5.8899 0.0144
6 2 6 -39.8461 0.3183
6 2 7 -47.0040 -0.2848
6 2 8 -17.4221 -0.0944
6 2 9 22.2143 -0.1744
6 2 10 14.0587 0.2845
6 2 11 4.2021 0.0381
6 2 12 -2.8326 -0.0516
6 2 13 -6.4367 -0.2013
6 2 14 1.1371 0.0513
6 2 15 -7.2364 0.0466
6 2 16 -0.8410 0.1927
6 2 17 6.5711 -0.1449
6 2 18 0.8553 -0.0240
6 2 19 -0.2215 -0.0791
6 2 20 2.4140 0.0865
6 2 21 -2.2229 0.0599
6 2 22 0.5346 0.0503
6 3 1 -1.1447 0.6698
6 3 2 -14.3950 0.9840
6 3 3 -6.3114 0.1572
6 3 4 -6.5156 -0.6269
6 3 5 23.6908 -0.1174
6 3 6 -1.5033 -0.3277
6 3 7 -8.4168 0.1373
6 3 8 -18.4336 0.2926
6 3 9 2.1438 0.0227
6 3 10 2.0813 0.0973
6 3 11 -17.8393 0.1782
6 3 12 -2.3375 -0.2588
6 3 13 -3.4542 -0.0613
6 3 14 -0.5851 0.0374
6 3 15 -6.8890 0.0996
6 3 16 -6.3508 0.0373
6 3 17 20.8283 -0.0028
6 3 18 -15.6604 -0.1134
6 3 19 18.1421 -0.0374
6 3 20 10.2150 0.0792
6 3 21 22.7190 0.1830
6 3 22 -9.9471 -0.0892
6 4 0 -20.8819 0.4758
6 4 1 -1.5205 0.2871
6 4 2 -31.4093 0.1499
6 4 3 1.7595 -0.2702
6 4 4 -35.7297 -0.1865
6 4 5 -36.6375 -0.1511
6 4 6 -53.8593 -0.2670
6 4 7 -25.4567 0.0784
6 4 8 8.9745 0.0936
6 4 9 29.5320 0.1714
6 4 10 24.9043 -0.0869
6 4 11 4.8391 -0.1359
6 4 12 -6.3234 -0.0949
6 4 13 -2.5708 0.0321
6 4 14 -2.7728 0.1520
6 4 15 6.1907 0.0618
6 4 16 3.6925 -0.1429
6 4 17 -10.2148 -0.0243
6 4 18 -6.4206 0.0217
6 4 19 -2.9968 0.0300
6 4 20 -6.2759 0.0676
6 4 21 -14.2569 0.0100
6 4 22 -5.6725 -0.0518
6 5 1 -31.6346 -0.5298
6 5 2 -2.9658 0.5573
6 5 3 15.6419 0.3153
6 5 4 30.7671 0.3459
6 5 5 -7.1853 -0.2520
6 5 6 16.4446 -0.3153
6 5 7 0.2392 -0.1297
6 5 8 -5.5413 -0.2657
6 5 9 -26.0660 0.6043
6 5 10 -9.8204 0.3032
6 5 11 16.0875 -0.0840
6 5 12 5.7240 -0.1921
6 5 13 1.4662 -0.1032
6 5 14 -12.4943 -0.2023
6 5 15 -5.0206 0.4117
6 5 16 3.1589 -0.0113
6 5 17 -6.7548 -0.0150
6 5 18 17.5483 -0.2079
6 5 19 -1.3714 -0.0054
6 5 20 3.3980 0.0610
6 5 21 -7.0060 0.1641
6 5 22 0.8181 0.0571
6 6 0 -50.8873 0.1247
6 6 1 4.1377 -0.0261
6 6 2 9.8116 0.0443
6 6 3 53.4444 -0.0824
6 6 4 34.2277 0.3768
6 6 5 21.8233 -0.1279
6 6 6 -22.5921 0.0551
6 6 7 12.2801 -0.4857
6 6 8 -2.8257 0.0528
6 6 9 4.7408 0.0302
6 6 10 -10.1429 0.3045
6 6 11 -1.4761 -0.1499
6 6 12 5.6199 0.0194
6 6 13 -0.3999 -0.0763
6 6 14 10.5814 0.0354
6 6 15 -3.1903 -0.1914
6 6 16 -0.9748 0.1105
6 6 17 7.6026 0.0278
6 6 18 27.9115 0.1420
6 6 19 7.0680 -0.0640
6 6 20 -12.2193 -0.0942
6 6 21 -14.5035 -0.0609
6 6 22 -2.8690 0.0993
6 7 1 27.7682 -0.2493
6 7 2 0.6232 0.4770
6 7 3 -26.9276 0.1057
6 7 4 -28.0685 -0.2563
6 7 5 5.5097 -0.1481
6 7 6 -1.3394 0.1616
6 7 7 7.5298 0.3041
6 7 8 7.7312 -0.0315
6 7 9 15.5969 -0.2916
6 7 10 11.1197 -0.1999
6 7 11 1.4904 0.3195
6 7 12 -2.5097 0.0763
6 7 13 -13.6696 0.1187
6 7 14 -3.2971 -0.0994
6 7 15 -4.0497 -0.2881
6 7 16 0.3567 -0.0237
6 7 17 -1.3206 0.3476
6 7 18 -1.5558 -0.0662
6 7 19 -3.7730 -0.0561
6 7 20 0.7581 -0.1612
6 7 21 -2.6339 -0.0269
6 7 22 -0.9464 0.0730
6 8 0 103.9293 0.1008
6 8 1 35.7749 -0.0164
6 8 2 22.3861 -0.1385
6 8 3 -19.6938 -0.1733
6 8 4 -11.2875 0.3188
6 8 5 -13.8534 0.1781
6 8 6 0.5610 0.2833
6 8 7 -10.9677 -0.4021
6 8 8 3.8890 -0.1423
6 8 9 -0.2968 -0.1954
6 8 10 1.0450 0.2279
6 8 11 -5.8602 0.1645
6 8 12 -1.3157 0.1207
6 8 13 -0.6652 -0.1684
6 8 14 0.0195 -0.1363
6 8 15 -7.7845 -0.1543
6 8 16 -5.6588 0.1270
6 8 17 -3.1544 0.1194
6 8 18 9.3465 0.0546
6 8 19 24.6505 -0.1603
6 8 20 23.6580 -0.0333
6 8 21 8.6257 0.0189
6 9 1 -19.4337 0.4044
6 9 2 -3.6739 0.3205
6 9 3 14.1426 -0.2027
6 9 4 2.0703 -0.6170
6 9 5 -15.7359 -0.1411
6 9 6 -6.8985 0.4587
6 9 7 6.1949 0.5612
6 9 8 3.9515 -0.0643
6 9 9 3.4340 -0.5008
6 9 10 3.7435 -0.3420
6 9 11 3.0534 0.0029
6 9 12 -3.6525 0.4779
6 9 13 -8.8964 0.1768
6 9 14 -1.9593 -0.1129
6 9 15 3.0426 -0.2940
6 9 16 10.7254 -0.1177
6 9 17 10.8607 0.0775
6 9 18 14.1495 0.3695
6 9 19 17.9778 -0.0391
6 9 20 11.8439 -0.2785
6 9 21 3.9126 -0.2841
6 10 0 -23.8185 -0.0758
6 10 1 13.4086 0.1314
6 10 2 -16.4361 -0.2629
6 10 3 18.3993 0.2336
6 10 4 0.0047 -0.2059
6 10 5 20.2489 0.3928
6 10 6 -7.7574 -0.1770
6 10 7 17.4847 0.2479
6 10 8 3.4959 -0.3066
6 10 9 9.4856 0.0749
6 10 10 -6.9116 -0.1847
6 10 11 -3.0790 0.2059
6 10 12 -5.6718 -0.0459
6 10 13 7.0649 0.1513
6 10 14 5.4390 -0.2115
6 10 15 7.7787 0.0503
6 10 16 4.1253 -0.1215
6 10 17 1.8525 0.0999
6 10 18 3.0426 -0.0257
6 10 19 -16.2398 0.0375
6 10 20 -14.9377 -0.1000
6 10 21 -10.6897 -0.0274
6 11 1 -24.6805 0.3718
6 11 2 -21.1530 0.5686
6 11 3 -1.9116 -0.1613
6 11 4 13.4856 -0.6468
6 11 5 4.1647 -0.2823
6 11 6 -1.2467 0.2970
6 11 7 -13.5920 0.5270
6 11 8 -2.8379 -0.0515
6 11 9 -8.1469 -0.3195
6 11 10 0.2236 -0.1743
6 11 11 -2.7720 -0.0807
6 11 12 7.8426 0.2378
6 11 13 6.6366 0.0362
6 11 14 3.9840 0.0508
6 11 15 -0.0603 -0.1260
6 11 16 -0.6567 -0.0614
6 11 17 0.7632 -0.0141
6 11 18 0.9090 0.1835
6 11 19 -5.4141 0.0649
6 11 20 -8.2591 -0.0704
6 11 21 2.2704 -0.3873
6 12 0 -0.9223 0.0171
6 12 1 -12.5159 0.5216
6 12 2 -11.6401 -0.2365
6 12 3 -20.0304 0.0407
6 12 4 -4.4943 -0.2510
6 12 5 -3.0973 0.3358
6 12 6 16.5669 0.0077
6 12 7 10.5399 0.1563
6 12 8 5.8720 -0.4257
6 12 9 -7.0232 0.1329
6 12 10 -3.4386 -0.0915
6 12 11 -4.8959 0.2813
6 12 12 0.8609 -0.1532
6 12 13 -10.8427 0.0210
6 12 14 -1.7713 -0.1361
6 12 15 -0.7255 0.1320
6 12 16 4.6123 -0.0268
6 12 17 0.3288 0.0674
6 12 18 -4.5167 -0.1602
6 12 19 -2.3551 0.0650
6 12 20 -6.1251 -0.0265
6 12 21 -0.4656 0.0245
6 13 1 10.2626 -0.0108
6 13 2 9.6988 0.7232
6 13 3 -1.6575 -0.0182
6 13 4 -6.5923 -0.6096
6 13 5 -5.6218 -0.4191
6 13 6 -7.0576 0.1806
6 13 7 8.0458 0.5021
6 13 8 0.7680 0.1029
6 13 9 3.6188 -0.3707
6 13 10 -8.2896 -0.2657
6 13 11 -0.9164 0.0469
6 13 12 -4.9407 0.2924
6 13 13 4.6657 0.1066
6 13 14 -0.0516 -0.1021
6 13 15 -2.3383 -0.2870
6 13 16 -3.2059 -0.0043
6 13 17 5.0452 0.2289
6 13 18 0.6626 0.1273
6 13 19 -1.7151 0.0268
6 13 20 -1.8954 -0.0033
6 14 0 -15.1218 0.0719
6 14 1 3.7178 0.6923
6 14 2 4.5707 -0.0394
6 14 3 16.2494 -0.0628
6 14 4 -11.5899 -0.2143
6 14 5 -5.5867 0.2552
6 14 6 -17.1357 0.1273
6 14 7 -2.2235 -0.0309
6 14 8 -3.9829 -0.3083
6 14 9 -2.3797 0.0406
6 14 10 -2.8633 0.0956
6 14 11 1.5848 0.2200
6 14 12 0.6527 -0.2288
6 14 13 3.1389 -0.0241
6 14 14 -1.7949 -0.0641
6 14 15 -0.8066 0.1930
6 14 16 -2.0712 0.0368
6 14 17 -5.3889 -0.0561
6 14 18 -5.7787 -0.1047
6 14 19 -7.2761 0.0297
6 14 20 3.1442 0.0875
6 15 1 -16.3336 -0.1789
6 15 2 -15.3112 0.5890
6 15 3 4.7497 -0.0466
6 15 4 10.0723 -0.4932
6 15 5 7.9687 -0.5086
6 15 6 -1.0476 0.3635
6 15 7 -3.3185 0.5769
6 15 8 -0.7246 -0.0756
6 15 9 3.1673 -0.5255
6 15 10 -0.5165 -0.2366
6 15 11 -0.3154 0.1143
6 15 12 1.4938 0.5020
6 15 13 -3.6922 0.1038
6 15 14 -0.6145 -0.2352
6 15 15 -1.1443 -0.3356
6 15 16 -1.5323 -0.0549
6 15 17 -4.9219 0.2654
6 15 18 3.7681 0.2266
6 15 19 3.1979 -0.0117
6 15 20 -2.1336 0.1285
6 16 0 9.2786 -0.0464
6 16 1 -0.8922 0.6361
6 16 2 11.8264 -0.0084
6 16 3 -2.1734 0.0983
6 16 4 0.3090 -0.1266
6 16 5 -7.1401 0.1630
6 16 6 9.3641 0.1246
6 16 7 4.7139 -0.0596
6 16 8 -1.9038 -0.1740
6 16 9 -9.3937 -0.0067
6 16 10 -5.1381 0.1185
6 16 11 4.0321 0.1465
6 16 12 4.5690 -0.0973
6 16 13 -0.8492 -0.1793
6 16 14 -2.1733 -0.0362
6 16 15 -3.9750 0.2328
6 16 16 -0.1604 0.0361
6 16 17 -6.5515 0.0218
6 16 18 -2.6823 -0.1236
6 16 19 -1.6270 0.0006
6 17 1 7.8706 -0.3525
6 17 2 6.9543 0.4628
6 17 3 2.9558 -0.0645
6 17 4 -0.6509 -0.4991
6 17 5 -2.0545 -0.3606
6 17 6 -2.6980 0.4001
6 17 7 -1.8435 0.5224
6 17 8 3.5565 -0.0656
6 17 9 -0.0522 -0.6283
6 17 10 2.7968 -0.2704
6 17 11 -2.3904 0.1722
6 17 12 1.2067 0.5227
6 17 13 1.3165 0.1434
6 17 14 0.5057 -0.2001
6 17 15 -2.9639 -0.4104
6 17 16 2.0584 -0.0666
6 17 17 0.2773 0.2822
6 17 18 -3.2108 0.2414
6 17 19 -1.3688 0.0103
6 18 0 -3.2698 0.1073
6 18 1 5.5853 0.4815
6 18 2 1.1476 -0.1824
6 18 3 6.7028 0.2193
6 18 4 -3.8910 -0.1046
6 18 5 -3.8490 0.1749
6 18 6 -9.8636 -0.0130
6 18 7 7.2297 0.1250
6 18 8 4.8855 -0.1156
6 18 9 2.5745 0.0377
6 18 10 -1.9586 0.0245
6 18 11 0.1109 0.0940
6 18 12 2.8915 -0.1809
6 18 13 2.8883 0.0409
6 18 14 -1.5914 -0.0849
6 18 15 3.3608 0.1504
6 18 16 -0.2441 0.0348
6 18 17 6.3153 -0.0127
6 18 18 0.4690 -0.0628
6 19 1 -1.7879 -0.2150
6 19 2 -2.1568 0.2391
6 19 3 -3.1247 -0.1331
6 19 4 -0.1238 -0.4517
6 19 5 1.8450 -0.1636
6 19 6 -2.4311 0.2711
6 19 7 2.3889 0.4045
6 19 8 2.0422 -0.1075
6 19 9 5.9393 -0.4252
6 19 10 1.1333 -0.2022
6 19 11 2.1269 0.0744
6 19 12 0.1220 0.3470
6 19 13 -0.2973 0.1026
6 19 14 -4.1117 -0.0610
6 19 15 2.2944 -0.2475
6 19 16 -3.1867 -0.0421
6 19 17 2.6941 0.1741
6 19 18 -3.6412 0.1041
6 20 0 13.9542 -0.3360
6 20 1 -0.5061 0.2301
6 20 2 -2.1490 -0.2207
6 20 3 -8.9606 0.3433
6 20 4 -0.0297 -0.2092
6 20 5 -8.5741 0.1650
6 20 6 2.5223 -0.2326
6 20 7 -2.6264 0.3245
6 20 8 5.1592 -0.0949
6 20 9 0.5288 0.2969
6 20 10 3.9552 -0.2917
6 20 11 7.8624 0.0656
6 20 12 2.0866 -0.2022
6 20 13 -1.4549 0.1584
6 20 14 -2.7365 0.0236
6 20 15 0.8548 0.1206
6 20 16 5.6851 -0.2008
6 20 17 0.3348 0.0768
6 20 18 -2.0533 -0.0876
6 21 1 0.7156 -0.3504
6 21 2 1.6659 0.2168
6 21 3 3.8376 -0.0862
6 21 4 0.1908 -0.2798
6 21 5 -5.3915 -0.0862
6 21 6 -2.1985 -0.0079
6 21 7 -0.9526 0.1914
6 21 8 3.3661 -0.0590
6 21 9 1.4420 -0.0587
6 21 10 -0.0245 -0.0546
6 21 11 1.4747 -0.0840
6 21 12 4.2285 0.0670
6 21 13 2.4263 0.0357
6 21 14 1.0425 0.0106
6 21 15 -1.5022 0.0110
6 21 16 2.1572 -0.0229
6 21 17 -0.0024 0.0608
6 22 0 -6.3366 -0.4336
6 22 1 3.1456 -0.0205
6 22 2 -4.8952 -0.2139
6 22 3 6.1224 0.1189
6 22 4 -3.7471 -0.2175
6 22 5 6.4525 0.1108
6 22 6 -5.1640 -0.1090
6 22 7 5.6546 0.2490
6 22 8 -1.7197 -0.1314
6 22 9 0.0086 0.1347
6 22 10 -2.4684 -0.1719
6 22 11 0.7420 0.1231
6 22 12 0.0816 -0.1444
6 22 13 -3.2836 0.1145
6 22 14 -0.9881 -0.0686
6 22 15 0.9281 0.0981
6 22 16 1.0920 -0.0609
6 23 1 -4.3957 -0.5001
6 23 2 -4.5704 0.2324
6 23 3 -1.8081 -0.0637
6 23 4 -0.1132 -0.0929
6 23 5 3.3132 -0.0271
6 23 6 -0.2039 -0.0977
6 23 7 -0.3998 -0.0619
6 23 8 -5.3916 -0.1432
6 23 9 -5.2510 0.2044
6 23 10 -2.8102 0.2260
6 23 11 -1.2816 -0.1025
6 23 12 -2.6732 -0.1929
6 23 13 -1.1021 -0.1237
6 23 14 2.1391 0.0390
6 23 15 1.5226 0.0994
6 23 16 -0.6412 -0.0531
6 24 0 2.0881 -0.4452
6 24 1 -5.4560 -0.1325
6 24 2 2.3471 -0.2881
6 24 3 -3.2379 -0.0350
6 24 4 7.7337 -0.1141
6 24 5 -0.0316 -0.0173
6 24 6 7.8190 0.0281
6 24 7 -1.9635 -0.0046
6 24 8 3.0209 -0.0273
6 24 9 -2.9569 -0.0092
6 24 10 2.5303 -0.0340
6 24 11 -1.5874 -0.0175
6 24 12 3.8442 -0.0177
6 24 13 3.0549 0.1695
6 24 14 -1.7941 -0.0387
6 24 15 -3.0468 -0.0952
6 25 1 1.4103 -0.4485
6 25 2 1.7507 0.1178
6 25 3 1.3592 -0.0640
6 25 4 -1.9983 0.0550
6 25 5 -2.9939 0.1161
6 25 6 0.6096 -0.0580
6 25 7 3.3300 -0.2910
6 25 8 4.0200 -0.2236
6 25 9 0.3176 0.3568
6 25 10 0.9446 0.3509
6 25 11 -2.7827 -0.0116
6 25 12 -0.2460 -0.3601
6 25 13 -0.8884 -0.1600
6 25 14 0.0964 0.0500
6 26 0 -7.6157 -0.3423
6 26 1 -4.3186 -0.3049
6 26 2 -4.2998 -0.2253
6 26 3 0.6359 -0.0524
6 26 4 -2.2679 -0.0384
6 26 5 -0.3163 -0.0572
6 26 6 -1.8463 -0.0362
6 26 7 1.9670 -0.0654
6 26 8 -1.3856 0.0141
6 26 9 -0.3193 0.0009
6 26 10 -2.7343 -0.0566
6 26 11 2.9236 -0.0280
6 26 12 0.6141 0.0312
6 26 13 1.6411 0.0428
6 26 14 0.6191 0.0683
6 27 1 -2.8130 -0.5780
6 27 2 0.1569 -0.0688
6 27 3 2.1861 -0.0926
6 27 4 2.1200 0.2881
6 27 5 -3.8817 0.3677
6 27 6 -2.7904 -0.1353
6 27 7 -1.7471 -0.3940
6 27 8 1.2315 -0.1972
6 27 9 -0.7396 0.3330
6 27 10 -2.3809 0.3299
6 27 11 0.3168 0.0118
6 27 12 0.6409 -0.2249
6 27 13 -0.4669 -0.0282
6 28 0 3.8986 -0.1999
6 28 1 0.3264 -0.3361
6 28 2 3.2156 -0.1191
6 28 3 -1.3138 0.0012
6 28 4 1.6920 0.0129
6 28 5 -1.9406 -0.0861
6 28 6 1.2887 -0.2360
6 28 7 -0.9975 0.1120
6 28 8 2.9581 0.0337
6 28 9 -1.4844 0.0886
6 28 10 1.2354 -0.1179
6 28 11 -0.4115 -0.0405
6 28 12 0.1852 -0.0609
6 29 1 1.8383 -0.5290
6 29 2 2.5570 -0.1464
6 29 3 1.3133 -0.0931
6 29 4 0.9431 0.2950
6 29 5 0.7474 0.4751
6 29 6 -0.4850 -0.1426
6 29 7 -0.4763 -0.2622
6 29 8 -0.4793 -0.0859
6 29 9 -1.0688 0.1278
6 29 10 -1.3283 0.1470
6 30 0 0.6208 0.1493
6 30 1 -0.2512 -0.2653
6 30 2 -0.5244 -0.1779
6 30 3 3.5479 0.0390
6 30 4 0.7416 0.0051
6 30 5 -0.5298 -0.1277
6 30 6 -3.0137 -0.1717
6 30 7 0.6468 0.1774
6 30 8 -1.1571 0.0414
6 30 9 -1.1252 0.1473
6 31 1 1.9562 -0.3332
6 31 2 1.2591 0.0373
6 31 3 1.3928 -0.0690
6 31 4 1.1324 0.0804
6 31 5 1.8723 0.1812
6 31 6 0.7480 0.1359
6 31 7 -0.6094 0.0706
6 32 0 -1.7297 0.3599
6 32 1 3.2237 -0.4779
6 32 2 0.0300 -0.0920
6 32 3 0.4488 -0.3134
6 32 4 0.2300 0.2442
6 32 5 -0.5233 -0.0550
6 33 1 2.2408 0.0630
7 1 0 82.4642 0.3584
7 1 1 98.9351 0.9518
7 1 2 27.8452 0.5160
7 1 3 -1.8046 -0.0797
7 1 4 -20.7798 0.3206
7 1 5 28.8604 -0.3767
7 1 6 -16.8632 0.3130
7 1 7 -14.8353 -0.3025
7 1 8 -16.1921 0.1189
7 1 9 18.2020 -0.3257
7 1 10 0.3655 0.5051
7 1 11 0.2164 -0.1289
7 1 12 -9.6940 0.1023
7 1 13 -7.6030 -0.3928
7 1 14 -4.3229 0.2872
7 1 15 5.9840 -0.1148
7 1 16 -14.8610 0.2168
7 1 17 -5.2974 -0.1690
7 1 18 -28.0086 0.0347
7 1 19 -39.1281 -0.0795
7 1 20 -29.7098 0.3388
7 1 21 1.7443 -0.1528
7 1 22 1.0248 0.1312
7 2 1 -38.2810 0.2343
7 2 2 -37.5111 -0.4767
7 2 3 1.6760 -0.1719
7 2 4 31.7994 0.1261
7 2 5 12.8140 0.0083
7 2 6 0.1480 0.0299
7 2 7 -9.0420 0.1069
7 2 8 16.5545 0.0415
7 2 9 22.5106 -0.1857
7 2 10 15.9569 -0.1053
7 2 11 20.8520 0.0200
7 2 12 11.4513 0.2162
7 2 13 19.1204 -0.0692
7 2 14 -2.5018 0.1558
7 2 15 -4.0332 -0.2106
7 2 16 -6.9323 -0.0517
7 2 17 -11.5206 0.0290
7 2 18 26.0781 0.2135
7 2 19 46.4301 -0.1073
7 2 20 79.1122 0.0288
7 2 21 33.6781 -0.1004
7 2 22 4.0330 -0.0243
7 3 0 137.7532 -0.2195
7 3 1 99.4596 0.7731
7 3 2 50.4379 0.3408
7 3 3 13.8110 -0.0846
7 3 4 -7.7219 0.0818
7 3 5 -35.9707 -0.3433
7 3 6 -17.1166 0.2558
7 3 7 -4.5349 -0.4037
7 3 8 11.3241 0.5736
7 3 9 6.8195 -0.1667
7 3 10 0.2725 0.1054
7 3 11 -13.1147 -0.3428
7 3 12 -8.7256 0.0662
7 3 13 -3.2488 0.0171
7 3 14 -5.3805 0.4402
7 3 15 -10.1408 -0.1973
7 3 16 -0.6795 -0.0157
7 3 17 -13.3073 -0.3456
7 3 18 -11.4611 0.2124
7 3 19 -12.0362 0.0654
7 3 20 -13.5301 0.2508
7 3 21 -14.2659 -0.0325
7 3 22 6.0389 -0.0074
7 4 1 -40.8600 0.0437
7 4 2 -33.4031 -0.0536
7 4 3 -5.9283 0.1824
7 4 4 6.2944 -0.2239
7 4 5 11.6410 -0.0204
7 4 6 -4.4200 0.3152
7 4 7 11.3271 0.2435
7 4 8 -4.5311 -0.0945
7 4 9 -6.7493 -0.3865
7 4 10 -0.1596 -0.1678
7 4 11 -8.8492 0.1672
7 4 12 -4.4227 0.2669
7 4 13 -21.6392 0.1130
7 4 14 6.2021 -0.1451
7 4 15 3.9789 -0.2830
7 4 16 2.6746 0.1036
7 4 17 15.6904 -0.0065
7 4 18 19.6279 0.1551
7 4 19 36.8358 0.0499
7 4 20 0.4608 -0.1904
7 4 21 7.2179 -0.0919
7 4 22 4.2989 -0.0424
7 5 0 -33.1650 0.0115
7 5 1 -40.1488 0.3372
7 5 2 79.9917 -0.2567
7 5 3 40.2537 -0.4533
7 5 4 32.1425 -0.7821
7 5 5 -31.7107 0.9370
7 5 6 -26.7420 0.1941
7 5 7 -35.4639 0.2318
7 5 8 -1.9424 -0.8695
7 5 9 7.2342 0.0746
7 5 10 18.6866 0.0509
7 5 11 7.5906 0.4562
7 5 12 -2.7386 -0.1042
7 5 13 -1.3603 0.0634
7 5 14 0.4878 -0.4544
7 5 15 -2.5878 0.2865
7 5 16 -5.5271 0.0756
7 5 17 -2.1030 0.2119
7 5 18 -7.1635 -0.3028
7 5 19 -15.0838 -0.1384
7 5 20 -8.0700 -0.0377
7 5 21 -0.7235 0.4451
7 5 22 0.1137 0.1065
7 6 1 14.7864 0.5414
7 6 2 14.6831 0.4229
7 6 3 18.0001 -0.0135
7 6 4 21.3455 -0.4471
7 6 5 6.1174 -0.1653
7 6 6 0.7267 0.4395
7 6 7 -23.2159 0.7143
7 6 8 -0.5744 -0.0817
7 6 9 9.0693 -0.6002
7 6 10 4.9371 -0.5613
7 6 11 -0.8475 0.3296
7 6 12 -6.0606 0.5029
7 6 13 1.9972 0.1616
7 6 14 -11.0419 -0.2708
7 6 15 -10.0569 -0.2587
7 6 16 -7.1839 -0.1326
7 6 17 -1.1766 0.3151
7 6 18 2.9151 0.1096
7 6 19 -13.1274 -0.1289
7 6 20 -9.8796 -0.1353
7 6 21 -13.0841 -0.1038
7 6 22 -0.4142 -0.0938
7 7 0 -4.4115 0.2669
7 7 1 52.0359 0.0402
7 7 2 -86.2202 -0.8707
7 7 3 -1.1716 -0.5369
7 7 4 -25.8086 -0.3803
7 7 5 40.8190 0.9274
7 7 6 -7.8015 0.1615
7 7 7 15.0879 0.2032
7 7 8 -12.9348 -1.1046
7 7 9 7.9132 0.1254
7 7 10 -7.2606 -0.0307
7 7 11 -3.3521 0.7671
7 7 12 -4.7331 -0.0550
7 7 13 -4.7664 -0.0796
7 7 14 -3.1259 -0.5654
7 7 15 8.7959 0.1642
7 7 16 7.7907 0.1301
7 7 17 3.5617 0.5016
7 7 18 -8.5688 -0.3997
7 7 19 -3.3684 -0.2018
7 7 20 2.5859 -0.1741
7 7 21 9.0546 0.2349
7 7 22 3.6593 0.2127
7 8 1 -42.5442 0.5227
7 8 2 -29.7293 0.5098
7 8 3 -0.0817 0.0934
7 8 4 21.8337 -0.5505
7 8 5 5.7330 -0.3279
7 8 6 -15.6885 0.4601
7 8 7 -9.8121 0.6845
7 8 8 -3.5569 0.0511
7 8 9 -1.0829 -0.4101
7 8 10 -2.2316 -0.4920
7 8 11 2.3264 0.0771
7 8 12 -0.5200 0.3000
7 8 13 1.7212 0.3272
7 8 14 -5.5485 -0.1795
7 8 15 -5.2611 -0.2149
7 8 16 0.1703 -0.0448
7 8 17 -0.4815 0.1141
7 8 18 2.4052 0.0344
7 8 19 -0.7741 0.0927
7 8 20 -2.0002 -0.2816
7 8 21 -1.0676 -0.0272
7 9 0 -57.9435 0.6325
7 9 1 -88.7775 -0.0337
7 9 2 35.4740 -0.3530
7 9 3 -14.1921 -0.6253
7 9 4 13.5729 -0.0155
7 9 5 -27.9830 0.0578
7 9 6 7.1675 0.3029
7 9 7 -19.3233 -0.1946
7 9 8 9.6129 0.0365
7 9 9 -1.6708 -0.3018
7 9 10 12.8773 0.0902
7 9 11 1.9035 0.1340
7 9 12 -0.0866 0.1637
7 9 13 -4.8192 -0.0739
7 9 14 -1.6886 -0.0132
7 9 15 -6.1168 -0.2205
7 9 16 -2.8348 0.1758
7 9 17 -6.8377 -0.0376
7 9 18 1.8347 0.1229
7 9 19 2.7676 -0.1747
7 9 20 6.4338 -0.1475
7 9 21 2.0299 -0.0418
7 10 1 -10.1780 0.6262
7 10 2 -9.3827 0.2949
7 10 3 12.4854 0.0162
7 10 4 10.3121 -0.2363
7 10 5 -2.1740 -0.1870
7 10 6 -7.3469 0.1411
7 10 7 5.5797 0.3322
7 10 8 8.0882 0.1237
7 10 9 6.3619 -0.1171
7 10 10 -1.8280 -0.1771
7 10 11 -6.5171 0.0551
7 10 12 0.7684 0.0110
7 10 13 -8.3558 0.0398
7 10 14 -1.7400 -0.0043
7 10 15 -8.8328 -0.0063
7 10 16 -3.5411 -0.0657
7 10 17 3.7734 0.1023
7 10 18 6.1271 0.0041
7 10 19 -2.4247 -0.0328
7 10 20 2.0640 -0.0985
7 10 21 -4.1470 0.0436
7 11 0 -28.1232 0.5967
7 11 1 -5.7670 0.3485
7 11 2 -14.5581 0.2497
7 11 3 25.8775 -0.3019
7 11 4 21.0265 -0.3004
7 11 5 29.2467 -0.2271
7 11 6 -1.8662 0.0953
7 11 7 5.6179 0.0364
7 11 8 -9.7676 0.0968
7 11 9 6.4113 -0.0406
7 11 10 -0.4813 0.0262
7 11 11 1.0533 -0.1083
7 11 12 -3.4187 0.0626
7 11 13 2.8815 0.0474
7 11 14 -3.6873 0.0277
7 11 15 -0.5905 -0.0106
7 11 16 -5.7324 -0.0555
7 11 17 -1.8674 -0.0677
7 11 18 -3.4849 0.0907
7 11 19 -1.4869 -0.0434
7 11 20 0.1463 0.0050
7 11 21 -2.8456 -0.1856
7 12 1 -16.0745 0.4736
7 12 2 -6.1593 0.1078
7 12 3 -0.3021 0.1271
7 12 4 4.7905 -0.1665
7 12 5 -1.6095 -0.0975
7 12 6 2.1426 0.0741
7 12 7 1.9099 0.1422
7 12 8 14.5803 0.0413
7 12 9 0.4430 -0.0185
7 12 10 -5.7603 -0.0515
7 12 11 -8.3862 0.0864
7 12 12 -1.9465 0.0615
7 12 13 3.9782 -0.0520
7 12 14 8.3193 -0.0955
7 12 15 10.7094 -0.0990
7 12 16 19.3916 0.0773
7 12 17 4.8261 0.1019
7 12 18 3.7355 0.0655
7 12 19 1.8266 -0.0704
7 12 20 -1.1233 -0.1129
7 13 0 -20.3580 0.3685
7 13 1 1.2458 0.5563
7 13 2 2.4337 0.2312
7 13 3 14.8468 0.0172
7 13 4 2.1168 -0.4530
7 13 5 5.6589 0.1719
7 13 6 8.9603 -0.1647
7 13 7 4.1125 0.1515
7 13 8 4.3405 -0.2845
7 13 9 3.9561 0.1910
7 13 10 2.3719 -0.0210
7 13 11 -4.6511 0.1836
7 13 12 -5.8973 -0.1155
7 13 13 -2.3559 0.0139
7 13 14 2.2689 -0.0871
7 13 15 -0.3801 0.1020
7 13 16 -0.3930 -0.1233
7 13 17 3.4669 0.0800
7 13 18 5.0620 0.0069
7 13 19 5.3488 0.1504
7 13 20 1.5133 -0.1948
7 14 1 -1.1984 0.2220
7 14 2 2.7088 0.0993
7 14 3 12.5537 0.1014
7 14 4 16.1029 -0.1389
7 14 5 4.0012 -0.0617
7 14 6 -0.8700 0.0559
7 14 7 3.1283 0.2059
7 14 8 -1.4760 0.0239
7 14 9 -2.8950 -0.1138
7 14 10 -9.3707 -0.1449
7 14 11 -3.3061 0.1041
7 14 12 -4.7301 0.1734
7 14 13 -3.5977 0.0536
7 14 14 -0.1251 -0.1357
7 14 15 13.2332 -0.1834
7 14 16 9.4103 0.0061
7 14 17 5.4959 0.0970
7 14 18 3.5634 0.1206
7 14 19 4.8761 -0.0295
7 14 20 12.9029 -0.1592
7 15 1 16.6808 0.2880
7 15 2 0.1565 0.0725
7 15 3 -12.6337 0.2075
7 15 4 -11.7697 -0.1728
7 15 5 -7.0502 0.1239
7 15 6 -4.8198 -0.2253
7 15 7 -0.8220 0.1976
7 15 8 5.8159 -0.2378
7 15 9 1.4631 0.1545
7 15 10 3.9978 -0.1086
7 15 11 2.3470 0.1880
7 15 12 6.0917 -0.1363
7 15 13 4.7514 0.1137
7 15 14 4.6052 -0.0232
7 15 15 2.0505 0.0123
7 15 16 4.1287 -0.1399
7 15 17 6.6685 0.0656
7 15 18 7.4083 -0.0762
7 15 19 -2.6059 0.1868
7 15 20 -5.0550 0.0513
7 16 1 -9.8122 0.2351
7 16 2 -11.6005 0.0647
7 16 3 -6.3359 0.0613
7 16 4 1.0553 -0.0211
7 16 5 3.3855 -0.0747
7 16 6 -3.4080 0.0330
7 16 7 -2.6662 0.1471
7 16 8 -5.3551 0.0368
7 16 9 0.9504 -0.1065
7 16 10 -0.4039 -0.0836
7 16 11 0.5277 0.0687
7 16 12 -0.7280 0.0766
7 16 13 1.0567 0.0270
7 16 14 0.5400 -0.0312
7 16 15 -5.1613 -0.0614
7 16 16 0.6703 -0.0141
7 16 17 -2.4104 0.0085
7 16 18 -6.4938 0.0311
7 16 19 -7.0803 -0.1015
7 17 0 -2.3550 -0.1383
7 17 1 2.2500 -0.1338
7 17 2 5.5306 0.0372
7 17 3 4.4902 0.1975
7 17 4 -1.8863 0.0901
7 17 5 -2.2617 -0.0906
7 17 6 -3.7679 -0.0788
7 17 7 -5.0488 0.0912
7 17 8 0.7949 0.0673
7 17 9 1.1326 0.0470
7 17 10 -0.8936 -0.1652
7 17 11 -6.4297 -0.0725
7 17 12 -4.1004 -0.0180
7 17 13 0.0976 0.1761
7 17 14 -1.8869 0.0757
7 17 15 -0.9168 0.0540
7 17 16 -0.8468 -0.1952
7 17 17 -2.1071 -0.1448
7 17 18 -0.5169 -0.0131
7 17 19 -0.4113 0.1603
7 18 1 -7.1830 0.0767
7 18 2 -7.4637 -0.0834
7 18 3 -0.9727 0.0415
7 18 4 0.5011 0.0945
7 18 5 3.1587 -0.0651
7 18 6 -1.9647 0.0478
7 18 7 -4.7866 -0.0943
7 18 8 0.4750 0.0987
7 18 9 -0.7819 -0.0194
7 18 10 2.6762 0.0090
7 18 11 6.9694 0.0527
7 18 12 8.7910 0.0233
7 18 13 -0.4858 -0.1128
7 18 14 -2.0278 0.0139
7 18 15 -4.7439 0.0445
7 18 16 -1.0922 0.0684
7 18 17 -6.4379 -0.0072
7 18 18 0.3203 -0.0879
7 19 0 -7.2509 -0.2433
7 19 1 2.3235 -0.2551
7 19 2 -13.2228 0.1194
7 19 3 7.2175 0.0860
7 19 4 3.1127 0.1419
7 19 5 8.5871 -0.2427
7 19 6 -2.2300 0.0580
7 19 7 4.1231 -0.0195
7 19 8 -5.5294 0.4108
7 19 9 2.4499 -0.1487
7 19 10 -2.0062 -0.1340
7 19 11 1.8148 -0.3068
7 19 12 1.4501 0.1086
7 19 13 -2.9091 0.1221
7 19 14 -6.0890 0.2272
7 19 15 -5.0064 -0.0246
7 19 16 0.0438 -0.1153
7 19 17 4.7882 -0.2172
7 19 18 0.4299 0.0569
7 20 1 -0.7208 -0.0780
7 20 2 -0.5632 -0.1496
7 20 3 0.3150 -0.0510
7 20 4 0.4404 0.2370
7 20 5 -2.6365 -0.0239
7 20 6 1.1585 -0.1074
7 20 7 5.4097 -0.2608
7 20 8 -4.2241 0.1168
7 20 9 -3.1191 0.1130
7 20 10 -7.5211 0.1879
7 20 11 -2.1427 -0.0318
7 20 12 0.1426 -0.1227
7 20 13 1.4650 -0.1177
7 20 14 -4.8822 -0.0185
7 20 15 -4.1160 0.1752
7 20 16 -5.1186 0.0924
7 20 17 -1.5800 -0.1037
7 21 0 9.2140 -0.2082
7 21 1 -6.6828 -0.1683
7 21 2 5.9051 0.1039
7 21 3 -11.5880 0.1947
7 21 4 5.1699 0.1243
7 21 5 -4.2498 -0.2580
7 21 6 5.5096 -0.0867
7 21 7 -6.7976 0.0587
7 21 8 8.7775 0.2825
7 21 9 -3.9981 0.0288
7 21 10 4.2054 -0.0559
7 21 11 1.5689 -0.3359
7 21 12 1.3714 -0.0865
7 21 13 2.5113 0.0934
7 21 14 2.7587 0.2435
7 21 15 2.1562 0.0250
7 21 16 0.9697 0.0746
7 21 17 -1.8489 -0.0753
7 22 1 1.1114 -0.1887
7 22 2 2.7662 -0.2759
7 22 3 0.4528 0.0476
7 22 4 -3.5102 0.2501
7 22 5 -1.7698 -0.0060
7 22 6 -2.7904 -0.2646
7 22 7 0.8631 -0.2962
7 22 8 1.5534 0.0488
7 22 9 0.8502 0.2586
7 22 10 3.1753 0.1955
7 22 11 4.1373 -0.0296
7 22 12 -1.3606 -0.2166
7 22 13 0.8151 -0.1818
7 22 14 2.5164 0.1125
7 22 15 0.8396 0.0990
7 22 16 2.0158 0.0679
7 23 0 -13.0919 -0.2026
7 23 1 9.1000 0.0098
7 23 2 -8.9397 0.0323
7 23 3 13.3275 0.2635
7 23 4 -6.0535 0.0653
7 23 5 11.0069 -0.0893
7 23 6 -3.8684 -0.1976
7 23 7 8.2369 0.0470
7 23 8 -6.8275 0.0776
7 23 9 8.6897 0.1985
7 23 10 1.3728 -0.0210
7 23 11 5.1928 -0.2166
7 23 12 -0.2058 -0.0958
7 23 13 0.2625 -0.1272
7 23 14 -0.4215 0.1125
7 23 15 4.4353 0.0802
7 23 16 3.3397 0.2754
7 24 1 0.4229 -0.1696
7 24 2 -2.3850 -0.3480
7 24 3 -2.9449 0.0386
7 24 4 -6.1630 0.2643
7 24 5 -3.0548 0.0760
7 24 6 -0.2803 -0.2425
7 24 7 1.7546 -0.3700
7 24 8 -2.0923 -0.0226
7 24 9 0.4615 0.2025
7 24 10 -3.1856 0.1916
7 24 11 -2.0947 0.0090
7 24 12 -0.1211 -0.1759
7 24 13 -0.5760 -0.1513
7 24 14 0.2307 -0.0678
7 24 15 2.1090 0.1326
7 25 0 4.8291 -0.2446
7 25 1 -1.6816 -0.2246
7 25 2 -4.0645 0.0278
7 25 3 -9.4275 0.2896
7 25 4 -2.1281 0.2451
7 25 5 -3.8290 -0.1766
7 25 6 3.8170 -0.2013
7 25 7 -2.4187 -0.0234
7 25 8 3.2847 0.3026
7 25 9 -4.1485 0.0049
7 25 10 4.5155 -0.0201
7 25 11 -1.8372 -0.1494
7 25 12 0.4106 -0.0459
7 25 13 -4.6307 -0.1249
7 25 14 2.1598 0.0048
7 26 1 4.4423 -0.1719
7 26 2 2.2586 -0.3396
7 26 3 -0.2034 -0.0153
7 26 4 -0.0201 0.2271
7 26 5 4.8046 0.1574
7 26 6 2.3799 -0.1622
7 26 7 0.2684 -0.3351
7 26 8 -1.6907 -0.0698
7 26 9 -2.5692 0.1087
7 26 10 -0.6938 0.1230
7 26 11 -0.0418 0.0164
7 26 12 -1.3463 -0.1295
7 26 13 0.0197 -0.1689
7 27 0 -2.5711 -0.0238
7 27 1 3.7205 -0.2320
7 27 2 -1.9442 -0.0777
7 27 3 2.8167 0.0456
7 27 4 -2.6133 0.3936
7 27 5 2.6663 -0.2381
7 27 6 -3.6940 0.0821
7 27 7 1.2598 -0.1441
7 27 8 -0.6625 0.4208
7 27 9 0.9477 -0.1769
7 27 10 -3.6833 -0.1040
7 27 11 0.6038 -0.0071
7 27 12 -0.6593 0.0457
7 28 1 0.3258 0.0090
7 28 2 0.6387 -0.2273
7 28 3 0.9825 -0.1049
7 28 4 -0.3424 0.1946
7 28 5 -2.1349 0.0347
7 28 6 -2.5784 -0.0426
7 28 7 -1.0126 -0.2239
7 28 8 -0.7518 0.0183
7 28 9 0.6912 0.0462
7 28 10 2.3423 0.0289
7 28 11 0.5529 -0.0163
7 29 0 1.7911 0.1217
7 29 1 -0.7188 -0.1342
7 29 2 2.8378 -0.1639
7 29 3 1.1228 -0.0901
7 29 4 0.8170 0.2081
7 29 5 -1.6044 0.0087
7 29 6 3.6857 0.0910
7 29 7 0.9594 -0.0236
7 29 8 -0.8273 0.0705
7 29 9 -1.3642 0.0730
7 29 10 2.4113 0.1586
7 30 1 3.1519 -0.0372
7 30 2 3.7380 -0.1766
7 30 3 -0.1080 -0.0340
7 30 4 -1.6459 0.1205
7 30 5 0.6508 0.0103
7 30 6 3.1480 -0.0904
7 30 7 1.4566 -0.1574
7 30 8 -0.1457 -0.0022
7 30 9 -0.9853 0.1332
7 31 0 -3.7128 0.2454
7 31 1 0.8568 -0.1732
7 31 2 2.9823 -0.1332
7 31 3 0.2929 0.0744
7 31 4 -3.9107 -0.1096
7 31 5 -0.6649 0.2083
7 31 6 -3.0878 -0.2406
7 31 7 0.2310 0.1375
7 32 1 1.9766 -0.0077
7 32 2 -0.0537 -0.1619
7 32 3 0.0668 -0.0543
7 32 4 -1.2734 0.0836
7 32 5 0.0546 0.1062
8 0 0 128.4726 2.2067
8 0 1 74.7641 2.7788
8 0 2 -9.0206 0.9354
8 0 3 -76.3536 2.7645
8 0 4 -29.5683 -1.1381
8 0 5 3.1179 -0.7175
8 0 6 28.8212 -3.2633
8 0 7 -11.4072 2.2463
8 0 8 7.6569 1.2018
8 0 9 -4.6738 2.3004
8 0 10 10.3495 -2.3369
8 0 11 -3.1971 -1.0956
8 0 12 8.3922 -1.5204
8 0 13 -5.0611 2.3547
8 0 14 5.0218 0.6629
8 0 15 -1.3163 0.5268
8 0 16 2.5538 -2.1342
8 0 17 -18.8206 -0.2059
8 0 18 5.4808 0.0441
8 0 19 9.4822 1.6933
8 0 20 25.1227 -0.1118
8 0 21 15.0613 -0.3130
8 0 22 -1.8625 -1.0688
8 1 1 18.8240 1.6264
8 1 2 27.8374 0.0514
8 1 3 9.8767 -0.3354
8 1 4 -13.8300 -0.6677
8 1 5 -26.2318 -0.7491
8 1 6 -17.6258 0.7904
8 1 7 -1.2718 0.6420
8 1 8 5.1237 -0.1118
8 1 9 9.8540 -0.5197
8 1 10 7.6057 -0.4085
8 1 11 -1.6685 -0.0215
8 1 12 -4.4081 0.6120
8 1 13 -5.8042 0.3153
8 1 14 6.2372 -0.1131
8 1 15 6.2316 -0.5063
8 1 16 7.2628 -0.1130
8 1 17 -4.3446 0.3195
8 1 18 11.3453 0.2292
8 1 19 19.0619 0.0307
8 1 20 8.5689 -0.2437
8 1 21 -4.7771 -0.1759
8 1 22 -10.6971 0.0884
8 2 0 111.0643 0.2257
8 2 1 70.4866 0.6663
8 2 2 18.6601 0.5499
8 2 3 -38.1758 -0.1079
8 2 4 -18.3042 -0.0834
8 2 5 8.4868 0.5174
8 2 6 37.4319 -0.2611
8 2 7 13.5426 0.0132
8 2 8 -23.5666 -0.4518
8 2 9 -26.1987 0.2952
8 2 10 -16.4748 0.0850
8 2 11 3.3858 0.2318
8 2 12 -3.6709 -0.1807
8 2 13 3.2305 -0.2510
8 2 14 -8.9739 -0.2545
8 2 15 3.5019 0.2759
8 2 16 -1.2693 0.1234
8 2 17 15.8742 0.1668
8 2 18 -1.3022 -0.1601
8 2 19 12.1435 -0.1295
8 2 20 0.5882 -0.0131
8 2 21 -2.8555 0.1659
8 2 22 -6.3805 0.1323
8 3 1 30.4063 0.2897
8 3 2 12.1949 0.2466
8 3 3 -7.5386 0.0257
8 3 4 -27.2986 -0.3925
8 3 5 0.3118 0.0493
8 3 6 14.4496 -0.0426
8 3 7 16.7796 0.0725
8 3 8 8.3230 0.2906
8 3 9 6.8451 -0.3201
8 3 10 4.5051 -0.1712
8 3 11 6.8439 0.0857
8 3 12 -6.9874 0.1384
8 3 13 11.2670 0.1207
8 3 14 3.3837 0.0071
8 3 15 0.6279 -0.2159
8 3 16 -23.8477 0.0048
8 3 17 13.5954 0.0859
8 3 18 12.7565 0.1318
8 3 19 17.1827 -0.0915
8 3 20 11.0668 -0.0939
8 3 21 1.8799 0.0181
8 3 22 -0.8424 0.0744
8 4 0 62.6719 0.2104
8 4 1 62.2602 -0.4501
8 4 2 -9.4802 -0.2191
8 4 3 -12.7186 -0.7557
8 4 4 -36.5928 0.4866
8 4 5 4.4590 0.1992
8 4 6 18.0348 1.3223
8 4 7 12.1231 -0.9744
8 4 8 4.6532 -0.4408
8 4 9 -3.8695 -0.7629
8 4 10 2.3195 0.8199
8 4 11 1.3324 0.3874
8 4 12 -7.9793 0.3951
8 4 13 1.1195 -0.9144
8 4 14 2.3157 -0.1439
8 4 15 7.2610 -0.1959
8 4 16 1.3911 0.8016
8 4 17 7.3532 0.0573
8 4 18 6.4137 -0.0375
8 4 19 2.8663 -0.5954
8 4 20 -1.9097 0.1032
8 4 21 -1.5816 0.0880
8 4 22 1.1904 0.3586
8 5 1 1.9861 -0.2220
8 5 2 0.9988 0.2663
8 5 3 -11.4826 0.0604
8 5 4 -7.6353 0.0804
8 5 5 6.2970 -0.1575
8 5 6 21.8120 0.0209
8 5 7 16.8182 0.0374
8 5 8 -1.0256 -0.0867
8 5 9 -5.5092 -0.0368
8 5 10 -2.6081 -0.0159
8 5 11 -2.6593 -0.0126
8 5 12 0.1948 0.2633
8 5 13 -14.2119 -0.0662
8 5 14 -23.6498 -0.2314
8 5 15 -22.3757 0.0125
8 5 16 -2.8178 0.0938
8 5 17 -31.1855 0.0298
8 5 18 -41.3557 0.1369
8 5 19 -46.7626 -0.0563
8 5 20 -29.2297 -0.1131
8 5 21 0.8751 -0.0075
8 5 22 11.4945 0.0677
8 6 0 65.7391 0.0657
8 6 1 -30.2637 -0.3352
8 6 2 1.4367 -0.5704
8 6 3 -83.6995 -0.2590
8 6 4 30.5917 0.3552
8 6 5 0.1300 0.2805
8 6 6 38.9073 0.2576
8 6 7 -8.4518 -0.0905
8 6 8 6.6746 -0.1870
8 6 9 1.7791 -0.5427
8 6 10 12.5581 0.3975
8 6 11 -2.1000 0.0612
8 6 12 0.4515 0.1184
8 6 13 -3.1306 -0.1278
8 6 14 4.6329 -0.1043
8 6 15 1.9740 -0.0974
8 6 16 -2.0913 0.2360
8 6 17 -7.7612 -0.0392
8 6 18 0.7669 0.0400
8 6 19 -0.2182 -0.1288
8 6 20 -2.8488 -0.0604
8 6 21 -1.5297 -0.0120
8 6 22 0.5994 0.0056
8 7 1 13.0196 -0.0101
8 7 2 -0.4872 0.0586
8 7 3 -19.9388 0.0926
8 7 4 -6.3414 -0.0804
8 7 5 14.6104 -0.2114
8 7 6 8.3478 0.2470
8 7 7 -3.3935 0.0867
8 7 8 -3.4050 -0.0709
8 7 9 3.6351 -0.2916
8 7 10 5.6677 -0.0501
8 7 11 7.3480 0.2613
8 7 12 9.9496 0.0530
8 7 13 4.2809 -0.0427
8 7 14 4.9166 -0.1127
8 7 15 6.5867 -0.0963
8 7 16 1.7040 0.1108
8 7 17 8.6666 0.1226
8 7 18 -4.8591 -0.0753
8 7 19 -2.1026 0.0470
8 7 20 2.0518 0.0512
8 7 21 6.0343 -0.0807
8 8 0 -42.1509 -0.0207
8 8 1 26.5737 -0.0927
8 8 2 -19.2558 -0.1313
8 8 3 30.8729 0.4670
8 8 4 -29.9403 -0.0248
8 8 5 29.3131 0.0143
8 8 6 15.0982 -0.4908
8 8 7 23.8916 0.3605
8 8 8 -3.9771 0.0951
8 8 9 -3.9175 0.3444
8 8 10 -11.7902 -0.4968
8 8 11 -0.8235 -0.0083
8 8 12 -5.2589 -0.0885
8 8 13 4.1959 0.2105
8 8 14 6.6454 0.0708
8 8 15 12.8024 0.1720
8 8 16 -2.3413 -0.5112
8 8 17 -13.5878 0.1281
8 8 18 -32.3358 -0.0099
8 8 19 -14.9256 0.2551
8 8 20 -6.2829 -0.0980
8 8 21 -1.8526 -0.0861
8 9 1 -13.3966 0.1868
8 9 2 -19.2902 -0.1864
8 9 3 2.0582 0.0505
8 9 4 -3.6856 -0.0867
8 9 5 -9.3057 -0.0074
8 9 6 -12.8291 0.0072
8 9 7 -5.9273 0.0160
8 9 8 2.5843 0.0643
8 9 9 8.0066 -0.1338
8 9 10 10.1431 -0.0832
8 9 11 11.5052 0.0616
8 9 12 -6.4844 -0.0470
8 9 13 2.7013 -0.0111
8 9 14 -1.1024 0.1149
8 9 15 6.7645 0.0723
8 9 16 1.6324 -0.0512
8 9 17 2.6455 -0.1660
8 9 18 2.7619 0.0780
8 9 19 -1.2723 0.0530
8 9 20 -10.7299 0.0261
8 9 21 -14.2611 0.0497
8 10 0 20.9647 0.3965
8 10 1 -23.2605 0.1900
8 10 2 -2.1897 0.4269
8 10 3 -26.8820 0.3918
8 10 4 20.9295 -0.1481
8 10 5 -12.8211 -0.2408
8 10 6 1.5248 -0.4351
8 10 7 -20.9833 0.2082
8 10 8 0.3229 0.2488
8 10 9 -2.3861 0.2982
8 10 10 6.1455 -0.1352
8 10 11 0.3820 -0.1646
8 10 12 4.6947 -0.1484
8 10 13 5.3779 0.2060
8 10 14 -2.1779 0.0925
8 10 15 -5.6164 -0.0176
8 10 16 1.7250 -0.1258
8 10 17 0.9951 -0.1219
8 10 18 -0.0133 0.0543
8 10 19 -10.6861 0.2114
8 10 20 -6.6375 -0.0359
8 10 21 -3.7560 0.1230
8 11 1 -14.6022 0.1692
8 11 2 -5.4992 -0.2341
8 11 3 -0.9183 -0.0198
8 11 4 5.2805 0.1166
8 11 5 -5.6055 0.0271
8 11 6 -10.9989 -0.0475
8 11 7 -10.8252 -0.1532
8 11 8 -3.1085 -0.0276
8 11 9 -1.8242 0.1219
8 11 10 -3.0609 0.0542
8 11 11 -7.5060 -0.0960
8 11 12 8.3887 -0.0797
8 11 13 5.4937 -0.0195
8 11 14 7.5558 0.0553
8 11 15 7.6861 0.2309
8 11 16 7.3746 0.0132
8 11 17 3.2631 -0.2239
8 11 18 1.5398 -0.1054
8 11 19 1.7445 0.1040
8 11 20 -1.3118 0.0613
8 11 21 -5.5827 0.0129
8 12 0 -1.0631 0.4526
8 12 1 -5.1680 0.2447
8 12 2 13.0284 0.6151
8 12 3 -3.8840 -0.0142
8 12 4 -4.0159 0.0991
8 12 5 -5.4577 -0.4258
8 12 6 3.4940 0.0242
8 12 7 0.6573 -0.2804
8 12 8 -6.7130 0.2082
8 12 9 -2.9538 0.0347
8 12 10 7.0496 0.3366
8 12 11 6.3916 -0.1184
8 12 12 1.0645 0.0440
8 12 13 -2.2474 -0.1761
8 12 14 1.2983 0.1344
8 12 15 1.2850 -0.0906
8 12 16 -4.9907 0.0883
8 12 17 2.8433 -0.1229
8 12 18 0.3222 0.0907
8 12 19 3.9697 -0.1568
8 12 20 -1.1170 0.2977
8 13 1 4.7343 0.1329
8 13 2 -2.3078 -0.0695
8 13 3 -1.8725 0.0901
8 13 4 2.2242 -0.0159
8 13 5 7.2232 -0.0644
8 13 6 0.8484 0.0253
8 13 7 -0.7171 0.0196
8 13 8 3.2828 0.0862
8 13 9 3.9074 -0.1127
8 13 10 2.0780 -0.0746
8 13 11 -0.7016 0.1726
8 13 12 -6.9173 -0.0446
8 13 13 -2.5136 0.0128
8 13 14 1.5701 -0.0252
8 13 15 2.3988 0.0739
8 13 16 -1.5338 0.0317
8 13 17 -3.9085 -0.0140
8 13 18 -3.5890 -0.1422
8 13 19 2.4286 0.0376
8 13 20 5.0871 0.0625
8 14 0 -4.0168 0.8709
8 14 1 9.1091 0.1917
8 14 2 -3.3019 0.3255
8 14 3 5.0007 -0.1805
8 14 4 -7.7904 0.0600
8 14 5 -2.4448 -0.2178
8 14 6 -6.8577 0.0274
8 14 7 1.1241 -0.2290
8 14 8 1.9430 0.1012
8 14 9 2.8248 -0.0520
8 14 10 -5.8930 0.2866
8 14 11 -0.0028 -0.0568
8 14 12 1.7331 0.0248
8 14 13 4.7870 -0.0379
8 14 14 2.1177 0.1812
8 14 15 0.1517 -0.0622
8 14 16 -0.5585 -0.0703
8 14 17 -0.6887 -0.2239
8 14 18 0.5798 0.0534
8 14 19 0.2110 0.1341
8 14 20 0.5343 0.1646
8 15 1 -4.8710 0.0851
8 15 2 -4.0964 -0.0063
8 15 3 -1.4650 0.0492
8 15 4 6.7214 -0.0643
8 15 5 4.7449 -0.1564
8 15 6 4.1206 0.1295
8 15 7 -3.6656 0.2401
8 15 8 0.3707 0.0655
8 15 9 5.9670 -0.1342
8 15 10 6.2807 -0.1719
8 15 11 1.9340 0.1625
8 15 12 -1.0014 0.1109
8 15 13 -0.5255 0.0290
8 15 14 -2.9195 -0.1226
8 15 15 -5.8072 0.0159
8 15 16 -5.3666 0.0225
8 15 17 -2.0745 0.0263
8 15 18 0.2241 0.0233
8 15 19 -3.5577 -0.0566
8 16 0 2.9740 0.7877
8 16 1 0.9465 0.2519
8 16 2 8.9943 0.1564
8 16 3 -0.7906 -0.0120
8 16 4 -3.6428 -0.2778
8 16 5 -9.7222 -0.0901
8 16 6 2.3406 -0.1227
8 16 7 0.5845 0.1875
8 16 8 6.9644 0.0463
8 16 9 2.1511 0.0390
8 16 10 0.2497 -0.0909
8 16 11 -4.6203 -0.0907
8 16 12 -0.6627 0.0625
8 16 13 1.9025 0.1185
8 16 14 2.9750 0.2147
8 16 15 -1.6993 0.0711
8 16 16 -0.6657 -0.3005
8 16 17 -2.3998 -0.2062
8 16 18 -0.8299 -0.0802
8 16 19 2.7865 0.2181
8 17 1 -2.1482 0.1655
8 17 2 -4.3146 -0.1846
8 17 3 -0.9112 0.0818
8 17 4 4.3450 -0.0831
8 17 5 4.8126 -0.1103
8 17 6 2.2970 0.0685
8 17 7 -3.0704 0.2169
8 17 8 -1.6663 0.1279
8 17 9 -4.9285 -0.0327
8 17 10 -1.6509 -0.1269
8 17 11 2.3597 0.1027
8 17 12 5.3091 0.0377
8 17 13 2.7444 0.0202
8 17 14 -1.9238 -0.0981
8 17 15 -1.0873 -0.0485
8 17 16 -0.4047 0.0730
8 17 17 -0.6980 0.0464
8 17 18 1.8582 0.0960
8 17 19 1.9062 -0.0627
8 18 0 1.1088 0.6726
8 18 1 -2.3948 0.1739
8 18 2 8.7919 0.1832
8 18 3 4.0885 0.0574
8 18 4 4.3123 -0.2628
8 18 5 -6.1094 -0.1760
8 18 6 -3.4627 -0.1596
8 18 7 -0.0758 0.2989
8 18 8 1.0870 0.0871
8 18 9 -2.3734 0.1275
8 18 10 3.0646 -0.1563
8 18 11 -1.6187 -0.1137
8 18 12 1.2509 -0.1340
8 18 13 -2.1835 0.2189
8 18 14 -1.2785 0.2019
8 18 15 -2.2109 0.1260
8 18 16 -2.9472 -0.2258
8 18 17 0.3216 -0.2209
8 18 18 3.1579 -0.1638
8 19 1 -2.7875 0.2340
8 19 2 -0.3092 -0.2004
8 19 3 -0.2706 0.0698
8 19 4 0.4374 -0.1323
8 19 5 0.4875 -0.0633
8 19 6 -0.5631 0.0285
8 19 7 2.5568 0.0552
8 19 8 -0.2295 0.1979
8 19 9 -5.2296 0.0059
8 19 10 -8.0985 -0.0333
8 19 11 -7.8453 0.0827
8 19 12 -2.7900 -0.0302
8 19 13 0.6004 -0.0850
8 19 14 2.6660 -0.0648
8 19 15 1.2267 0.0132
8 19 16 0.2648 0.1104
8 19 17 -2.5407 -0.0052
8 19 18 -0.7868 0.0170
8 20 0 -17.1471 0.4915
8 20 1 3.7631 0.0987
8 20 2 -5.2910 0.2782
8 20 3 10.2373 -0.0120
8 20 4 -7.4896 -0.1650
8 20 5 1.0115 -0.2620
8 20 6 -7.5967 0.0454
8 20 7 3.0852 0.0723
8 20 8 -3.5238 0.1309
8 20 9 3.3469 0.0490
8 20 10 -5.6417 0.0144
8 20 11 1.4775 -0.0698
8 20 12 -1.2515 -0.0933
8 20 13 2.7432 0.0365
8 20 14 2.1998 0.0948
8 20 15 -0.7214 0.0282
8 20 16 -2.1168 -0.0146
8 20 17 2.1878 -0.0457
8 21 1 -3.9891 0.1732
8 21 2 -4.1759 -0.0600
8 21 3 0.1239 0.0206
8 21 4 0.9257 -0.0321
8 21 5 -4.8748 -0.1092
8 21 6 -0.7507 -0.0176
8 21 7 -0.3920 -0.0417
8 21 8 0.7048 0.1243
8 21 9 -3.3194 0.0607
8 21 10 -5.6758 0.0634
8 21 11 -2.9950 -0.0371
8 21 12 -1.8881 -0.0332
8 21 13 -3.8367 -0.0560
8 21 14 -1.5964 -0.0405
8 21 15 0.3395 0.0125
8 21 16 4.9542 0.0183
8 21 17 4.5805 0.0275
8 22 0 0.8285 0.5417
8 22 1 -13.2519 -0.2019
8 22 2 11.3538 0.1395
8 22 3 -5.6462 -0.1583
8 22 4 8.8290 0.1351
8 22 5 -0.3480 -0.1892
8 22 6 14.2903 0.0207
8 22 7 -2.6613 -0.0919
8 22 8 3.3319 0.1376
8 22 9 -7.9356 -0.1011
8 22 10 2.6979 0.1732
8 22 11 -1.2481 0.0111
8 22 12 2.7403 0.0294
8 22 13 -6.0530 -0.1366
8 22 14 -4.7059 0.0071
8 22 15 -3.2074 -0.0133
8 22 16 4.5698 0.0063
8 23 1 -1.8725 0.1773
8 23 2 -1.6367 0.1568
8 23 3 -1.7451 -0.0232
8 23 4 0.6059 -0.0363
8 23 5 1.0827 -0.1218
8 23 6 -2.3642 0.1073
8 23 7 -2.2790 -0.0930
8 23 8 0.1068 -0.0212
8 23 9 1.3424 0.0099
8 23 10 0.3072 0.0885
8 23 11 1.8822 0.0362
8 23 12 -0.6426 -0.1039
8 23 13 -1.0855 -0.0309
8 23 14 -3.5092 0.0522
8 23 15 0.3743 -0.0183
8 24 0 -6.7026 0.0063
8 24 1 6.1552 -0.3187
8 24 2 -3.3232 -0.1495
8 24 3 7.2845 -0.0211
8 24 4 -4.4623 0.0926
8 24 5 4.1705 -0.0752
8 24 6 -1.2705 0.0108
8 24 7 10.0111 0.0139
8 24 8 -4.9498 0.0556
8 24 9 3.0306 -0.1764
8 24 10 -2.9495 0.0154
8 24 11 2.3797 0.0385
8 24 12 -2.9115 0.2723
8 24 13 1.5231 -0.1433
8 24 14 -1.5005 -0.0737
8 24 15 3.1411 -0.0656
8 25 1 1.9559 0.2692
8 25 2 0.4556 0.0253
8 25 3 -1.0299 0.0671
8 25 4 0.0932 -0.0106
8 25 5 0.7902 -0.0353
8 25 6 0.0219 0.1486
8 25 7 2.5376 -0.1017
8 25 8 1.0334 -0.0870
8 25 9 0.7078 -0.0250
8 25 10 -1.7233 0.0264
8 25 11 -1.6691 0.1229
8 25 12 -2.0013 -0.0687
8 25 13 0.4687 -0.0447
8 25 14 2.5639 0.0129
8 26 0 10.0726 0.2116
8 26 1 5.8171 -0.3499
8 26 2 5.6779 -0.4816
8 26 3 -0.3508 -0.1310
8 26 4 1.1533 0.1007
8 26 5 0.6255 0.1454
8 26 6 2.4759 0.0922
8 26 7 -1.7162 0.0312
8 26 8 1.4584 0.0400
8 26 9 -1.9220 -0.2358
8 26 10 0.8452 -0.1297
8 26 11 -0.3858 -0.1377
8 26 12 1.6685 0.4306
8 26 13 -1.9266 0.0912
8 27 1 0.6515 0.1970
8 27 2 -1.5560 -0.1805
8 27 3 -2.2467 0.0413
8 27 4 -3.8658 0.0138
8 27 5 -1.6402 0.1983
8 27 6 -0.2053 0.0888
8 27 7 -2.1733 -0.1065
8 27 8 -1.7538 -0.0998
8 27 9 -1.1030 -0.0853
8 27 10 -1.7070 0.0782
8 27 11 -0.6731 0.1508
8 27 12 -1.3766 -0.0023
8 28 0 5.4650 0.1311
8 28 1 10.2142 -0.4196
8 28 2 2.9946 -0.4685
8 28 3 2.5351 -0.2807
8 28 4 -5.0434 0.1822
8 28 5 -3.5266 0.0711
8 28 6 -2.5756 0.2861
8 28 7 1.8936 0.0321
8 28 8 -0.9509 0.0302
8 28 9 -0.5472 -0.2722
8 28 10 -1.6224 -0.1820
8 28 11 1.8084 -0.0228
8 29 1 2.3468 0.0252
8 29 2 3.6724 -0.1165
8 29 3 0.8642 0.0117
8 29 4 -1.4461 0.0026
8 29 5 -0.6994 0.0635
8 29 6 -0.2967 0.1310
8 29 7 -0.4127 -0.1382
8 29 8 -3.1930 0.0117
8 29 9 -3.1671 0.0083
8 29 10 0.3338 0.0555
8 30 0 3.0097 -0.4373
8 30 1 -0.5187 -0.4764
8 30 2 0.0442 -0.3564
8 30 3 -0.6852 0.0947
8 30 4 0.2776 0.1076
8 30 5 -0.0727 -0.1701
8 30 6 -0.1822 0.0698
8 30 7 1.6691 0.1001
8 30 8 4.8778 0.2204
8 30 9 4.5744 -0.0475
8 31 1 3.2612 0.0062
8 31 2 4.2735 -0.0359
8 31 3 5.1655 -0.0241
8 31 4 2.6668 -0.0554
8 31 5 1.6087 -0.1011
8 31 6 1.7040 -0.0424
8 31 7 1.7255 0.0680
8 32 0 -1.6769 -0.8201
8 32 1 1.0645 -0.5028
8 32 2 2.2836 -0.1204
8 32 3 1.2084 0.3678
8 32 4 -0.6244 -0.2937
9 1 0 -11.8743 -0.5601
9 1 1 0.3045 0.0966
9 1 2 30.6633 -0.0491
9 1 3 -15.2266 0.0668
9 1 4 -11.8868 -0.4065
9 1 5 -0.7224 -0.1213
9 1 6 7.8281 -0.3379
9 1 7 -15.6243 0.2689
9 1 8 -17.1614 0.1832
9 1 9 -13.7057 0.3555
9 1 10 -1.2960 -0.3909
9 1 11 1.4864 -0.2123
9 1 12 11.8155 -0.1669
9 1 13 2.9262 0.4367
9 1 14 11.4801 0.0544
9 1 15 -13.1795 0.0104
9 1 16 -4.2648 -0.3938
9 1 17 7.1188 -0.0018
9 1 18 8.1755 -0.0084
9 1 19 -37.9245 0.3202
9 1 20 -43.6171 -0.0324
9 1 21 -22.4577 0.0555
9 1 22 -6.0532 -0.2007
9 2 1 1.5342 -0.1340
9 2 2 9.6212 -0.8390
9 2 3 12.4908 -0.2546
9 2 4 15.4138 1.0221
9 2 5 -0.3345 0.3053
9 2 6 -1.4284 -0.3419
9 2 7 -9.8708 -0.5761
9 2 8 -0.9374 0.1075
9 2 9 3.2415 0.4864
9 2 10 8.6510 0.3217
9 2 11 2.1430 -0.1024
9 2 12 1.0626 -0.2933
9 2 13 -5.8017 -0.5917
9 2 14 3.2760 0.4920
9 2 15 -10.5173 0.3693
9 2 16 3.1119 -0.1933
9 2 17 -11.7964 -0.1809
9 2 18 4.5434 -0.1437
9 2 19 -27.1565 -0.1238
9 2 20 -14.1902 0.4407
9 2 21 -13.5696 0.0735
9 2 22 -1.4671 -0.1894
9 3 0 40.5145 0.3098
9 3 1 22.8828 0.1331
9 3 2 -2.5079 -0.2230
9 3 3 9.2910 -0.2096
9 3 4 -0.4524 -0.5613
9 3 5 -12.2870 0.3842
9 3 6 -7.8881 -0.0747
9 3 7 9.8375 0.2732
9 3 8 4.3689 -0.3453
9 3 9 -3.7426 0.2365
9 3 10 -15.4865 -0.1121
9 3 11 -13.9532 0.1216
9 3 12 -4.5543 -0.2728
9 3 13 8.2198 0.0922
9 3 14 4.3764 -0.0807
9 3 15 1.4086 0.1820
9 3 16 -1.7821 -0.0721
9 3 17 0.9423 0.0436
9 3 18 15.7221 -0.2311
9 3 19 31.9351 0.0228
9 3 20 18.5027 0.0608
9 3 21 3.0820 0.2050
9 3 22 5.4953 -0.0485
9 4 1 -37.6103 -0.3803
9 4 2 -32.1550 -0.4799
9 4 3 2.8674 0.6012
9 4 4 11.6628 0.0913
9 4 5 6.2424 0.0983
9 4 6 -12.8810 -0.2747
9 4 7 8.3013 -0.3738
9 4 8 11.1401 0.2465
9 4 9 10.5765 0.3435
9 4 10 -1.6126 0.2904
9 4 11 1.9139 -0.2081
9 4 12 0.9026 -0.3126
9 4 13 1.9533 -0.1525
9 4 14 -11.5693 0.0231
9 4 15 4.5949 0.1734
9 4 16 -2.2283 0.3375
9 4 17 16.7849 -0.4043
9 4 18 -0.0781 -0.1657
9 4 19 34.7957 0.1051
9 4 20 10.7995 0.0494
9 4 21 -3.5209 0.0802
9 4 22 -21.3778 0.0302
9 5 0 8.6586 0.2979
9 5 1 21.1986 0.1350
9 5 2 -3.4068 0.2557
9 5 3 -26.6310 -0.4900
9 5 4 -28.5982 0.0523
9 5 5 12.1312 -0.4367
9 5 6 12.9758 0.3094
9 5 7 -5.4906 -0.0484
9 5 8 -9.8515 0.4115
9 5 9 1.1943 -0.0786
9 5 10 6.2389 0.0120
9 5 11 3.6916 -0.4781
9 5 12 -5.5830 0.0042
9 5 13 0.2133 0.0253
9 5 14 -3.9303 0.3997
9 5 15 3.0291 -0.1175
9 5 16 1.0080 -0.0228
9 5 17 0.5005 -0.2734
9 5 18 -16.2741 0.0364
9 5 19 -19.1023 -0.0074
9 5 20 -8.2186 0.2097
9 5 21 5.1569 -0.0557
9 6 1 1.0591 0.0561
9 6 2 -8.1306 0.3731
9 6 3 -0.1469 0.0467
9 6 4 -4.4618 -0.2067
9 6 5 -6.1506 -0.2405
9 6 6 -9.1436 -0.2419
9 6 7 -10.3433 0.4023
9 6 8 5.0394 0.1178
9 6 9 4.5292 -0.0494
9 6 10 -3.7080 -0.0077
9 6 11 -10.7406 -0.0362
9 6 12 -4.1674 0.0038
9 6 13 1.8931 0.0152
9 6 14 10.2346 -0.0894
9 6 15 1.1969 -0.0699
9 6 16 -1.7364 -0.0819
9 6 17 -5.4676 0.2144
9 6 18 12.6350 0.0614
9 6 19 4.6962 -0.1555
9 6 20 16.0359 0.0150
9 6 21 11.0273 -0.1557
9 7 0 39.1871 -0.1410
9 7 1 1.3690 -0.1382
9 7 2 -20.8946 0.4278
9 7 3 -30.0784 -0.2752
9 7 4 2.8078 0.1640
9 7 5 -4.8213 -0.4035
9 7 6 6.6225 0.0953
9 7 7 5.9021 -0.2215
9 7 8 7.8928 0.5843
9 7 9 0.0364 -0.0483
9 7 10 1.0702 0.0666
9 7 11 1.3758 -0.5687
9 7 12 6.7214 0.0869
9 7 13 -8.3728 -0.0178
9 7 14 -5.5667 0.4084
9 7 15 -0.6426 -0.1497
9 7 16 9.0830 -0.0905
9 7 17 -0.0044 -0.2667
9 7 18 -9.6800 0.2493
9 7 19 -11.3744 0.0207
9 7 20 -3.4406 0.0237
9 7 21 1.9155 -0.1440
9 8 1 -9.0417 0.4676
9 8 2 12.6288 0.3516
9 8 3 10.1080 -0.4309
9 8 4 13.0461 -0.1640
9 8 5 -10.6153 -0.2404
9 8 6 -11.2757 0.1005
9 8 7 2.3877 0.1278
9 8 8 6.2929 0.1247
9 8 9 3.2278 0.0082
9 8 10 -1.2117 -0.0855
9 8 11 -1.4705 -0.0056
9 8 12 -0.3749 0.0467
9 8 13 1.9403 0.0348
9 8 14 -3.6438 -0.0197
9 8 15 -3.3634 0.0361
9 8 16 -1.8986 -0.1856
9 8 17 0.9085 0.0327
9 8 18 -3.3460 0.1038
9 8 19 3.0979 0.0937
9 8 20 -5.5246 -0.1022
9 8 21 -0.3735 -0.1584
9 9 0 34.3941 -0.2585
9 9 1 23.5321 0.0725
9 9 2 -15.9261 -0.0934
9 9 3 -27.0804 -0.0485
9 9 4 -17.8601 0.2848
9 9 5 20.4630 -0.2976
9 9 6 17.8956 0.0980
9 9 7 4.8411 -0.3359
9 9 8 -7.0384 0.2557
9 9 9 -3.3346 -0.0689
9 9 10 -1.8358 0.1841
9 9 11 4.3574 -0.1979
9 9 12 3.0225 0.0947
9 9 13 1.6289 -0.1315
9 9 14 0.2746 0.0597
9 9 15 1.2361 -0.1364
9 9 16 4.0943 0.1235
9 9 17 -0.4914 -0.0011
9 9 18 -3.2262 -0.0084
9 9 19 -1.8357 -0.0370
9 9 20 -5.9788 0.0479
9 9 21 -3.6727 -0.1237
9 10 1 -1.0972 0.4441
9 10 2 -9.0643 -0.0330
9 10 3 14.3510 -0.1634
9 10 4 -8.4421 0.0052
9 10 5 -8.0811 -0.0317
9 10 6 -14.1358 -0.0944
9 10 7 5.7939 -0.2428
9 10 8 7.9915 0.1891
9 10 9 12.0610 0.3168
9 10 10 -0.0293 0.1298
9 10 11 0.7478 -0.2127
9 10 12 -2.1547 -0.2291
9 10 13 0.1762 0.1146
9 10 14 -0.4134 0.2283
9 10 15 -1.4723 0.0765
9 10 16 -9.2102 -0.1064
9 10 17 -3.7418 -0.2265
9 10 18 -4.9626 -0.0055
9 10 19 -4.1088 0.2227
9 10 20 -2.2293 0.0408
9 10 21 -3.0986 -0.0932
9 11 0 35.7233 -0.1904
9 11 1 17.3163 -0.0814
9 11 2 -3.4851 0.0519
9 11 3 -22.4364 -0.1832
9 11 4 -4.9195 0.0491
9 11 5 1.8670 0.1095
9 11 6 13.0643 0.0810
9 11 7 7.4608 -0.2686
9 11 8 -2.0017 -0.0716
9 11 9 -6.4326 -0.1388
9 11 10 -2.6016 0.2052
9 11 11 1.5305 0.0409
9 11 12 -1.7912 0.1189
9 11 13 2.9554 -0.0998
9 11 14 2.0494 -0.1591
9 11 15 -1.9930 -0.0995
9 11 16 -9.0168 0.0839
9 11 17 -7.2697 0.1183
9 11 18 4.0081 0.0177
9 11 19 0.2285 -0.0884
9 11 20 -1.0225 -0.0712
9 12 1 -1.8364 0.1731
9 12 2 8.3533 0.0073
9 12 3 0.6865 0.0668
9 12 4 3.1611 0.0102
9 12 5 -8.3268 0.0111
9 12 6 -6.3413 -0.1449
9 12 7 -6.0944 -0.0149
9 12 8 8.1168 0.0540
9 12 9 -0.8400 0.1006
9 12 10 3.4976 0.1581
9 12 11 -2.5587 -0.1107
9 12 12 2.7159 -0.0518
9 12 13 0.6617 0.0155
9 12 14 -0.0474 0.1870
9 12 15 -3.8999 -0.0172
9 12 16 -2.6835 -0.1023
9 12 17 -2.8183 -0.0855
9 12 18 -1.7431 0.1008
9 12 19 0.4533 -0.0153
9 12 20 -6.2710 0.1034
9 13 0 -2.2792 -0.0705
9 13 1 -14.1357 -0.0352
9 13 2 -9.6287 -0.0308
9 13 3 -9.8165 -0.1580
9 13 4 2.0830 0.1260
9 13 5 6.1278 0.1114
9 13 6 8.3629 0.1155
9 13 7 -3.8931 -0.1836
9 13 8 -4.6103 -0.1429
9 13 9 -1.3375 -0.0646
9 13 10 1.4536 0.0596
9 13 11 -1.8286 0.0202
9 13 12 0.6616 0.1850
9 13 13 -1.3425 -0.0790
9 13 14 0.1306 -0.0907
9 13 15 -1.0376 -0.1789
9 13 16 -3.5567 0.0741
9 13 17 -3.2579 0.0604
9 13 18 -9.1546 0.0655
9 13 19 0.6034 -0.1214
9 13 20 -1.0020 0.1098
9 14 1 -6.5773 0.0227
9 14 2 -8.6904 0.1717
9 14 3 4.1388 0.0734
9 14 4 0.8949 -0.1935
9 14 5 -1.7000 0.0054
9 14 6 -5.3367 0.1340
9 14 7 0.2114 0.2086
9 14 8 0.8618 -0.0253
9 14 9 2.3204 -0.2235
9 14 10 -0.1392 -0.1154
9 14 11 0.2658 0.0685
9 14 12 2.5079 0.2015
9 14 13 3.7768 0.1251
9 14 14 -3.3949 -0.0622
9 14 15 -0.4756 -0.1317
9 14 16 -9.0946 -0.0948
9 14 17 1.3523 0.0983
9 14 18 -3.2630 0.1699
9 14 19 -2.8970 -0.0414
9 14 20 -2.6767 -0.1234
9 15 0 8.8809 0.1083
9 15 1 7.0303 -0.0611
9 15 2 0.4571 0.1561
9 15 3 -5.5085 -0.1116
9 15 4 -2.0437 0.2740
9 15 5 -1.7334 -0.1450
9 15 6 -4.8335 0.1596
9 15 7 2.3590 -0.1941
9 15 8 3.5809 0.1895
9 15 9 6.7524 -0.1435
9 15 10 -2.9526 0.0838
9 15 11 -3.3464 -0.1260
9 15 12 -5.1119 0.0446
9 15 13 -0.3636 -0.0492
9 15 14 4.4464 0.1269
9 15 15 2.7859 -0.1687
9 15 16 2.2111 0.0608
9 15 17 -1.1198 -0.1390
9 15 18 4.9604 0.1262
9 15 19 3.6676 -0.0082
9 16 1 -10.4572 0.0205
9 16 2 -11.3206 0.2835
9 16 3 -5.9046 -0.1252
9 16 4 1.4631 -0.0408
9 16 5 3.1942 -0.0093
9 16 6 1.6922 0.1434
9 16 7 2.7345 0.2348
9 16 8 -5.9648 -0.1197
9 16 9 -2.9503 -0.2110
9 16 10 -2.6829 -0.1572
9 16 11 5.1919 0.0742
9 16 12 2.9124 0.1004
9 16 13 3.4395 0.0980
9 16 14 0.6630 -0.0909
9 16 15 -5.0457 0.0330
9 16 16 -3.1488 0.0157
9 16 17 0.0959 0.1161
9 16 18 1.5837 -0.0706
9 16 19 6.8151 -0.0697
9 17 0 -0.4992 0.1108
9 17 1 -2.8469 0.0158
9 17 2 2.1993 0.1832
9 17 3 2.9934 0.1709
9 17 4 1.0050 0.1877
9 17 5 0.0107 -0.1998
9 17 6 -2.6052 0.0136
9 17 7 -1.8431 -0.0523
9 17 8 2.8122 0.2292
9 17 9 -0.3308 -0.0091
9 17 10 -0.9636 -0.0024
9 17 11 -0.7091 -0.1787
9 17 12 2.8889 0.0700
9 17 13 7.1705 0.0032
9 17 14 1.7552 0.0011
9 17 15 -1.4357 -0.0673
9 17 16 -3.3606 0.0103
9 17 17 -1.8164 -0.0088
9 17 18 -3.0610 0.0492
9 18 1 -3.2815 0.0602
9 18 2 1.5885 0.3319
9 18 3 4.2854 0.0906
9 18 4 -0.6552 -0.0671
9 18 5 -3.2779 -0.0332
9 18 6 1.8812 0.0362
9 18 7 -3.4259 0.0101
9 18 8 8.3844 -0.0784
9 18 9 -3.1672 -0.0168
9 18 10 4.1211 -0.0815
9 18 11 -4.4931 -0.0020
9 18 12 -1.5754 -0.0679
9 18 13 -4.8168 -0.0456
9 18 14 -2.2941 0.0288
9 18 15 -1.3967 0.1619
9 18 16 -2.1544 0.1386
9 18 17 0.3176 0.0794
9 18 18 0.8382 -0.1197
9 19 0 7.1342 0.2056
9 19 1 -3.0093 0.2164
9 19 2 1.3961 0.1318
9 19 3 -5.6027 0.2402
9 19 4 5.0522 -0.0025
9 19 5 -4.2239 0.0568
9 19 6 3.5989 -0.1839
9 19 7 -1.0024 0.0572
9 19 8 -1.5398 0.0589
9 19 9 2.0351 0.0780
9 19 10 -1.9909 -0.0321
9 19 11 -4.3007 -0.0232
9 19 12 1.5783 0.0268
9 19 13 0.4093 0.0158
9 19 14 1.6834 -0.0351
9 19 15 -4.3173 0.0051
9 19 16 -0.5661 -0.1198
9 19 17 1.9261 0.0538
9 19 18 -0.1831 0.0849
9 20 1 0.1520 0.0829
9 20 2 -3.1766 0.3507
9 20 3 -1.6386 0.3824
9 20 4 -1.1750 -0.0819
9 20 5 -4.4882 -0.0956
9 20 6 -2.0099 -0.0871
9 20 7 6.5997 -0.0839
9 20 8 2.8316 -0.1036
9 20 9 4.2134 -0.0079
9 20 10 -1.2706 0.1622
9 20 11 -1.2733 0.0373
9 20 12 -1.0165 -0.1723
9 20 13 -2.6707 -0.2077
9 20 14 -6.4419 -0.0444
9 20 15 -0.7419 0.2795
9 20 16 1.5622 0.3046
9 20 17 2.8671 0.0339
9 21 0 1.5521 0.1930
9 21 1 2.3648 0.2319
9 21 2 2.2414 0.0130
9 21 3 -2.6157 0.4035
9 21 4 -6.6995 -0.0016
9 21 5 1.6457 0.0136
9 21 6 -3.4992 -0.2492
9 21 7 0.8308 0.1320
9 21 8 -0.0712 -0.0465
9 21 9 -1.0400 0.1122
9 21 10 -1.3177 -0.1492
9 21 11 1.5912 0.1862
9 21 12 -2.8555 -0.0663
9 21 13 0.5070 0.1673
9 21 14 -1.2991 -0.1107
9 21 15 1.9854 -0.0228
9 21 16 -0.8249 -0.0648
9 21 17 -2.4271 0.0561
9 22 1 -1.9243 -0.1684
9 22 2 -2.5016 0.3087
9 22 3 -8.1532 0.4351
9 22 4 -5.4752 -0.0208
9 22 5 -0.7009 -0.0128
9 22 6 3.1871 -0.1444
9 22 7 1.1016 0.0173
9 22 8 8.1514 -0.2255
9 22 9 1.0829 -0.1022
9 22 10 2.3184 0.2340
9 22 11 -1.5355 0.1501
9 22 12 0.0824 -0.0104
9 22 13 1.6626 -0.3146
9 22 14 6.0710 -0.1091
9 22 15 2.5635 0.0627
9 22 16 -1.5179 0.2470
9 23 0 -0.0809 0.2569
9 23 1 -6.4830 0.0435
9 23 2 2.6362 -0.0348
9 23 3 0.0634 0.3117
9 23 4 4.9791 0.0166
9 23 5 -5.8879 0.1535
9 23 6 2.4917 -0.2316
9 23 7 -1.4585 0.1565
9 23 8 1.8508 -0.2022
9 23 9 -0.2496 0.1649
9 23 10 1.7207 -0.1619
9 23 11 -1.0109 0.2014
9 23 12 0.4738 -0.0373
9 23 13 -2.1743 0.1651
9 23 14 0.8976 -0.0637
9 23 15 0.0766 0.0998
9 24 1 5.1205 -0.3227
9 24 2 2.5277 0.0989
9 24 3 -2.0926 0.1589
9 24 4 -0.3094 0.1204
9 24 5 -1.1773 0.1302
9 24 6 2.3999 0.0055
9 24 7 -4.3089 -0.0486
9 24 8 -6.8211 -0.1918
9 24 9 -3.8841 -0.1373
9 24 10 1.7638 0.1286
9 24 11 2.6332 0.1952
9 24 12 1.4708 0.1273
9 24 13 -2.7718 -0.1866
9 24 14 -1.3152 -0.2026
9 24 15 -1.5596 -0.1674
9 25 0 7.8651 0.1415
9 25 1 4.3076 -0.0095
9 25 2 0.6351 0.0466
9 25 3 -0.4960 0.2064
9 25 4 3.8332 0.0050
9 25 5 2.7547 0.1334
9 25 6 0.3832 -0.1564
9 25 7 -0.8229 0.1804
9 25 8 -2.8104 -0.0609
9 25 9 -0.3797 0.1209
9 25 10 0.8383 -0.2112
9 25 11 1.8622 0.0818
9 25 12 -0.6005 0.0476
9 25 13 -1.6596 0.2501
9 25 14 -1.7817 -0.1002
9 26 1 -0.8554 -0.2718
9 26 2 1.9556 0.0201
9 26 3 2.5550 -0.0303
9 26 4 -0.2852 0.1359
9 26 5 0.2756 0.0730
9 26 6 0.1448 0.0654
9 26 7 2.0843 -0.0356
9 26 8 1.1413 -0.0620
9 26 9 0.7445 0.0354
9 26 10 -1.0029 -0.0284
9 26 11 -0.6502 0.0467
9 26 12 -0.1449 0.0745
9 26 13 5.4974 -0.0342
9 27 0 -1.2446 0.0517
9 27 1 -4.2061 0.0429
9 27 2 4.2792 -0.0901
9 27 3 1.0889 0.2987
9 27 4 2.0003 0.0403
9 27 5 -0.3584 -0.0364
9 27 6 -0.1631 -0.1266
9 27 7 0.2278 0.1635
9 27 8 2.4725 0.1838
9 27 9 -0.5173 -0.0040
9 27 10 -1.0294 -0.1011
9 27 11 0.8139 0.0159
9 27 12 1.9248 0.0308
9 28 1 -2.2252 -0.1057
9 28 2 -1.9821 -0.0120
9 28 3 -1.8404 -0.0369
9 28 4 -1.1143 -0.0931
9 28 5 -1.7747 0.0679
9 28 6 1.7420 0.0098
9 28 7 -0.1308 0.0163
9 28 8 -1.6375 0.0213
9 28 9 -1.1772 0.1302
9 28 10 0.7358 0.0226
9 28 11 -0.3625 -0.0473
9 29 0 1.1917 -0.0271
9 29 1 -2.5356 0.0946
9 29 2 -4.5137 -0.0267
9 29 3 -1.5008 0.0777
9 29 4 3.6566 -0.0879
9 29 5 0.8408 0.0697
9 29 6 2.6307 -0.0220
9 29 7 1.3914 0.0774
9 29 8 1.6079 -0.0354
9 29 9 1.1106 0.0576
9 29 10 -0.0011 0.0643
9 30 1 0.1615 -0.0473
9 30 2 0.3591 -0.0410
9 30 3 -2.0337 0.0799
9 30 4 -0.8234 -0.1070
9 30 5 -1.5408 -0.1282
9 30 6 -0.1614 0.0103
9 30 7 0.0856 0.0158
9 30 8 0.2291 -0.0418
9 31 0 -2.1720 -0.1765
9 31 1 1.0768 -0.0642
9 31 2 4.2530 -0.0278
9 31 3 -0.9642 -0.1037
9 31 4 -3.1406 -0.0579
9 31 5 -1.3293 0.1075
9 31 6 0.0366 -0.0148
9 32 1 -1.3129 -0.3359
9 32 2 -2.7789 -0.1846
9 32 3 -0.0674 -0.0358
9 32 4 -1.9652 0.4356
10 0 0 -7.3222 1.2415
10 0 1 8.9326 0.8841
10 0 2 -16.7704 0.6956
10 0 3 11.2193 0.7353
10 0 4 0.3057 -0.0055
10 0 5 31.8428 -0.4198
10 0 6 -15.4234 -0.7303
10 0 7 -19.3546 0.3503
10 0 8 -0.1153 0.6012
10 0 9 8.5716 0.5367
10 0 10 7.4176 -0.3867
10 0 11 -4.5073 -0.4972
10 0 12 7.8049 -0.4147
10 0 13 5.7251 0.4762
10 0 14 3.4936 0.3384
10 0 15 -7.7322 0.0740
10 0 16 -8.1721 -0.5747
10 0 17 4.0113 -0.2655
10 0 18 10.7927 0.0964
10 0 19 6.0801 0.5282
10 0 20 3.8941 0.1369
10 0 21 5.8108 -0.1438
10 0 22 3.6914 -0.3684
10 1 1 -11.9575 -3.1869
10 1 2 -10.1137 -0.9621
10 1 3 -7.4711 0.5497
10 1 4 2.1432 2.0382
10 1 5 9.3103 1.2039
10 1 6 10.2582 -1.5289
10 1 7 -7.1760 -1.6648
10 1 8 -20.8322 -0.2628
10 1 9 -12.8751 1.4377
10 1 10 0.5481 1.1465
10 1 11 0.8582 0.0022
10 1 12 -2.2637 -1.6115
10 1 13 1.1939 -0.6760
10 1 14 3.8345 0.2788
10 1 15 13.2957 1.2280
10 1 16 11.3289 0.2071
10 1 17 8.2678 -0.5527
10 1 18 -8.7950 -0.9870
10 1 19 -8.2187 -0.0048
10 1 20 -12.3634 0.5548
10 1 21 5.5360 0.6494
10 1 22 2.4229 -0.2853
10 2 0 16.3044 -0.2918
10 2 1 -1.8361 0.6152
10 2 2 -14.8956 0.5350
10 2 3 -8.7979 0.0323
10 2 4 18.2737 0.0779
10 2 5 -0.3695 -0.1553
10 2 6 -9.0534 -0.2412
10 2 7 -7.2886 0.0654
10 2 8 -15.9800 0.1272
10 2 9 -3.5630 0.1929
10 2 10 -2.6004 0.0173
10 2 11 1.3032 -0.1567
10 2 12 1.2638 -0.1172
10 2 13 -1.8755 -0.0277
10 2 14 -0.0359 0.0511
10 2 15 -0.2496 0.1144
10 2 16 4.6847 -0.0652
10 2 17 1.0964 0.0213
10 2 18 10.2768 -0.0265
10 2 19 14.2103 0.0198
10 2 20 6.7313 0.1089
10 2 21 -6.0576 0.1090
10 2 22 -6.4328 -0.1019
10 3 1 -7.3985 -1.0195
10 3 2 -5.6330 -0.5752
10 3 3 0.5307 -0.1326
10 3 4 7.8711 0.5913
10 3 5 1.4079 0.2748
10 3 6 1.6716 0.0843
10 3 7 -7.8621 -0.4753
10 3 8 -7.4743 -0.3144
10 3 9 -14.1127 0.2532
10 3 10 0.6325 0.1937
10 3 11 9.8681 -0.1676
10 3 12 8.0558 -0.0204
10 3 13 -9.7449 -0.0562
10 3 14 -7.1583 -0.0424
10 3 15 -19.0015 0.0816
10 3 16 -7.5432 -0.0727
10 3 17 -8.2917 -0.0414
10 3 18 5.0589 -0.0762
10 3 19 -9.5008 0.0643
10 3 20 13.2300 -0.0169
10 3 21 -5.9641 -0.1732
10 4 0 -67.5973 -0.1577
10 4 1 -32.8244 0.0046
10 4 2 -41.3346 -0.0072
10 4 3 10.1123 0.2143
10 4 4 -17.8474 -0.0650
10 4 5 18.9946 -0.0666
10 4 6 -13.7180 0.1943
10 4 7 -5.5794 -0.2823
10 4 8 -3.7221 -0.0614
10 4 9 5.7966 0.0298
10 4 10 -0.8664 0.1070
10 4 11 -4.5878 0.0926
10 4 12 -7.7861 -0.0422
10 4 13 -0.3419 -0.1416
10 4 14 10.8838 0.0246
10 4 15 3.9379 0.0016
10 4 16 -0.3771 0.1663
10 4 17 -2.7195 -0.0031
10 4 18 7.4338 -0.0572
10 4 19 7.3507 -0.0263
10 4 20 7.6043 0.1301
10 4 21 0.9690 0.0988
10 5 1 1.2597 0.2521
10 5 2 -8.7496 -0.1983
10 5 3 -16.9019 -0.1882
10 5 4 -10.9500 -0.3144
10 5 5 -0.2754 0.0898
10 5 6 4.2930 0.2680
10 5 7 -1.7170 0.0284
10 5 8 -5.9368 -0.1480
10 5 9 1.9820 -0.1994
10 5 10 2.7090 0.0910
10 5 11 -4.8647 0.0010
10 5 12 -10.5159 0.0058
10 5 13 -2.7613 -0.0385
10 5 14 -4.1974 0.1537
10 5 15 2.0153 -0.1794
10 5 16 5.8869 0.0420
10 5 17 13.2207 -0.0374
10 5 18 12.4492 0.0925
10 5 19 9.0897 -0.0899
10 5 20 -18.8660 -0.0076
10 5 21 -12.7239 -0.0004
10 6 0 52.3226 -0.2952
10 6 1 6.2068 -0.1766
10 6 2 11.7100 -0.0557
10 6 3 -5.9650 0.2024
10 6 4 33.8749 0.0204
10 6 5 -13.7776 -0.0932
10 6 6 -23.1525 -0.1890
10 6 7 -10.4790 0.0519
10 6 8 11.1419 0.0902
10 6 9 19.4570 -0.0610
10 6 10 14.2848 -0.0402
10 6 11 1.2819 -0.1049
10 6 12 0.3960 -0.0328
10 6 13 -3.8290 0.2927
10 6 14 -1.2367 0.0289
10 6 15 2.5895 -0.0680
10 6 16 2.0073 -0.0851
10 6 17 -2.8244 -0.0862
10 6 18 -1.0983 0.0539
10 6 19 1.7032 0.0918
10 6 20 7.1237 0.0909
10 6 21 9.5854 0.1030
10 7 1 -3.8473 0.3058
10 7 2 8.9654 0.0276
10 7 3 6.8968 -0.1307
10 7 4 -0.2561 -0.3716
10 7 5 -3.6871 0.2411
10 7 6 -0.9966 -0.0527
10 7 7 5.4661 -0.1026
10 7 8 3.6199 -0.1523
10 7 9 -1.6924 0.1893
10 7 10 -3.6524 0.2461
10 7 11 -4.3008 -0.0475
10 7 12 7.8694 -0.2349
10 7 13 -0.4824 -0.1565
10 7 14 3.3882 0.1474
10 7 15 -3.7209 0.1912
10 7 16 -4.5702 0.0381
10 7 17 -6.4030 -0.1542
10 7 18 4.6694 -0.0995
10 7 19 15.1892 0.0040
10 7 20 25.1160 0.1826
10 7 21 12.7742 0.0849
10 8 0 -22.9088 -0.4361
10 8 1 32.1406 -0.2552
10 8 2 5.1611 0.0766
10 8 3 36.1311 0.3365
10 8 4 -18.7226 0.1142
10 8 5 14.8565 -0.2028
10 8 6 -6.5678 -0.5638
10 8 7 6.1114 0.2350
10 8 8 0.7287 0.1937
10 8 9 0.7191 0.3159
10 8 10 -6.6965 -0.4167
10 8 11 -4.7303 -0.2132
10 8 12 -3.1865 -0.0004
10 8 13 -4.3107 0.3154
10 8 14 -1.2973 0.1637
10 8 15 3.3817 -0.0155
10 8 16 0.0435 -0.3738
10 8 17 -1.5491 0.0302
10 8 18 -2.8945 0.0478
10 8 19 -0.8269 0.1374
10 8 20 -9.8646 0.0275
10 8 21 -15.8457 0.0762
10 9 1 -4.0240 -0.2335
10 9 2 -4.5787 0.3281
10 9 3 2.1864 0.0429
10 9 4 5.0494 -0.0710
10 9 5 -9.9281 -0.0332
10 9 6 -3.1904 -0.1385
10 9 7 -6.6778 -0.0117
10 9 8 0.9264 -0.1566
10 9 9 -0.2052 0.2198
10 9 10 11.1067 0.2410
10 9 11 12.9065 -0.0025
10 9 12 -6.6905 -0.2147
10 9 13 -7.6226 -0.1103
10 9 14 -2.1944 0.0310
10 9 15 3.3753 0.1980
10 9 16 -1.2811 -0.0248
10 9 17 -3.7845 -0.0701
10 9 18 -3.0774 -0.1661
10 9 19 0.2148 0.0010
10 9 20 0.6539 0.2297
10 9 21 -2.0857 0.2036
10 10 0 26.5932 -0.5406
10 10 1 17.1775 -0.0153
10 10 2 15.1308 0.1004
10 10 3 16.2019 0.2611
10 10 4 10.9520 -0.0636
10 10 5 -12.4819 -0.1341
10 10 6 -17.1640 -0.2162
10 10 7 -12.7671 -0.0152
10 10 8 -10.3226 0.1120
10 10 9 -11.3914 0.2879
10 10 10 -9.3470 -0.2348
10 10 11 -4.8248 -0.0539
10 10 12 0.0024 -0.1350
10 10 13 -1.1149 0.1433
10 10 14 -0.4133 0.0071
10 10 15 -9.6954 0.0320
10 10 16 -3.8248 -0.0030
10 10 17 -1.7400 -0.0047
10 10 18 4.3719 -0.1031
10 10 19 -5.4024 0.0551
10 10 20 -12.8116 -0.0224
10 10 21 -7.9352 0.1998
10 11 1 -8.1046 -0.3152
10 11 2 -8.4216 0.4645
10 11 3 -4.2493 0.2684
10 11 4 -1.5859 0.0298
10 11 5 6.2252 -0.3125
10 11 6 -6.3021 0.0460
10 11 7 2.8767 0.0722
10 11 8 -3.2154 -0.0722
10 11 9 9.7182 -0.0605
10 11 10 -2.8495 0.1089
10 11 11 -5.1439 0.1436
10 11 12 -1.3069 0.0173
10 11 13 1.9817 -0.1146
10 11 14 1.7579 -0.1129
10 11 15 -1.9216 -0.0083
10 11 16 -0.1469 0.0058
10 11 17 0.6599 0.0768
10 11 18 9.6358 -0.0802
10 11 19 7.3153 -0.0355
10 11 20 5.0829 -0.1533
10 12 0 20.8531 -0.2264
10 12 1 9.1412 0.1942
10 12 2 1.0910 0.0517
10 12 3 -14.2204 -0.2392
10 12 4 -9.9761 0.0015
10 12 5 1.6590 -0.0908
10 12 6 8.9144 0.2976
10 12 7 13.4538 -0.2393
10 12 8 0.8589 0.0568
10 12 9 -4.2789 -0.1692
10 12 10 -2.7532 0.2652
10 12 11 -2.7191 -0.0950
10 12 12 -2.0285 -0.0008
10 12 13 3.5031 -0.1186
10 12 14 1.4087 -0.0320
10 12 15 0.2417 -0.0094
10 12 16 -5.1077 0.2087
10 12 17 -2.7161 -0.0530
10 12 18 2.1193 -0.0332
10 12 19 0.0602 -0.0908
10 12 20 2.9348 0.0916
10 13 1 5.6589 -0.0410
10 13 2 13.8872 0.4317
10 13 3 15.9051 0.1891
10 13 4 5.2925 -0.1390
10 13 5 -10.9423 -0.1165
10 13 6 -10.9549 0.1253
10 13 7 -4.3983 0.1672
10 13 8 9.8627 -0.0563
10 13 9 3.9140 -0.2761
10 13 10 3.2078 0.0102
10 13 11 -0.7422 0.1558
10 13 12 3.3294 0.2024
10 13 13 -1.9647 -0.0958
10 13 14 1.7868 -0.1627
10 13 15 -2.0574 -0.1468
10 13 16 3.3287 0.0339
10 13 17 0.2048 0.1486
10 13 18 -1.6901 -0.0025
10 13 19 -1.2985 -0.1365
10 13 20 0.3876 -0.2649
10 14 0 -12.5054 0.0277
10 14 1 -2.1925 0.0382
10 14 2 -5.4719 -0.1495
10 14 3 3.9419 -0.2649
10 14 4 -4.1131 0.0212
10 14 5 -0.8676 0.0318
10 14 6 -3.1522 0.1897
10 14 7 2.0274 -0.1016
10 14 8 4.5982 -0.0539
10 14 9 -0.0269 -0.1131
10 14 10 -6.2189 0.1206
10 14 11 -1.0782 0.0004
10 14 12 2.4164 0.0227
10 14 13 1.1565 -0.1124
10 14 14 -0.2806 0.0657
10 14 15 2.0676 -0.0471
10 14 16 -2.0441 -0.0177
10 14 17 0.9302 0.0067
10 14 18 -0.7394 0.0746
10 14 19 -0.1548 -0.0816
10 15 1 -6.5416 0.2771
10 15 2 -3.2742 0.4917
10 15 3 2.8142 0.1848
10 15 4 4.8811 -0.3285
10 15 5 0.3307 -0.0550
10 15 6 -0.1242 0.0346
10 15 7 1.2345 0.2091
10 15 8 1.7205 0.0088
10 15 9 0.6091 -0.1033
10 15 10 0.3907 -0.0217
10 15 11 -4.5935 -0.0466
10 15 12 -3.9665 0.0866
10 15 13 2.6154 -0.0499
10 15 14 3.5592 -0.0132
10 15 15 3.4506 -0.0467
10 15 16 -1.9318 0.0720
10 15 17 2.9017 -0.0283
10 15 18 1.1929 -0.0119
10 15 19 -0.4425 -0.1491
10 16 0 -10.0744 0.0574
10 16 1 -6.2909 0.0170
10 16 2 -4.9305 -0.1154
10 16 3 -1.4498 -0.1839
10 16 4 -1.1505 -0.0893
10 16 5 -0.1845 0.0377
10 16 6 2.5466 0.0670
10 16 7 3.9098 -0.0192
10 16 8 4.4401 -0.0918
10 16 9 2.9771 -0.0054
10 16 10 -0.3766 0.0121
10 16 11 3.3926 0.0273
10 16 12 2.9398 0.0191
10 16 13 2.7248 -0.0144
10 16 14 -1.6019 0.0526
10 16 15 -5.3995 -0.0561
10 16 16 -1.8294 -0.0629
10 16 17 -5.7649 -0.1053
10 16 18 -5.7302 0.0778
10 16 19 -5.3369 0.0832
10 17 1 -2.2644 0.2058
10 17 2 -2.3789 0.5983
10 17 3 1.7165 0.1255
10 17 4 -3.2032 -0.1350
10 17 5 0.1879 -0.1515
10 17 6 -0.5429 -0.1133
10 17 7 7.2244 0.1131
10 17 8 -2.2799 -0.0285
10 17 9 3.9597 0.2296
10 17 10 -5.0252 0.1023
10 17 11 5.3261 -0.1362
10 17 12 0.7498 -0.1643
10 17 13 2.4338 -0.0984
10 17 14 -0.3806 0.0455
10 17 15 -0.0203 0.1638
10 17 16 -0.0652 0.1326
10 17 17 2.8781 0.0160
10 17 18 0.0547 -0.2076
10 18 0 1.6319 -0.1301
10 18 1 -3.3378 0.2043
10 18 2 4.4807 0.0863
10 18 3 1.4852 -0.2270
10 18 4 -1.4029 -0.0236
10 18 5 -5.4586 -0.1641
10 18 6 -1.4334 0.0866
10 18 7 2.5756 -0.1063
10 18 8 2.4966 0.0225
10 18 9 -1.5004 -0.0275
10 18 10 3.5676 0.0028
10 18 11 -3.0249 0.0264
10 18 12 0.3363 0.0818
10 18 13 1.1451 -0.0073
10 18 14 -3.4430 0.0258
10 18 15 -1.4049 -0.0860
10 18 16 -2.5985 -0.0756
10 18 17 -2.9138 -0.1173
10 18 18 -5.1491 0.0533
10 19 1 2.5156 0.1922
10 19 2 2.3961 0.4575
10 19 3 0.7132 0.0359
10 19 4 5.8651 -0.0884
10 19 5 4.0760 -0.0407
10 19 6 -0.6993 -0.0260
10 19 7 -0.8340 -0.0227
10 19 8 4.3469 -0.0642
10 19 9 -7.4122 0.1588
10 19 10 -3.9613 0.1836
10 19 11 -5.1489 0.0468
10 19 12 5.5041 -0.2293
10 19 13 0.4560 -0.1157
10 19 14 -2.4788 0.0250
10 19 15 -0.7350 0.2089
10 19 16 3.9476 0.0294
10 19 17 0.8767 0.0364
10 20 0 -8.2113 0.4171
10 20 1 8.0062 0.1658
10 20 2 -3.2313 0.0846
10 20 3 4.6557 -0.1010
10 20 4 -6.2288 -0.0350
10 20 5 -0.2529 -0.2024
10 20 6 -3.8016 0.1113
10 20 7 3.0385 -0.1496
10 20 8 -3.1204 0.0109
10 20 9 0.0556 -0.0900
10 20 10 -5.4123 0.1397
10 20 11 4.9326 -0.0137
10 20 12 -1.0540 0.0248
10 20 13 -2.6464 0.0435
10 20 14 -2.1911 0.0045
10 20 15 -2.0124 -0.1200
10 20 16 -3.3783 -0.0579
10 20 17 0.2468 -0.0995
10 21 1 2.5355 0.0372
10 21 2 -0.5404 0.2761
10 21 3 -0.6179 0.0131
10 21 4 -4.0780 -0.0333
10 21 5 -1.5731 0.0456
10 21 6 -0.6405 0.0528
10 21 7 1.5031 0.0044
10 21 8 0.7217 -0.1151
10 21 9 3.1474 0.0016
10 21 10 -4.8768 0.1564
10 21 11 -3.7579 0.0844
10 21 12 -3.8249 -0.0673
10 21 13 -4.8313 -0.0502
10 21 14 -1.9331 0.0611
10 21 15 -0.1888 0.0762
10 21 16 1.2040 -0.0638
10 22 0 6.4630 -0.2709
10 22 1 -7.3958 0.1042
10 22 2 8.8650 0.1440
10 22 3 -4.8605 0.0959
10 22 4 0.6132 0.0868
10 22 5 -6.7744 -0.1676
10 22 6 3.8268 -0.0770
10 22 7 -2.5418 -0.1181
10 22 8 3.7497 0.1041
10 22 9 -5.7265 -0.0453
10 22 10 1.5667 0.0488
10 22 11 0.0843 -0.0287
10 22 12 2.2288 0.0350
10 22 13 -1.3125 -0.0909
10 22 14 -1.3737 0.0262
10 22 15 0.3546 0.0192
10 22 16 2.0501 -0.0882
10 23 1 -4.9183 -0.0762
10 23 2 -4.2577 0.0577
10 23 3 -0.1745 -0.0023
10 23 4 0.9173 0.0140
10 23 5 0.5420 0.1102
10 23 6 -0.7356 0.0402
10 23 7 -0.0529 0.0532
10 23 8 -0.2766 -0.0644
10 23 9 -1.4863 -0.0242
10 23 10 2.8625 0.0149
10 23 11 1.5214 -0.0531
10 23 12 0.2451 0.0861
10 23 13 0.8005 0.1186
10 23 14 -2.1422 0.0210
10 23 15 0.8132 0.0270
10 24 0 -1.4057 0.0276
10 24 1 2.3829 0.0322
10 24 2 -2.0244 -0.1249
10 24 3 6.7246 0.3045
10 24 4 2.5361 0.0331
10 24 5 0.2520 0.0251
10 24 6 -2.3783 -0.2503
10 24 7 5.4214 0.1040
10 24 8 -3.5616 0.0155
10 24 9 -1.4964 0.1091
10 24 10 -2.7362 -0.1897
10 24 11 1.4780 -0.0141
10 24 12 -0.5764 -0.0242
10 24 13 1.5051 -0.0190
10 24 14 0.0805 -0.0513
10 25 1 -1.8048 0.0688
10 25 2 1.5061 -0.0874
10 25 3 0.8557 -0.1537
10 25 4 3.3107 -0.0900
10 25 5 -0.9968 0.2503
10 25 6 -0.4782 -0.0002
10 25 7 -1.6345 0.0360
10 25 8 1.8465 -0.0439
10 25 9 2.9923 0.0989
10 25 10 3.9282 0.0225
10 25 11 0.7155 -0.1956
10 25 12 0.9753 -0.0295
10 25 13 -1.2921 0.0538
10 25 14 0.4211 0.2108
10 26 0 -1.8194 0.2699
10 26 1 -1.5823 0.0168
10 26 2 2.1243 -0.0730
10 26 3 1.3621 0.1290
10 26 4 4.1859 -0.0355
10 26 5 1.8912 0.0640
10 26 6 1.9305 -0.1265
10 26 7 -0.9798 0.2518
10 26 8 5.9229 -0.0870
10 26 9 -0.0725 0.1000
10 26 10 0.6083 -0.2616
10 26 11 0.5176 -0.0825
10 26 12 2.2227 -0.0730
10 26 13 -1.3417 0.1013
10 27 1 -1.7025 0.0510
10 27 2 -2.7487 -0.0168
10 27 3 0.8744 -0.1801
10 27 4 -1.3546 -0.1326
10 27 5 0.2296 0.0523
10 27 6 0.8098 0.0034
10 27 7 1.4049 -0.0052
10 27 8 -0.7133 0.0436
10 27 9 -0.9314 0.1962
10 27 10 -0.5639 0.1357
10 27 11 0.2204 -0.1890
10 27 12 -1.1769 -0.3325
10 28 0 3.4849 0.1156
10 28 1 0.6022 0.0347
10 28 2 -3.9582 0.0070
10 28 3 -2.6254 -0.0440
10 28 4 -0.0807 0.0818
10 28 5 -0.5647 -0.0498
10 28 6 -0.0010 -0.0158
10 28 7 0.0621 0.0150
10 28 8 1.4690 0.1032
10 28 9 1.6331 0.0720
10 28 10 0.2745 -0.2276
10 28 11 -2.0373 -0.1947
10 29 1 0.8415 -0.1353
10 29 2 0.3213 -0.1030
10 29 3 -1.5923 -0.1998
10 29 4 -2.1375 -0.0016
10 29 5 -1.3813 0.0002
10 29 6 -1.4756 -0.1450
10 29 7 1.6179 -0.0975
10 29 8 0.5574 -0.0490
10 29 9 0.0177 0.4707
10 30 0 -0.3807 -0.1671
10 30 1 -3.9050 -0.1639
10 30 2 -0.1470 0.0320
10 30 3 -3.2000 0.2276
10 30 4 -1.5427 0.0262
10 30 5 -1.2787 -0.1359
10 30 6 -0.4240 -0.0476
10 30 7 -2.0897 -0.2184
10 30 8 0.5964 0.1792
10 31 1 -1.8556 -0.1776
10 31 2 -0.8983 -0.3180
10 31 3 -1.7842 -0.1762
10 31 4 0.3157 0.1678
10 31 5 -1.4288 0.1371
10 31 6 1.3881 -0.3575
10 32 0 0.4337 -0.5056
10 32 1 -1.9563 -0.4185
10 32 2 -3.2842 0.3093
10 32 3 -2.3932 0.2704
11 1 0 16.7561 -0.7804
11 1 1 22.8744 0.3700
11 1 2 32.4745 -0.1532
11 1 3 8.0442 0.3281
11 1 4 1.0302 -0.9630
11 1 5 -4.5988 0.2112
11 1 6 5.6395 -0.7405
11 1 7 -11.6435 0.5345
11 1 8 -3.7406 0.2204
11 1 9 -16.5093 0.7526
11 1 10 3.7038 -0.7812
11 1 11 1.2018 -0.2700
11 1 12 11.5032 -0.5288
11 1 13 -2.6654 0.8412
11 1 14 1.8495 0.1142
11 1 15 -12.2898 0.3109
11 1 16 -7.5503 -0.6522
11 1 17 1.9371 -0.0601
11 1 18 22.7676 -0.1023
11 1 19 22.5965 0.4663
11 1 20 20.9950 -0.1157
11 1 21 7.2782 0.0531
11 2 1 -4.6621 0.4081
11 2 2 -2.3903 0.6055
11 2 3 4.6684 0.1520
11 2 4 14.3674 -0.3185
11 2 5 5.9561 -0.3003
11 2 6 1.4166 0.0733
11 2 7 -9.6972 0.2612
11 2 8 -5.0397 0.0147
11 2 9 -4.8851 -0.1342
11 2 10 1.2831 -0.3163
11 2 11 4.7958 0.1469
11 2 12 3.8326 0.1925
11 2 13 -2.5996 0.0505
11 2 14 -2.1618 -0.1367
11 2 15 1.9441 -0.0445
11 2 16 1.7391 0.0297
11 2 17 4.8958 0.1668
11 2 18 8.0636 -0.0693
11 2 19 5.6457 -0.2018
11 2 20 -5.1941 -0.1395
11 2 21 5.8695 0.0985
11 3 0 10.7653 0.5016
11 3 1 -6.7213 0.3735
11 3 2 4.9907 -0.2465
11 3 3 3.8914 -0.2148
11 3 4 4.4771 -0.7850
11 3 5 -13.4639 0.7623
11 3 6 -20.6732 -0.2263
11 3 7 -10.3675 0.4477
11 3 8 -4.1346 -0.8059
11 3 9 2.8671 0.5262
11 3 10 -3.1033 -0.1511
11 3 11 -8.1669 0.2305
11 3 12 -8.7733 -0.4072
11 3 13 -7.8240 0.2237
11 3 14 -4.2993 -0.3515
11 3 15 3.5442 0.4249
11 3 16 6.6785 -0.1471
11 3 17 9.6609 0.2368
11 3 18 8.2433 -0.3148
11 3 19 10.4086 0.0027
11 3 20 3.1293 -0.0922
11 3 21 0.5034 0.1377
11 4 1 -23.6448 0.0617
11 4 2 -16.2654 0.3073
11 4 3 -0.8270 0.0833
11 4 4 12.8695 -0.0105
11 4 5 2.7871 -0.2413
11 4 6 -8.7895 0.0726
11 4 7 -0.3207 -0.0473
11 4 8 2.1936 -0.0067
11 4 9 5.7702 -0.0263
11 4 10 2.2040 -0.0048
11 4 11 -1.5465 0.0389
11 4 12 -5.7226 -0.0200
11 4 13 -3.5034 0.0722
11 4 14 -4.0937 -0.0542
11 4 15 -5.9487 -0.0678
11 4 16 -6.9806 0.0016
11 4 17 -4.8940 0.1615
11 4 18 4.5186 -0.0048
11 4 19 20.9724 -0.0172
11 4 20 27.2477 -0.1506
11 4 21 2.3964 0.0923
11 5 0 -0.1615 0.5388
11 5 1 47.7001 0.4370
11 5 2 3.4325 -0.2497
11 5 3 26.4317 0.0410
11 5 4 -7.8864 0.2718
11 5 5 15.5296 -0.0680
11 5 6 0.4618 -0.0367
11 5 7 -0.4942 -0.0878
11 5 8 -8.7475 0.0277
11 5 9 2.9305 0.1547
11 5 10 0.3583 -0.0047
11 5 11 1.3728 -0.0570
11 5 12 -8.3942 -0.1756
11 5 13 0.8743 -0.0502
11 5 14 -4.1693 0.1867
11 5 15 1.1428 -0.1169
11 5 16 6.1631 -0.0274
11 5 17 5.6395 -0.0185
11 5 18 -0.6122 0.0499
11 5 19 -5.4336 0.0787
11 5 20 -1.3441 0.0235
11 5 21 -4.6744 -0.3275
11 6 1 -18.2611 -0.3296
11 6 2 -22.0846 -0.0494
11 6 3 6.4505 0.1913
11 6 4 4.3743 0.2782
11 6 5 7.2820 -0.0510
11 6 6 3.8746 -0.2701
11 6 7 -8.6568 -0.2512
11 6 8 1.0746 0.0489
11 6 9 3.7207 0.1996
11 6 10 4.7015 0.1504
11 6 11 -0.4837 -0.1041
11 6 12 -2.3612 -0.1181
11 6 13 -0.5558 -0.0378
11 6 14 3.5338 0.0622
11 6 15 9.2656 -0.0090
11 6 16 8.6767 0.0568
11 6 17 5.0551 0.0228
11 6 18 7.2049 0.0144
11 6 19 5.1719 -0.0292
11 6 20 7.5001 -0.0036
11 6 21 8.7308 0.1166
11 7 0 46.9302 0.2836
11 7 1 -16.5525 0.2934
11 7 2 30.2698 0.2723
11 7 3 -27.8399 -0.0029
11 7 4 8.2420 0.1742
11 7 5 -22.0607 0.0572
11 7 6 0.4826 -0.0167
11 7 7 -7.0696 -0.2410
11 7 8 12.1313 0.4220
11 7 9 0.5691 -0.1488
11 7 10 2.3010 -0.0369
11 7 11 -3.5049 -0.1386
11 7 12 5.6861 0.0175
11 7 13 -4.4779 0.0414
11 7 14 0.3744 0.0199
11 7 15 1.3250 -0.1122
11 7 16 1.9894 -0.0618
11 7 17 -3.0565 -0.1488
11 7 18 -1.5769 0.3193
11 7 19 0.4183 0.0395
11 7 20 0.4996 0.0032
11 7 21 1.6019 -0.0381
11 8 1 -24.5396 -0.1486
11 8 2 -6.8542 -0.2626
11 8 3 3.3686 0.0817
11 8 4 34.6898 0.1924
11 8 5 11.1105 0.1088
11 8 6 -7.5685 -0.1329
11 8 7 -8.7796 -0.2736
11 8 8 -8.8112 -0.1043
11 8 9 -2.6609 0.1517
11 8 10 6.1465 0.2023
11 8 11 4.3123 -0.0434
11 8 12 -0.6802 -0.1300
11 8 13 -5.6293 -0.1384
11 8 14 4.3731 0.1692
11 8 15 1.5841 0.0484
11 8 16 0.5817 -0.0044
11 8 17 -4.1088 -0.0632
11 8 18 2.2003 -0.0113
11 8 19 -0.4643 -0.0554
11 8 20 -5.3957 0.1232
11 8 21 -9.3782 0.0587
11 9 0 -48.9732 -0.0580
11 9 1 -8.3112 0.5022
11 9 2 -35.3592 -0.1292
11 9 3 24.3845 0.0371
11 9 4 13.8758 -0.2253
11 9 5 37.0301 0.5224
11 9 6 -0.7255 0.0920
11 9 7 -4.5649 0.1568
11 9 8 -13.4280 -0.6009
11 9 9 6.4961 0.0662
11 9 10 4.8109 0.0351
11 9 11 0.1187 0.2803
11 9 12 -5.1412 -0.0076
11 9 13 2.3527 -0.1651
11 9 14 1.6987 -0.3969
11 9 15 3.8310 0.1643
11 9 16 0.5142 0.1317
11 9 17 5.9885 0.2340
11 9 18 3.5438 -0.1967
11 9 19 2.8977 0.0035
11 9 20 2.0534 0.0465
11 9 21 -0.1735 0.1630
11 10 1 -16.6014 -0.2228
11 10 2 -21.7269 -0.3007
11 10 3 4.6511 0.0161
11 10 4 9.4888 0.1387
11 10 5 6.5078 0.1591
11 10 6 3.4073 -0.0428
11 10 7 -8.0136 -0.1845
11 10 8 0.1393 -0.1633
11 10 9 -2.1743 0.1085
11 10 10 -3.7019 0.0809
11 10 11 -1.0111 -0.0339
11 10 12 1.3723 -0.1580
11 10 13 1.0444 0.0268
11 10 14 -6.5953 0.1603
11 10 15 -4.4907 0.0846
11 10 16 -2.7870 -0.0566
11 10 17 0.3720 -0.2157
11 10 18 -3.6500 -0.0473
11 10 19 -2.2362 0.1284
11 10 20 0.8393 0.0211
11 11 0 6.7667 -0.2413
11 11 1 7.1664 0.0526
11 11 2 -6.6362 -0.5590
11 11 3 -13.2037 -0.0576
11 11 4 -4.7500 -0.2621
11 11 5 0.1520 1.0518
11 11 6 8.7908 -0.0333
11 11 7 2.3375 0.1960
11 11 8 4.3085 -1.0456
11 11 9 -1.7036 0.1393
11 11 10 2.8960 -0.0509
11 11 11 -4.2814 0.8632
11 11 12 -8.4019 -0.2886
11 11 13 -5.6573 -0.1522
11 11 14 2.6708 -0.6957
11 11 15 -0.9728 0.2965
11 11 16 0.0167 0.2921
11 11 17 -1.7084 0.5366
11 11 18 2.9449 -0.4717
11 11 19 2.7462 -0.1328
11 11 20 2.7459 -0.1505
11 12 1 -16.5499 -0.1540
11 12 2 -6.7628 -0.1924
11 12 3 -1.8775 0.0173
11 12 4 2.9609 0.0904
11 12 5 -4.2902 0.1097
11 12 6 -9.3780 -0.0239
11 12 7 -0.2940 -0.1186
11 12 8 0.9270 -0.0984
11 12 9 4.0446 0.0330
11 12 10 1.2217 0.0333
11 12 11 5.0638 -0.0411
11 12 12 0.3698 -0.1279
11 12 13 -2.3124 -0.0015
11 12 14 -4.3918 0.2019
11 12 15 -4.5519 0.0784
11 12 16 2.4318 -0.0885
11 12 17 -0.7037 -0.1487
11 12 18 7.3048 -0.0515
11 12 19 3.2341 0.0216
11 12 20 5.9979 0.0472
11 13 0 -10.4005 -0.3081
11 13 1 -12.9677 -0.2856
11 13 2 8.0691 -0.6312
11 13 3 12.4161 -0.0032
11 13 4 8.9275 0.0489
11 13 5 3.7080 0.5668
11 13 6 -4.6303 0.0141
11 13 7 -7.0159 0.0802
11 13 8 1.2660 -0.4947
11 13 9 6.4388 -0.0322
11 13 10 2.6403 -0.1290
11 13 11 -5.0910 0.4540
11 13 12 -0.7787 -0.0433
11 13 13 -0.5022 -0.0470
11 13 14 -2.2482 -0.3523
11 13 15 0.7173 0.0959
11 13 16 -0.2927 0.1045
11 13 17 -1.2121 0.2657
11 13 18 -3.2117 -0.0531
11 13 19 -4.2523 -0.1734
11 13 20 -2.1263 -0.1061
11 14 1 -3.6396 -0.0394
11 14 2 -0.0971 -0.0812
11 14 3 9.3068 -0.0375
11 14 4 5.6012 0.1161
11 14 5 -4.5667 -0.0055
11 14 6 -3.5161 0.0527
11 14 7 1.8694 -0.1681
11 14 8 6.3571 0.0089
11 14 9 3.4246 -0.0283
11 14 10 1.0447 0.0569
11 14 11 -6.7052 -0.0802
11 14 12 -5.2897 -0.0237
11 14 13 -3.5159 -0.0481
11 14 14 6.1073 0.0855
11 14 15 5.2652 0.0928
11 14 16 1.7888 -0.0277
11 14 17 -3.9011 -0.0817
11 14 18 -4.9221 -0.0859
11 14 19 -9.3352 0.0744
11 15 0 -3.1333 -0.2545
11 15 1 6.5414 -0.2128
11 15 2 -1.6292 -0.0918
11 15 3 0.6524 0.0602
11 15 4 2.1893 0.1266
11 15 5 3.0528 -0.1135
11 15 6 -2.3857 -0.0510
11 15 7 -2.6967 -0.0079
11 15 8 -1.1370 0.2896
11 15 9 4.3478 -0.0306
11 15 10 1.3209 -0.1570
11 15 11 -0.3325 -0.2486
11 15 12 -0.9392 0.0602
11 15 13 0.8545 0.1768
11 15 14 0.3459 0.1351
11 15 15 1.0184 -0.0987
11 15 16 0.7683 -0.0930
11 15 17 2.0885 -0.1396
11 15 18 -3.7786 0.1632
11 15 19 -2.1047 0.0894
11 16 1 -2.1054 0.0928
11 16 2 -1.9889 -0.0050
11 16 3 -5.3860 0.0426
11 16 4 -1.9880 0.0373
11 16 5 -3.0262 -0.0737
11 16 6 2.2586 -0.0340
11 16 7 5.3610 -0.0440
11 16 8 0.7292 0.0270
11 16 9 -1.9011 -0.0221
11 16 10 -3.8707 0.0091
11 16 11 2.8101 -0.0410
11 16 12 1.7277 0.0137
11 16 13 -1.7525 -0.0029
11 16 14 -1.2826 0.0053
11 16 15 2.2562 -0.0308
11 16 16 9.2937 0.0583
11 16 17 0.2993 -0.0492
11 16 18 -4.7743 -0.0263
11 17 0 -4.3042 -0.1521
11 17 1 3.2603 0.0157
11 17 2 -2.5285 0.3284
11 17 3 4.1101 0.2924
11 17 4 -10.5912 -0.0509
11 17 5 -4.2382 -0.3114
11 17 6 -6.1677 -0.3180
11 17 7 0.2469 0.0626
11 17 8 3.8706 0.3883
11 17 9 3.8309 0.2399
11 17 10 4.5412 -0.1362
11 17 11 0.0182 -0.3724
11 17 12 -2.1976 -0.0733
11 17 13 2.4141 0.1970
11 17 14 -2.9497 0.2250
11 17 15 -6.8753 -0.0453
11 17 16 -3.9936 -0.2009
11 17 17 2.8157 -0.1607
11 17 18 7.2430 0.0632
11 18 1 3.2437 0.0057
11 18 2 4.1467 0.1474
11 18 3 1.7373 0.0719
11 18 4 -0.0230 0.0120
11 18 5 1.6141 -0.1473
11 18 6 -3.2069 -0.0729
11 18 7 -3.7593 0.0696
11 18 8 -1.4847 0.0358
11 18 9 -2.3788 -0.0642
11 18 10 -6.2473 -0.1009
11 18 11 0.3563 0.1130
11 18 12 -1.6493 0.1056
11 18 13 -1.2842 -0.0562
11 18 14 -2.3775 -0.0438
11 18 15 1.6464 -0.0873
11 18 16 0.7710 0.0279
11 18 17 -1.4340 0.0324
11 18 18 0.3252 0.0095
11 19 0 6.0803 -0.1312
11 19 1 -2.8122 0.0144
11 19 2 4.2381 0.3602
11 19 3 -3.7613 0.5649
11 19 4 9.9353 0.1013
11 19 5 -3.7831 -0.4410
11 19 6 6.3775 -0.5620
11 19 7 -4.4096 0.0685
11 19 8 2.6963 0.3303
11 19 9 -1.7996 0.3708
11 19 10 1.5653 -0.0733
11 19 11 -0.6669 -0.3399
11 19 12 5.4356 -0.0238
11 19 13 -1.3596 0.1137
11 19 14 0.5909 0.2117
11 19 15 -2.4383 -0.1154
11 19 16 -2.9128 -0.3175
11 19 17 -3.7077 -0.0400
11 20 1 1.2314 0.1169
11 20 2 -0.6998 0.0731
11 20 3 -0.1305 0.1019
11 20 4 -0.4038 -0.1083
11 20 5 -1.2016 -0.1591
11 20 6 1.0610 0.0833
11 20 7 5.3395 0.1255
11 20 8 -1.0628 0.0069
11 20 9 3.3035 -0.1501
11 20 10 1.4774 -0.1195
11 20 11 3.0537 0.1860
11 20 12 6.0505 0.1174
11 20 13 7.7388 0.0219
11 20 14 0.3727 -0.1509
11 20 15 -2.5208 -0.0356
11 20 16 -2.9774 0.0359
11 20 17 -0.9696 -0.0593
11 21 0 -3.3294 0.0362
11 21 1 18.4063 -0.1713
11 21 2 -4.9715 0.4211
11 21 3 12.0740 0.3490
11 21 4 -11.4958 0.2999
11 21 5 10.3763 -0.5097
11 21 6 -10.9621 -0.3142
11 21 7 6.2373 -0.1383
11 21 8 -6.9576 0.4559
11 21 9 -0.7989 0.0734
11 21 10 -5.4912 -0.0890
11 21 11 5.2623 -0.1022
11 21 12 1.1275 0.0018
11 21 13 2.8279 0.2086
11 21 14 -4.9635 0.1191
11 21 15 -2.3350 -0.2260
11 21 16 -4.8814 -0.3547
11 22 1 -0.4530 0.0965
11 22 2 2.1971 0.1147
11 22 3 2.2291 -0.0523
11 22 4 -2.0894 -0.1231
11 22 5 0.0547 -0.1164
11 22 6 -2.2292 0.1272
11 22 7 1.3151 0.2726
11 22 8 1.6289 0.0143
11 22 9 -0.5626 -0.1814
11 22 10 -1.2285 -0.1537
11 22 11 1.3347 0.1156
11 22 12 0.7168 0.1563
11 22 13 -1.3036 0.0659
11 22 14 1.7769 -0.0810
11 22 15 -0.9806 -0.0782
11 23 0 3.6034 0.2030
11 23 1 -12.5232 -0.1985
11 23 2 -11.6383 0.3704
11 23 3 -12.4499 0.0872
11 23 4 5.0769 0.2765
11 23 5 -5.8300 -0.4589
11 23 6 6.3177 0.0136
11 23 7 -3.1762 -0.1364
11 23 8 8.3287 0.3971
11 23 9 -0.0269 -0.1167
11 23 10 7.0600 -0.0592
11 23 11 1.2032 -0.2662
11 23 12 3.2220 0.2746
11 23 13 -1.9967 0.2671
11 23 14 -0.5792 0.0895
11 23 15 -1.3336 -0.1737
11 24 1 5.9819 0.1018
11 24 2 2.2838 0.0667
11 24 3 -1.0820 -0.1291
11 24 4 -1.8590 -0.0739
11 24 5 -0.8678 -0.0905
11 24 6 0.0357 0.1981
11 24 7 -1.0471 0.1833
11 24 8 -3.8286 0.1304
11 24 9 -1.5259 -0.1184
11 24 10 -1.8260 -0.1531
11 24 11 0.1571 0.0930
11 24 12 -0.5951 0.0683
11 24 13 2.3644 0.0320
11 24 14 4.1592 -0.0885
11 25 0 -7.5642 0.1962
11 25 1 3.4290 -0.0731
11 25 2 -1.0668 0.3173
11 25 3 3.2092 0.0820
11 25 4 -2.8643 0.0339
11 25 5 4.3038 -0.3292
11 25 6 -4.4155 0.1254
11 25 7 2.1641 0.0496
11 25 8 -3.4298 0.1907
11 25 9 4.2591 -0.1427
11 25 10 -1.9559 0.0614
11 25 11 0.4204 -0.3039
11 25 12 -2.3761 0.2532
11 25 13 -0.6042 0.0380
11 26 1 2.2846 0.0879
11 26 2 3.0219 -0.0441
11 26 3 -1.0564 -0.1616
11 26 4 -3.7918 0.1062
11 26 5 -1.4087 0.1003
11 26 6 -1.7338 0.0344
11 26 7 -1.1855 -0.0131
11 26 8 -2.6414 0.0604
11 26 9 0.0158 0.1959
11 26 10 -0.2319 0.0161
11 26 11 -2.6883 -0.0506
11 26 12 -4.2406 -0.1393
11 27 0 -1.2379 0.1258
11 27 1 -1.3519 0.1248
11 27 2 -0.3153 0.1677
11 27 3 -0.7757 -0.0085
11 27 4 -5.6676 0.0466
11 27 5 -1.4801 -0.0753
11 27 6 0.7624 0.0586
11 27 7 1.7424 -0.0011
11 27 8 0.2574 0.0718
11 27 9 -2.8209 -0.1936
11 27 10 0.4038 0.2050
11 27 11 0.9733 0.1165
11 28 1 -1.8533 0.0124
11 28 2 -3.1996 -0.0937
11 28 3 -1.8733 0.1050
11 28 4 0.3233 0.0573
11 28 5 0.7001 0.0556
11 28 6 0.9661 0.0563
11 28 7 -2.8847 -0.0348
11 28 8 -2.1889 0.0369
11 28 9 -2.5277 0.0305
11 28 10 -0.7871 0.0636
11 29 0 -5.0024 0.2292
11 29 1 0.6819 -0.1481
11 29 2 -1.9199 0.0252
11 29 3 4.3119 0.0098
11 29 4 2.6952 0.2674
11 29 5 -0.4826 -0.1287
11 29 6 -0.9064 0.1955
11 29 7 -0.6554 -0.1582
11 29 8 1.4942 0.0293
11 29 9 1.7659 -0.2348
11 30 1 1.0025 -0.0549
11 30 2 -0.4042 -0.1231
11 30 3 0.6446 0.1528
11 30 4 -3.4198 0.2045
11 30 5 -2.0094 0.0160
11 30 6 -3.9323 -0.1063
11 30 7 1.8420 0.1179
11 31 0 -0.7027 0.2007
11 31 1 2.2050 -0.1776
11 31 2 4.6535 -0.0101
11 31 3 3.8968 -0.4911
11 31 4 1.1156 0.3197
11 31 5 1.6183 0.3150
11 32 1 -3.1322 -0.0901
12 0 0 48.1046 -0.9094
12 0 1 28.2068 -2.2523
12 0 2 0.2975 -0.7313
12 0 3 -12.0614 -2.8889
12 0 4 -21.8234 1.0453
12 0 5 19.7196 0.6772
12 0 6 4.2084 2.9628
12 0 7 5.5762 -2.1231
12 0 8 -11.7894 -1.0201
12 0 9 -2.1127 -2.0129
12 0 10 -2.0223 2.0907
12 0 11 11.3288 1.0100
12 0 12 4.5474 1.5028
12 0 13 7.7985 -2.1921
12 0 14 -4.3534 -0.5555
12 0 15 -0.7913 -0.5170
12 0 16 -11.7954 2.0140
12 0 17 2.9072 0.1267
12 0 18 -8.1857 -0.0755
12 0 19 5.2105 -1.5432
12 0 20 -6.7656 0.1626
12 0 21 4.0677 0.3104
12 1 1 33.1691 -1.9829
12 1 2 27.0558 0.2197
12 1 3 2.8497 0.2166
12 1 4 -22.7662 0.6340
12 1 5 -6.7770 0.7459
12 1 6 2.5172 -0.6591
12 1 7 14.4967 -0.6089
12 1 8 5.4919 -0.1334
12 1 9 9.7473 0.5026
12 1 10 2.9487 0.4891
12 1 11 0.1817 0.1223
12 1 12 -3.4914 -0.6968
12 1 13 1.7005 -0.3815
12 1 14 -1.3715 -0.0326
12 1 15 1.0526 0.5014
12 1 16 -4.1635 0.1372
12 1 17 -6.3877 -0.2214
12 1 18 -10.8468 -0.3807
12 1 19 -13.4624 -0.0680
12 1 20 -12.1157 0.1477
12 1 21 -4.9029 0.4173
12 2 0 80.2436 0.1315
12 2 1 44.8585 -0.7627
12 2 2 -7.8322 -0.7554
12 2 3 -44.1277 0.0691
12 2 4 7.8475 0.3484
12 2 5 -4.0560 -0.3564
12 2 6 20.9843 0.0035
12 2 7 -9.8607 -0.0910
12 2 8 -4.4699 0.3141
12 2 9 -7.8493 -0.1815
12 2 10 2.2267 -0.0686
12 2 11 5.3794 -0.1989
12 2 12 3.1821 0.2223
12 2 13 -1.3984 0.2905
12 2 14 -3.3644 0.2122
12 2 15 2.0476 -0.2865
12 2 16 5.6728 -0.1748
12 2 17 -6.7691 -0.0337
12 2 18 -2.8961 0.2009
12 2 19 -4.3060 0.1349
12 2 20 6.4724 -0.0646
12 2 21 -4.6509 -0.0566
12 3 1 14.3144 -0.4670
12 3 2 15.6091 -0.2370
12 3 3 -1.9475 0.0530
12 3 4 -9.2403 0.2151
12 3 5 -12.3708 0.0059
12 3 6 2.8693 0.1468
12 3 7 3.0959 -0.0221
12 3 8 8.3342 -0.2255
12 3 9 -3.0328 0.0535
12 3 10 -0.7554 0.0638
12 3 11 -1.8200 0.0536
12 3 12 -0.0296 0.0780
12 3 13 -1.1385 -0.1163
12 3 14 5.9720 -0.1857
12 3 15 -1.6114 0.0290
12 3 16 -1.7340 0.0158
12 3 17 -8.6212 0.0331
12 3 18 -14.3247 -0.0502
12 3 19 -11.1357 -0.0225
12 3 20 -1.9974 0.0328
12 3 21 4.7984 0.0243
12 4 0 68.9061 0.3251
12 4 1 13.0582 0.1458
12 4 2 8.9551 -0.1316
12 4 3 -37.3948 0.6391
12 4 4 -20.7740 -0.1808
12 4 5 8.6492 -0.2498
12 4 6 24.5614 -1.1433
12 4 7 3.0962 0.7075
12 4 8 -3.0176 0.4579
12 4 9 -7.1671 0.5063
12 4 10 3.2283 -0.6970
12 4 11 -3.9984 -0.3702
12 4 12 -4.6295 -0.2343
12 4 13 -0.8046 0.8047
12 4 14 9.3592 0.1733
12 4 15 4.5865 0.1040
12 4 16 -0.5798 -0.6725
12 4 17 -1.9958 0.0055
12 4 18 -5.9489 0.0703
12 4 19 -0.8405 0.4188
12 4 20 1.3846 -0.0676
12 4 21 2.6131 0.0161
12 5 1 27.3196 0.3259
12 5 2 14.8687 -0.2626
12 5 3 -10.6279 -0.1694
12 5 4 -21.9767 -0.1428
12 5 5 -4.1154 -0.0865
12 5 6 3.6976 0.3354
12 5 7 6.1085 0.1284
12 5 8 -5.3044 0.0017
12 5 9 7.9327 -0.2461
12 5 10 3.9343 -0.0670
12 5 11 3.8287 0.1843
12 5 12 -2.4815 0.0826
12 5 13 2.7636 -0.0202
12 5 14 -2.5172 -0.0405
12 5 15 -2.2362 -0.1313
12 5 16 -7.4447 0.0835
12 5 17 -2.5221 0.0380
12 5 18 6.7283 -0.0564
12 5 19 11.1667 -0.0792
12 5 20 5.5257 -0.0106
12 5 21 -2.1779 0.1724
12 6 0 25.0389 0.6245
12 6 1 45.6242 0.1719
12 6 2 -23.3751 0.2102
12 6 3 -15.5257 0.3414
12 6 4 -11.1895 -0.2584
12 6 5 6.1525 -0.2747
12 6 6 6.2891 -0.4874
12 6 7 11.6297 0.2238
12 6 8 -3.5585 0.2806
12 6 9 4.3108 0.3804
12 6 10 -7.4183 -0.4334
12 6 11 2.3097 -0.1908
12 6 12 -6.2074 -0.0008
12 6 13 2.0479 0.1745
12 6 14 -1.5506 0.1896
12 6 15 6.7458 0.0230
12 6 16 2.6827 -0.2102
12 6 17 5.7202 -0.0156
12 6 18 8.0390 -0.0118
12 6 19 2.6807 0.0757
12 6 20 -7.0407 0.0694
12 6 21 -3.4574 -0.0191
12 7 1 18.3377 -0.1321
12 7 2 11.7696 0.1132
12 7 3 -1.0113 -0.0109
12 7 4 -14.9818 -0.1950
12 7 5 0.2192 -0.0274
12 7 6 1.4423 0.0124
12 7 7 6.8737 0.0577
12 7 8 7.2298 0.1353
12 7 9 -1.6740 0.0156
12 7 10 -1.2545 0.0124
12 7 11 -3.3834 0.0382
12 7 12 -1.3367 -0.0997
12 7 13 -3.4424 -0.0671
12 7 14 -6.6588 0.0459
12 7 15 -1.3452 0.1538
12 7 16 -1.8981 0.0703
12 7 17 3.8185 -0.1111
12 7 18 5.6734 -0.1330
12 7 19 7.9706 -0.1075
12 7 20 1.8898 0.0078
12 7 21 3.5812 0.1954
12 8 0 31.8049 0.4434
12 8 1 -19.3438 -0.0381
12 8 2 21.7277 0.2650
12 8 3 -22.1119 -0.3617
12 8 4 15.5200 0.1788
12 8 5 7.8448 -0.3894
12 8 6 26.8339 0.2726
12 8 7 -9.2382 -0.3134
12 8 8 1.3594 0.2629
12 8 9 -7.4269 -0.2409
12 8 10 9.5632 0.3127
12 8 11 -2.3392 -0.2822
12 8 12 0.6529 0.0846
12 8 13 -1.9028 -0.0501
12 8 14 0.1149 0.1741
12 8 15 -3.8294 -0.1730
12 8 16 -0.7823 0.2373
12 8 17 4.0590 -0.2424
12 8 18 6.5236 0.1237
12 8 19 7.1350 -0.1737
12 8 20 3.9930 0.0959
12 8 21 -2.2272 -0.1039
12 9 1 -4.2772 -0.1502
12 9 2 -3.4056 0.1006
12 9 3 0.0097 -0.0103
12 9 4 7.7794 0.0191
12 9 5 0.3141 0.0269
12 9 6 -0.7056 -0.0433
12 9 7 -9.2051 -0.0745
12 9 8 -2.4762 -0.0591
12 9 9 5.8055 0.1929
12 9 10 5.8885 0.2239
12 9 11 2.0149 -0.0013
12 9 12 -1.0803 -0.1824
12 9 13 -0.2049 -0.1473
12 9 14 2.8059 -0.0114
12 9 15 1.1945 0.2503
12 9 16 3.2456 0.1042
12 9 17 0.1334 -0.1276
12 9 18 -6.4689 -0.1779
12 9 19 -5.0400 -0.0837
12 9 20 4.2010 0.0577
12 10 0 5.3240 -0.2636
12 10 1 7.9077 -0.2863
12 10 2 -17.6573 -0.0037
12 10 3 -5.0901 -0.1025
12 10 4 -5.1782 0.1107
12 10 5 2.5621 -0.1835
12 10 6 -4.7200 0.1317
12 10 7 2.8844 -0.2085
12 10 8 -2.3026 0.1890
12 10 9 7.8792 -0.1184
12 10 10 0.1152 0.1455
12 10 11 9.1910 -0.2521
12 10 12 1.9209 0.0810
12 10 13 -0.0589 -0.1467
12 10 14 -2.1687 0.2749
12 10 15 1.9865 -0.0496
12 10 16 2.9852 -0.0165
12 10 17 1.6722 -0.0696
12 10 18 -2.6797 0.0535
12 10 19 -3.5880 -0.1448
12 10 20 -1.9377 0.0321
12 11 1 -18.0934 -0.1442
12 11 2 -21.3487 -0.0061
12 11 3 -9.3649 0.1112
12 11 4 3.6174 0.2765
12 11 5 6.0805 -0.1914
12 11 6 -1.7482 0.0080
12 11 7 -1.6714 -0.1123
12 11 8 0.1312 -0.0258
12 11 9 3.9852 0.1026
12 11 10 3.1115 0.1085
12 11 11 1.6794 0.1447
12 11 12 1.0196 -0.1231
12 11 13 6.7717 -0.1149
12 11 14 2.0220 -0.0099
12 11 15 1.1514 0.0085
12 11 16 -6.1298 0.0080
12 11 17 -3.3326 0.0422
12 11 18 -2.5939 0.0101
12 11 19 -2.1306 -0.0262
12 11 20 -6.4591 -0.2435
12 12 0 -8.3597 -0.3657
12 12 1 -1.9454 -0.3712
12 12 2 10.6397 -0.1518
12 12 3 2.7778 0.4835
12 12 4 -0.3293 -0.1012
12 12 5 -9.7852 -0.1046
12 12 6 -1.4587 -0.4210
12 12 7 -0.2789 0.3198
12 12 8 2.4820 0.1935
12 12 9 -1.2339 0.1723
12 12 10 -0.0592 -0.2724
12 12 11 -5.8525 -0.2587
12 12 12 -1.2474 -0.1794
12 12 13 2.2320 0.3335
12 12 14 4.5733 0.1130
12 12 15 0.4823 0.0422
12 12 16 3.6241 -0.2853
12 12 17 1.0220 0.0589
12 12 18 0.5833 0.0194
12 12 19 -2.9119 0.1723
12 12 20 -3.2956 -0.2025
12 13 1 -1.8304 0.0966
12 13 2 -2.8034 -0.1127
12 13 3 2.7069 0.1749
12 13 4 2.1721 0.0516
12 13 5 -1.4355 -0.0657
12 13 6 -6.7259 -0.0467
12 13 7 -7.0830 -0.0244
12 13 8 2.4210 0.0086
12 13 9 1.6780 -0.0717
12 13 10 1.6936 -0.0018
12 13 11 2.7271 0.1730
12 13 12 3.6944 0.0098
12 13 13 0.4579 -0.0211
12 13 14 0.1628 -0.0635
12 13 15 1.8992 -0.0661
12 13 16 3.7208 -0.0352
12 13 17 1.4517 -0.0016
12 13 18 0.8067 0.1399
12 13 19 0.2849 -0.0064
12 14 0 -0.2482 -0.3870
12 14 1 -6.8987 -0.1249
12 14 2 2.2550 0.0752
12 14 3 -6.2755 0.6765
12 14 4 -4.2590 -0.1841
12 14 5 0.8179 -0.2043
12 14 6 6.9370 -0.6510
12 14 7 2.3642 0.5136
12 14 8 2.7915 0.2629
12 14 9 -2.6410 0.4158
12 14 10 -2.5036 -0.5914
12 14 11 -2.7179 -0.2323
12 14 12 1.1103 -0.2237
12 14 13 -1.2124 0.4371
12 14 14 -0.9282 0.0799
12 14 15 1.5477 0.0874
12 14 16 1.9685 -0.4185
12 14 17 1.4701 0.0593
12 14 18 -0.9606 0.0622
12 14 19 -3.6723 0.2768
12 15 1 -1.3389 0.3081
12 15 2 1.0307 -0.1881
12 15 3 2.4042 0.0197
12 15 4 6.4782 -0.0105
12 15 5 2.0876 0.0558
12 15 6 -0.1961 -0.0699
12 15 7 -3.8971 -0.1647
12 15 8 1.5683 0.0328
12 15 9 -0.3235 -0.0458
12 15 10 3.8873 0.0497
12 15 11 -0.9247 0.0039
12 15 12 1.8796 0.0560
12 15 13 0.7802 0.0040
12 15 14 -1.3609 0.0458
12 15 15 0.5572 -0.0176
12 15 16 0.4578 0.0075
12 15 17 0.9741 -0.1540
12 15 18 2.4114 0.0194
12 15 19 2.9391 0.0489
12 16 0 -6.2264 -0.4053
12 16 1 -0.1185 -0.0808
12 16 2 2.4903 0.2416
12 16 3 2.0394 0.6145
12 16 4 -0.1643 -0.0816
12 16 5 -4.3380 -0.2446
12 16 6 0.0074 -0.4889
12 16 7 0.4176 0.1974
12 16 8 -1.5797 0.2665
12 16 9 2.6427 0.3100
12 16 10 -1.9986 -0.2560
12 16 11 -0.9953 -0.2030
12 16 12 -3.1390 -0.2260
12 16 13 1.9950 0.2011
12 16 14 5.4876 0.0981
12 16 15 -2.6569 0.0227
12 16 16 -1.3520 -0.1906
12 16 17 2.6940 -0.0865
12 16 18 4.2126 0.1463
12 17 1 2.1126 0.1876
12 17 2 1.7902 -0.0099
12 17 3 4.5033 0.0316
12 17 4 0.1978 0.0996
12 17 5 -3.2517 -0.1148
12 17 6 -4.2359 -0.1229
12 17 7 -0.1966 -0.1729
12 17 8 -0.4649 -0.0212
12 17 9 1.2452 0.0647
12 17 10 -7.8146 0.0878
12 17 11 -2.7398 -0.0486
12 17 12 -2.4056 -0.0132
12 17 13 1.1072 -0.0240
12 17 14 3.4744 0.1690
12 17 15 2.1534 0.1058
12 17 16 0.0117 -0.0377
12 17 17 -1.7880 -0.1608
12 17 18 0.5893 -0.0648
12 18 0 -1.7824 -0.2535
12 18 1 -0.8336 -0.1157
12 18 2 3.2549 0.0794
12 18 3 9.6655 0.3253
12 18 4 2.5598 0.1590
12 18 5 4.8890 -0.1360
12 18 6 -5.7399 -0.2980
12 18 7 -0.7188 -0.0733
12 18 8 -4.2172 0.1766
12 18 9 -0.2975 0.1272
12 18 10 4.4011 -0.0284
12 18 11 -0.8751 -0.1229
12 18 12 -1.0604 -0.0689
12 18 13 -1.8461 0.0253
12 18 14 -1.5822 0.0200
12 18 15 2.6772 -0.0557
12 18 16 0.0559 -0.0951
12 18 17 -0.3056 -0.0963
12 19 1 -0.6510 -0.0200
12 19 2 -1.9613 0.1413
12 19 3 -7.8046 0.1608
12 19 4 -0.1306 0.1350
12 19 5 0.0642 -0.2732
12 19 6 1.4666 -0.0869
12 19 7 -1.8874 -0.1022
12 19 8 0.8932 0.0096
12 19 9 -6.2898 -0.0073
12 19 10 1.0375 0.0641
12 19 11 -1.1300 0.0595
12 19 12 1.2155 -0.1220
12 19 13 -0.3349 -0.0025
12 19 14 -0.9445 0.1584
12 19 15 1.0841 0.1965
12 19 16 5.8102 0.0017
12 19 17 -0.9016 -0.1966
12 20 0 9.8084 0.1792
12 20 1 5.4325 -0.1786
12 20 2 11.3777 -0.2924
12 20 3 -3.8313 0.2501
12 20 4 5.3318 0.0941
12 20 5 -8.3495 0.1571
12 20 6 7.1485 -0.3036
12 20 7 -3.5005 0.0413
12 20 8 4.4488 -0.0019
12 20 9 -4.4620 0.0514
12 20 10 -2.9710 -0.0716
12 20 11 -1.0232 -0.1189
12 20 12 2.8126 0.0617
12 20 13 -1.9885 0.0832
12 20 14 1.5631 -0.0232
12 20 15 -2.3132 -0.1007
12 20 16 1.4262 -0.1607
12 21 1 0.1275 0.0897
12 21 2 1.0638 -0.0011
12 21 3 4.3474 0.1332
12 21 4 5.7715 0.0658
12 21 5 5.5402 -0.0754
12 21 6 3.2928 -0.0123
12 21 7 -0.8811 -0.1058
12 21 8 -0.9609 0.0440
12 21 9 1.3747 -0.0666
12 21 10 -4.9295 -0.0093
12 21 11 0.7746 0.1171
12 21 12 -1.5683 -0.0673
12 21 13 -3.8506 -0.0821
12 21 14 -3.6501 0.0804
12 21 15 3.5157 0.1132
12 21 16 1.3624 0.2162
12 22 0 -4.1310 -0.2805
12 22 1 5.1046 -0.2572
12 22 2 0.5756 -0.1699
12 22 3 9.3227 0.1899
12 22 4 -10.3633 0.0246
12 22 5 0.0527 0.0544
12 22 6 -9.4112 -0.0272
12 22 7 6.8675 0.0475
12 22 8 -1.7414 -0.0423
12 22 9 3.5081 -0.0174
12 22 10 -3.2402 -0.1295
12 22 11 1.1272 -0.0359
12 22 12 -2.0956 0.0201
12 22 13 -1.0880 0.0818
12 22 14 -2.8689 -0.0819
12 22 15 -1.8556 -0.0596
12 23 1 6.7920 0.1919
12 23 2 2.7071 -0.2133
12 23 3 -1.5952 -0.0825
12 23 4 -5.8432 0.0333
12 23 5 -2.1015 0.0825
12 23 6 -1.0618 0.1276
12 23 7 2.0619 -0.0226
12 23 8 -1.5333 -0.0592
12 23 9 -1.9554 -0.0123
12 23 10 1.1362 -0.0143
12 23 11 -1.0604 -0.1095
12 23 12 -0.5331 -0.0173
12 23 13 2.6276 0.0431
12 23 14 2.1055 0.0417
12 23 15 0.0870 0.0482
12 24 0 3.0222 -0.0029
12 24 1 -1.6459 -0.1963
12 24 2 2.5708 0.0873
12 24 3 -4.5547 0.0310
12 24 4 1.6882 -0.0356
12 24 5 -2.7333 -0.0650
12 24 6 4.7245 0.0988
12 24 7 -0.7144 0.0071
12 24 8 1.0907 -0.0576
12 24 9 -1.7908 -0.0731
12 24 10 3.1844 0.0398
12 24 11 -1.0187 0.1047
12 24 12 2.3828 -0.3248
12 24 13 1.9144 0.0884
12 24 14 -0.3649 -0.1131
12 25 1 -3.8408 0.0935
12 25 2 -1.1825 -0.0584
12 25 3 -2.9319 -0.1500
12 25 4 -1.2253 -0.0980
12 25 5 -1.7666 0.0792
12 25 6 3.5127 0.0652
12 25 7 1.9332 0.0255
12 25 8 3.3260 0.1129
12 25 9 0.8726 0.0191
12 25 10 0.3574 -0.1280
12 25 11 -0.6925 -0.2184
12 25 12 -1.6029 -0.0846
12 25 13 -0.5854 0.0481
12 26 0 3.6871 0.3096
12 26 1 9.9425 0.0467
12 26 2 2.1436 0.1812
12 26 3 0.8835 0.0289
12 26 4 -5.9297 -0.0210
12 26 5 -1.8135 -0.1484
12 26 6 -1.0712 -0.0793
12 26 7 1.8183 -0.0055
12 26 8 1.3029 -0.1096
12 26 9 4.0203 -0.0707
12 26 10 0.5992 0.0791
12 26 11 2.3489 0.2179
12 26 12 -2.0565 0.2162
12 27 1 1.5637 0.0847
12 27 2 -0.2007 0.1037
12 27 3 0.3041 -0.0601
12 27 4 -0.8478 -0.0310
12 27 5 -0.4331 -0.1434
12 27 6 -3.3396 -0.0065
12 27 7 0.0959 -0.0215
12 27 8 0.1625 0.0405
12 27 9 2.4441 0.1386
12 27 10 -1.5334 0.0348
12 27 11 -2.4111 -0.0526
12 28 0 3.2397 0.4265
12 28 1 0.5647 0.2638
12 28 2 -0.1321 0.0786
12 28 3 1.5840 -0.0086
12 28 4 1.5887 0.0096
12 28 5 3.0062 -0.0414
12 28 6 -1.1166 -0.1346
12 28 7 1.8730 -0.1465
12 28 8 -0.2933 -0.3539
12 28 9 0.5161 -0.2806
12 28 10 0.3033 0.3147
12 29 1 -0.5738 0.0352
12 29 2 -0.0529 0.0574
12 29 3 0.9094 -0.0075
12 29 4 1.5758 0.1075
12 29 5 -2.0864 -0.1946
12 29 6 -0.9582 -0.0144
12 29 7 -0.7302 -0.1135
12 29 8 0.7249 -0.1165
12 30 0 0.7847 0.5782
12 30 1 3.3276 0.5777
12 30 2 3.3296 -0.1066
12 30 3 3.3458 -0.1469
12 30 4 -0.5259 -0.1213
12 30 5 -0.5005 0.1303
12 30 6 0.6651 0.2281
12 30 7 -0.5985 -0.7274
12 31 1 0.1086 0.2440
12 31 2 1.4564 -0.1702
12 31 3 2.1443 -0.1012
12 31 4 0.2055 0.0720
13 1 0 0.5441 0.7792
13 1 1 -2.2374 0.0146
13 1 2 9.6887 0.4448
13 1 3 2.7925 -0.1792
13 1 4 -1.5607 0.4848
13 1 5 0.0359 -0.4713
13 1 6 -4.5048 0.0826
13 1 7 -13.9930 -0.4369
13 1 8 -12.6567 0.4137
13 1 9 -10.5168 -0.1971
13 1 10 4.0503 0.3523
13 1 11 2.6579 -0.3541
13 1 12 7.8112 0.1940
13 1 13 -4.4077 -0.1801
13 1 14 -2.8861 0.3220
13 1 15 -1.9983 -0.2931
13 1 16 -0.5398 0.1327
13 1 17 4.5140 -0.0688
13 1 18 -3.1417 0.3756
13 1 19 8.6762 -0.0631
13 1 20 -7.7746 0.0718
13 1 21 2.5591 -0.0591
13 2 1 6.4468 0.2837
13 2 2 4.9859 1.1188
13 2 3 11.4793 0.3912
13 2 4 -10.7770 -1.0969
13 2 5 -11.8921 -0.6171
13 2 6 -11.8766 0.1089
13 2 7 7.4715 0.9144
13 2 8 4.3617 0.1523
13 2 9 3.6532 -0.6174
13 2 10 -4.1959 -0.5179
13 2 11 6.5557 0.2165
13 2 12 2.4806 0.4682
13 2 13 -1.2394 0.4447
13 2 14 -7.2837 -0.5996
13 2 15 6.9141 -0.3477
13 2 16 1.4755 0.2797
13 2 17 -4.0957 0.3995
13 2 18 -11.6288 0.2053
13 2 19 -12.6071 -0.1450
13 2 20 -10.1803 -0.4146
13 2 21 -4.5080 0.1340
13 3 0 2.1277 0.0265
13 3 1 12.8811 -0.3518
13 3 2 -9.0433 0.6031
13 3 3 -6.3889 0.1047
13 3 4 -16.9443 0.5642
13 3 5 -7.2818 -0.7216
13 3 6 -6.5363 -0.1760
13 3 7 3.9105 -0.3522
13 3 8 -1.4721 0.7099
13 3 9 0.7302 0.0566
13 3 10 -5.4122 0.0290
13 3 11 -1.3415 -0.6056
13 3 12 -7.1233 0.2609
13 3 13 -0.5078 0.1311
13 3 14 0.2275 0.4080
13 3 15 1.9816 -0.3516
13 3 16 -4.9458 -0.1490
13 3 17 -2.5334 -0.1698
13 3 18 5.2351 0.3887
13 3 19 4.1660 0.1856
13 3 20 2.9094 0.0245
13 3 21 -7.5248 -0.2226
13 4 1 6.6835 0.4113
13 4 2 10.1460 0.5632
13 4 3 -7.4862 -0.3318
13 4 4 7.4752 -0.2877
13 4 5 6.1548 -0.3098
13 4 6 7.7375 0.1486
13 4 7 -1.5952 0.6172
13 4 8 0.5358 0.0022
13 4 9 -1.2915 -0.4455
13 4 10 7.6333 -0.4344
13 4 11 0.3514 0.1494
13 4 12 2.1839 0.4610
13 4 13 1.0585 0.2750
13 4 14 5.6604 -0.1956
13 4 15 -2.6065 -0.3008
13 4 16 2.2109 -0.2313
13 4 17 -2.5985 0.4839
13 4 18 -10.2310 0.2502
13 4 19 -9.3455 -0.0318
13 4 20 -5.9139 -0.0626
13 4 21 -2.8404 -0.0207
13 5 0 28.2481 0.0849
13 5 1 0.7926 0.1754
13 5 2 -3.1236 -0.1397
13 5 3 -24.6127 0.1527
13 5 4 -1.0027 0.1027
13 5 5 -2.1794 -0.1328
13 5 6 7.0030 -0.1986
13 5 7 -9.9774 -0.0646
13 5 8 -1.8181 0.1796
13 5 9 1.6435 0.1867
13 5 10 4.5445 -0.0521
13 5 11 -4.3896 -0.1640
13 5 12 3.3090 0.0057
13 5 13 7.0575 0.1904
13 5 14 4.1466 0.1053
13 5 15 -5.8157 -0.0453
13 5 16 -0.2310 -0.2199
13 5 17 -1.1180 -0.0317
13 5 18 0.5377 0.0190
13 5 19 -3.3752 0.1775
13 5 20 -1.4352 -0.0008
13 5 21 -0.3714 -0.0792
13 6 1 -7.3564 0.0902
13 6 2 -4.4363 -0.2730
13 6 3 16.6712 -0.1770
13 6 4 -7.5445 0.0893
13 6 5 -12.6601 0.2001
13 6 6 -11.7776 0.2259
13 6 7 0.7076 -0.1965
13 6 8 -1.8072 -0.0546
13 6 9 1.4383 -0.0212
13 6 10 -7.8788 -0.0032
13 6 11 0.3764 -0.0256
13 6 12 -0.0090 0.0132
13 6 13 -1.2071 0.0667
13 6 14 -3.2325 0.0754
13 6 15 -2.1856 0.0255
13 6 16 -0.1649 -0.1036
13 6 17 1.7846 -0.1193
13 6 18 4.0942 0.0724
13 6 19 -1.0813 0.2030
13 6 20 -0.6872 0.1052
13 6 21 0.3776 0.0615
13 7 0 32.6216 0.3573
13 7 1 24.1310 0.0100
13 7 2 -18.6749 -0.1887
13 7 3 -25.7348 0.0368
13 7 4 -20.3184 0.0077
13 7 5 10.4940 0.0611
13 7 6 3.6752 -0.2058
13 7 7 7.7172 0.0092
13 7 8 -3.1392 0.1357
13 7 9 4.4881 0.1428
13 7 10 -3.1201 -0.0298
13 7 11 6.2486 -0.0982
13 7 12 -0.4688 -0.0734
13 7 13 3.6876 0.1493
13 7 14 1.3756 0.1501
13 7 15 1.9412 -0.0757
13 7 16 -3.6002 -0.1639
13 7 17 -2.5929 -0.0149
13 7 18 -2.6021 0.0265
13 7 19 3.2979 0.0636
13 7 20 0.5839 -0.0506
13 8 1 -8.8254 -0.4130
13 8 2 -3.6129 -0.4888
13 8 3 -2.8647 0.2134
13 8 4 -1.8647 0.1644
13 8 5 -9.9637 0.2947
13 8 6 -17.6329 -0.0434
13 8 7 -3.5955 -0.2319
13 8 8 3.9152 -0.0309
13 8 9 4.8444 0.1588
13 8 10 3.3337 0.1427
13 8 11 -6.3931 -0.1745
13 8 12 -5.6031 -0.2042
13 8 13 0.1596 0.0020
13 8 14 2.0528 0.2267
13 8 15 2.6409 0.0574
13 8 16 -1.9473 -0.0373
13 8 17 -1.1054 -0.2320
13 8 18 0.0493 -0.0340
13 8 19 6.4872 0.0699
13 8 20 1.9435 0.1420
13 9 0 27.0820 0.2712
13 9 1 2.5732 -0.2948
13 9 2 -3.8162 0.2159
13 9 3 -13.4648 -0.0966
13 9 4 11.0491 0.2939
13 9 5 9.5707 -0.3444
13 9 6 13.5476 -0.0699
13 9 7 -4.2011 -0.1784
13 9 8 -3.7170 0.5150
13 9 9 -6.8131 0.0975
13 9 10 2.9352 0.0151
13 9 11 -0.4714 -0.5108
13 9 12 3.0900 0.1307
13 9 13 -7.2799 0.0881
13 9 14 -4.7437 0.2852
13 9 15 1.7877 -0.1606
13 9 16 4.6326 -0.0333
13 9 17 1.0917 -0.1577
13 9 18 -1.6743 0.2275
13 9 19 -1.7183 -0.0607
13 9 20 2.6544 0.0386
13 10 1 5.5507 -0.4596
13 10 2 2.3779 -0.3264
13 10 3 6.9942 -0.0384
13 10 4 -1.9505 0.0383
13 10 5 -8.7648 0.2176
13 10 6 -7.0750 -0.0390
13 10 7 -1.9461 0.1998
13 10 8 7.5457 -0.1314
13 10 9 6.3838 -0.1022
13 10 10 3.3668 -0.0175
13 10 11 -3.4187 -0.0310
13 10 12 -6.5347 -0.0336
13 10 13 -4.3305 0.1379
13 10 14 5.7416 -0.0241
13 10 15 3.5918 -0.0641
13 10 16 -5.4198 -0.1321
13 10 17 -5.1450 0.0140
13 10 18 -3.2921 0.0810
13 10 19 -0.5795 -0.0860
13 10 20 -1.9710 -0.0530
13 11 0 1.3238 0.0978
13 11 1 1.4631 -0.3144
13 11 2 -7.5960 0.3296
13 11 3 -5.1249 -0.0125
13 11 4 1.0557 0.4338
13 11 5 7.4216 -0.6093
13 11 6 4.7833 0.0156
13 11 7 5.0105 -0.2151
13 11 8 -1.4091 0.5888
13 11 9 -0.3815 0.0120
13 11 10 -3.2073 0.0821
13 11 11 1.4570 -0.5148
13 11 12 -4.3226 0.1177
13 11 13 2.9547 -0.0320
13 11 14 1.5514 0.3318
13 11 15 -0.1411 -0.1971
13 11 16 0.4093 0.1430
13 11 17 0.0574 -0.0944
13 11 18 -3.0997 0.0887
13 11 19 0.1842 -0.0523
13 11 20 0.8087 0.0920
13 12 1 -5.1245 -0.2197
13 12 2 2.2772 -0.1138
13 12 3 5.0446 -0.4141
13 12 4 -0.5497 -0.0566
13 12 5 -1.7500 0.0869
13 12 6 -2.1596 0.1690
13 12 7 10.2247 0.1173
13 12 8 5.4654 -0.0587
13 12 9 2.7547 -0.0686
13 12 10 -8.8757 -0.2352
13 12 11 -1.3176 0.0757
13 12 12 0.6662 0.0652
13 12 13 3.2449 0.1454
13 12 14 -2.9338 -0.0449
13 12 15 -0.2527 -0.1122
13 12 16 -0.2352 -0.2378
13 12 17 0.6920 0.1020
13 12 18 -1.0212 0.1351
13 12 19 1.6928 0.0716
13 13 0 3.5381 -0.0439
13 13 1 -2.5239 -0.1001
13 13 2 0.9667 0.2392
13 13 3 -3.7798 0.0120
13 13 4 -0.0463 0.2143
13 13 5 4.0083 -0.3465
13 13 6 2.9995 -0.0244
13 13 7 -2.3625 -0.1537
13 13 8 -1.0842 0.4480
13 13 9 3.1820 -0.0682
13 13 10 -0.9233 0.0192
13 13 11 0.4410 -0.2552
13 13 12 5.6055 0.1190
13 13 13 2.4451 -0.0614
13 13 14 -0.2686 0.1409
13 13 15 -2.3439 -0.0748
13 13 16 -0.4443 0.0836
13 13 17 -2.7293 -0.0185
13 13 18 2.7665 0.0536
13 13 19 0.8212 -0.0232
13 14 1 -2.4852 0.0256
13 14 2 -4.4477 -0.1092
13 14 3 3.3149 -0.3131
13 14 4 1.8435 0.0102
13 14 5 3.3140 0.0288
13 14 6 0.7608 0.0235
13 14 7 -3.2013 -0.1663
13 14 8 0.2919 0.0145
13 14 9 3.4498 0.2163
13 14 10 12.3153 0.0607
13 14 11 2.4383 -0.1163
13 14 12 1.2242 -0.1747
13 14 13 -0.8766 0.0747
13 14 14 0.1047 0.0497
13 14 15 -1.8314 0.1146
13 14 16 -1.7563 -0.1349
13 14 17 5.3210 -0.0886
13 14 18 3.5919 -0.0672
13 14 19 2.2719 0.1802
13 15 0 7.7395 -0.0463
13 15 1 -2.7066 0.0293
13 15 2 -5.7687 0.1132
13 15 3 -12.0419 -0.0641
13 15 4 0.9671 0.0412
13 15 5 2.3526 -0.1529
13 15 6 5.3060 0.0443
13 15 7 3.5741 -0.0542
13 15 8 -1.6737 0.1813
13 15 9 -4.2762 -0.1004
13 15 10 -3.8460 0.0366
13 15 11 -3.3369 -0.0964
13 15 12 -2.2968 0.1175
13 15 13 -0.3258 -0.0503
13 15 14 1.1950 -0.0272
13 15 15 1.4041 0.0478
13 15 16 1.0077 0.0585
13 15 17 6.4256 -0.0826
13 15 18 3.6951 -0.0518
13 16 1 1.4106 -0.0336
13 16 2 1.5533 -0.0458
13 16 3 -2.0999 0.2299
13 16 4 -3.5618 -0.0738
13 16 5 -8.8921 -0.0185
13 16 6 -4.1227 -0.1989
13 16 7 -0.2365 -0.1814
13 16 8 4.2333 0.0392
13 16 9 0.7353 0.2623
13 16 10 2.8831 0.2786
13 16 11 0.8442 -0.0880
13 16 12 0.4017 -0.2709
13 16 13 -4.4452 -0.0811
13 16 14 -4.3934 0.0867
13 16 15 -1.6217 0.1356
13 16 16 0.1480 0.0554
13 16 17 1.7290 -0.1924
13 16 18 -0.4703 -0.1296
13 17 0 5.3716 -0.2057
13 17 1 0.6159 -0.0655
13 17 2 -0.1344 -0.0615
13 17 3 0.1649 -0.0732
13 17 4 1.7724 -0.0976
13 17 5 -0.4118 0.2034
13 17 6 -0.9007 0.0172
13 17 7 0.1231 -0.0141
13 17 8 3.0243 -0.1617
13 17 9 0.5384 0.0279
13 17 10 -4.1327 0.0081
13 17 11 -4.8462 0.1260
13 17 12 -6.7382 -0.0384
13 17 13 -0.4473 -0.0167
13 17 14 2.2529 -0.1110
13 17 15 0.8138 0.0431
13 17 16 2.7047 0.0825
13 17 17 -2.7757 -0.0188
13 17 18 -2.2697 -0.1569
13 18 1 -1.9949 -0.1755
13 18 2 -3.9232 0.0629
13 18 3 1.0357 0.3237
13 18 4 -0.0968 0.0545
13 18 5 2.9976 0.0184
13 18 6 -5.4028 -0.2459
13 18 7 -5.0406 -0.0306
13 18 8 -0.7993 -0.0601
13 18 9 2.3095 0.0699
13 18 10 2.7531 0.2546
13 18 11 4.4022 0.0587
13 18 12 1.1353 -0.0207
13 18 13 0.2786 -0.1764
13 18 14 0.6796 0.0029
13 18 15 4.0488 -0.0763
13 18 16 4.0173 0.0360
13 18 17 3.0525 0.0147
13 19 0 9.9573 -0.2957
13 19 1 5.4961 -0.1769
13 19 2 5.7693 -0.2726
13 19 3 -0.9665 0.0103
13 19 4 -0.3881 -0.0275
13 19 5 -1.5017 0.1659
13 19 6 -2.2155 0.0880
13 19 7 -2.2128 0.0750
13 19 8 -2.6733 -0.3091
13 19 9 3.2155 0.0106
13 19 10 -1.6955 0.0197
13 19 11 -2.5020 0.1580
13 19 12 1.5259 -0.0714
13 19 13 -0.2434 -0.1087
13 19 14 -0.5749 -0.0184
13 19 15 1.3726 0.0370
13 19 16 0.0180 -0.0011
13 19 17 1.7469 0.0242
13 20 1 1.2081 -0.2735
13 20 2 4.0887 0.1122
13 20 3 1.5472 0.1128
13 20 4 -0.1123 0.1242
13 20 5 -3.5207 0.1016
13 20 6 4.4671 0.0259
13 20 7 1.4352 -0.0888
13 20 8 -1.0854 -0.1231
13 20 9 -2.0955 -0.0456
13 20 10 3.0621 0.0874
13 20 11 -0.4277 0.1390
13 20 12 2.6756 0.0868
13 20 13 -0.3540 -0.1319
13 20 14 0.9554 -0.0726
13 20 15 1.9406 0.0770
13 20 16 -1.0166 -0.0644
13 21 0 -2.9430 -0.2170
13 21 1 -5.8208 -0.0815
13 21 2 1.1477 -0.2430
13 21 3 -2.7742 -0.1353
13 21 4 2.5729 -0.1045
13 21 5 -1.3338 0.3132
13 21 6 0.1010 0.0941
13 21 7 -2.4904 0.0375
13 21 8 1.8133 -0.2080
13 21 9 -1.3811 -0.0894
13 21 10 5.0571 -0.0015
13 21 11 5.0006 0.1433
13 21 12 4.6444 -0.0872
13 21 13 3.4336 -0.0543
13 21 14 3.4596 -0.1815
13 21 15 -1.3739 0.0246
13 21 16 -1.0900 0.1936
13 22 1 -2.3853 -0.0729
13 22 2 0.3623 0.0266
13 22 3 3.1567 0.0422
13 22 4 0.8033 0.1302
13 22 5 -3.2730 0.1001
13 22 6 -2.7329 0.0752
13 22 7 -0.1977 -0.1283
13 22 8 3.4289 -0.0824
13 22 9 -1.2548 -0.0071
13 22 10 0.8942 0.0697
13 22 11 -0.8216 -0.0387
13 22 12 -0.3692 -0.1076
13 22 13 3.2001 0.0239
13 22 14 5.5014 0.0218
13 22 15 -0.4496 0.1964
13 23 0 4.1108 -0.4079
13 23 1 0.6990 -0.0093
13 23 2 -2.2603 -0.3016
13 23 3 0.5709 0.1090
13 23 4 0.1957 -0.1455
13 23 5 -2.1730 0.2481
13 23 6 0.5201 0.0330
13 23 7 1.7423 0.0558
13 23 8 0.7795 -0.2184
13 23 9 0.5152 -0.0579
13 23 10 -2.2580 -0.0031
13 23 11 0.1959 0.1696
13 23 12 0.5453 -0.1185
13 23 13 2.5570 -0.1393
13 23 14 -0.9894 -0.2074
13 24 1 -0.6504 0.1264
13 24 2 -4.3142 0.0117
13 24 3 -4.6129 0.0727
13 24 4 -2.1569 0.1323
13 24 5 2.2258 0.0998
13 24 6 1.3478 -0.0810
13 24 7 -1.1643 -0.2385
13 24 8 -4.0684 -0.0098
13 24 9 -2.3401 0.1081
13 24 10 -3.1894 0.1731
13 24 11 -0.2513 -0.1776
13 24 12 0.0799 -0.2645
13 24 13 -1.3735 -0.1491
13 25 0 4.2572 -0.2090
13 25 1 -3.3166 0.0620
13 25 2 7.8375 -0.2140
13 25 3 -3.9577 0.0567
13 25 4 2.4026 -0.1631
13 25 5 -1.6247 0.2347
13 25 6 0.7153 0.0147
13 25 7 1.3115 0.0266
13 25 8 2.8436 -0.2911
13 25 9 1.1154 0.0219
13 25 10 -1.5899 0.0088
13 25 11 -3.1956 0.1937
13 25 12 0.4182 -0.0710
13 25 13 -2.9212 -0.2112
13 26 1 3.9203 0.1118
13 26 2 1.6039 0.0621
13 26 3 -3.7658 0.2046
13 26 4 -2.4520 0.1330
13 26 5 0.6579 0.0960
13 26 6 3.8723 -0.2340
13 26 7 0.3061 -0.2976
13 26 8 2.2129 -0.0472
13 26 9 -0.5354 0.1317
13 26 10 1.8131 0.3359
13 26 11 -2.1389 -0.1572
13 26 12 -3.0291 -0.2292
13 27 0 1.2273 -0.0578
13 27 1 0.6079 0.0961
13 27 2 -0.5430 -0.1225
13 27 3 1.7737 0.0154
13 27 4 1.7795 -0.1489
13 27 5 -1.0515 0.1661
13 27 6 0.0013 -0.1160
13 27 7 -0.7244 0.2232
13 27 8 1.5325 -0.2501
13 27 9 -0.2061 -0.0453
13 27 10 -0.6933 -0.2168
13 27 11 1.3811 0.3462
13 28 1 -0.3181 0.0324
13 28 2 1.1584 -0.0762
13 28 3 -0.8375 0.1953
13 28 4 1.2587 0.2249
13 28 5 -0.0458 0.1582
13 28 6 1.4461 -0.3016
13 28 7 0.5455 -0.2344
13 28 8 -0.2925 -0.0802
13 28 9 1.0773 0.1488
13 29 0 1.7771 0.0208
13 29 1 0.0640 0.0432
13 29 2 0.5468 -0.1105
13 29 3 1.6105 0.0521
13 29 4 1.6353 -0.1185
13 29 5 -2.0387 0.2255
13 29 6 -2.5858 -0.1268
13 29 7 -1.1922 0.1621
13 29 8 -1.6243 -0.2664
13 30 1 -1.0349 0.0338
13 30 2 -3.2446 -0.0133
13 30 3 -1.5713 -0.0733
13 30 4 -1.9213 0.1288
13 30 5 1.9809 0.0466
13 30 6 2.0682 0.0195
13 31 0 -0.8219 -0.1480
13 31 1 0.9310 0.1394
13 31 2 1.7199 -0.1192
13 31 3 -1.6240 0.4129
14 0 0 -27.1098 -1.4881
14 0 1 -0.1097 -0.8528
14 0 2 -26.8554 -0.9674
14 0 3 17.0895 -0.9631
14 0 4 -22.8987 0.0040
14 0 5 23.1901 0.6422
14 0 6 -15.0779 0.9660
14 0 7 14.1617 -0.5574
14 0 8 -12.2583 -0.8511
14 0 9 8.0260 -0.6062
14 0 10 -5.0601 0.5227
14 0 11 7.3907 0.8053
14 0 12 -2.1001 0.4731
14 0 13 7.2679 -0.6266
14 0 14 -4.1808 -0.4752
14 0 15 3.8747 -0.0070
14 0 16 1.2148 0.7199
14 0 17 1.8833 0.3240
14 0 18 7.9223 -0.1798
14 0 19 6.2261 -0.6248
14 0 20 0.7474 -0.0950
14 0 21 -3.1153 0.1478
14 1 1 -4.6183 2.5180
14 1 2 -4.1952 0.8905
14 1 3 -5.0686 -0.5352
14 1 4 1.4784 -1.6211
14 1 5 0.8294 -0.9221
14 1 6 0.5966 1.2551
14 1 7 -9.4669 1.2980
14 1 8 -9.3689 0.0663
14 1 9 -6.8376 -1.0236
14 1 10 3.5588 -0.8159
14 1 11 -1.8268 -0.0628
14 1 12 0.9380 1.2353
14 1 13 -4.9202 0.5202
14 1 14 1.3391 -0.2441
14 1 15 4.2464 -0.9169
14 1 16 6.4832 -0.1282
14 1 17 0.5950 0.4629
14 1 18 0.3126 0.6777
14 1 19 3.3458 0.0680
14 1 20 7.2330 -0.3408
14 1 21 5.5949 -0.5142
14 2 0 9.0151 0.3563
14 2 1 -5.8604 -0.4981
14 2 2 0.0582 -0.6491
14 2 3 -11.2728 0.2791
14 2 4 26.8157 -0.3128
14 2 5 -10.0394 -0.1202
14 2 6 -0.9096 0.0168
14 2 7 -18.5407 0.1099
14 2 8 9.2898 0.1479
14 2 9 -0.0829 0.0125
14 2 10 7.4456 -0.2286
14 2 11 -5.5308 -0.0732
14 2 12 1.8907 0.0079
14 2 13 -6.9749 0.3684
14 2 14 6.6735 0.1400
14 2 15 -1.0604 -0.1113
14 2 16 -0.6626 -0.1624
14 2 17 -4.8691 -0.0177
14 2 18 -3.9980 0.0709
14 2 19 -4.4740 0.0676
14 2 20 -0.6341 -0.1814
14 2 21 2.5623 -0.1349
14 3 1 -0.3445 0.6494
14 3 2 1.6371 0.3675
14 3 3 2.5660 0.2070
14 3 4 3.7497 -0.2642
14 3 5 7.7185 0.0633
14 3 6 8.6182 -0.2575
14 3 7 -3.0551 -0.0181
14 3 8 -13.4538 0.2089
14 3 9 -8.6247 0.0865
14 3 10 0.9584 0.1791
14 3 11 10.0866 0.0212
14 3 12 -6.6697 -0.3019
14 3 13 -2.3465 -0.1200
14 3 14 -3.4728 0.1469
14 3 15 -1.1297 0.1613
14 3 16 -4.4900 0.1439
14 3 17 2.2086 -0.0885
14 3 18 -0.2298 -0.0994
14 3 19 0.5115 -0.1091
14 3 20 2.0602 0.2766
14 3 21 3.7104 0.2031
14 4 0 -15.8477 0.2916
14 4 1 4.0584 0.1775
14 4 2 -12.2326 0.0815
14 4 3 26.2767 -0.0874
14 4 4 -13.2322 -0.0050
14 4 5 14.2980 -0.3085
14 4 6 -19.8142 -0.5471
14 4 7 -2.0496 0.4916
14 4 8 -9.3798 0.4343
14 4 9 2.9735 0.2096
14 4 10 4.0929 -0.3594
14 4 11 -2.9234 -0.4296
14 4 12 -2.7053 -0.0939
14 4 13 3.2232 0.5424
14 4 14 3.2862 0.2510
14 4 15 1.8858 -0.0342
14 4 16 -4.9306 -0.4284
14 4 17 -1.4125 -0.0851
14 4 18 -3.2907 0.1649
14 4 19 1.9575 0.1839
14 4 20 0.1744 -0.1648
14 4 21 0.6013 -0.2036
14 5 1 -7.3804 -0.2136
14 5 2 -5.9829 -0.0877
14 5 3 -11.8459 0.2947
14 5 4 -2.6802 0.6020
14 5 5 -4.8682 0.2076
14 5 6 11.3805 -0.4351
14 5 7 6.0349 -0.4734
14 5 8 3.6158 -0.1063
14 5 9 -3.2017 0.5714
14 5 10 -1.3340 0.3912
14 5 11 -6.7802 -0.1091
14 5 12 2.9783 -0.3824
14 5 13 -0.7242 -0.2794
14 5 14 -2.1202 0.1021
14 5 15 -4.9700 0.3795
14 5 16 -0.4904 0.1044
14 5 17 2.3791 -0.1591
14 5 18 0.3053 -0.2017
14 5 19 -6.2456 0.0402
14 5 20 -6.2602 0.1140
14 5 21 -2.7631 0.1352
14 6 0 6.8080 0.3561
14 6 1 16.2275 0.2062
14 6 2 -4.7991 -0.0034
14 6 3 -0.8256 0.1864
14 6 4 11.5081 -0.1328
14 6 5 -0.1512 -0.1910
14 6 6 -3.5226 -0.3207
14 6 7 -5.0454 0.1864
14 6 8 0.8629 0.2488
14 6 9 2.8753 0.4211
14 6 10 1.1094 -0.4339
14 6 11 3.3646 -0.1649
14 6 12 0.9020 -0.0992
14 6 13 -5.8696 0.2413
14 6 14 1.4893 0.1398
14 6 15 3.6280 0.0336
14 6 16 3.0742 -0.2943
14 6 17 -3.4901 0.1320
14 6 18 6.7339 0.0064
14 6 19 6.3730 0.1112
14 6 20 -0.2292 -0.1052
14 7 1 -0.8133 -0.4749
14 7 2 -6.4970 -0.0180
14 7 3 -7.0170 0.1528
14 7 4 -3.9764 0.5188
14 7 5 6.6824 0.1082
14 7 6 -4.3221 -0.1204
14 7 7 -2.1087 -0.3692
14 7 8 -2.7331 -0.0666
14 7 9 1.0170 0.1497
14 7 10 -0.0930 0.2188
14 7 11 0.7005 -0.0612
14 7 12 0.5845 -0.1225
14 7 13 1.5137 -0.0553
14 7 14 3.5746 -0.0218
14 7 15 1.6101 0.0839
14 7 16 1.5153 0.0353
14 7 17 -3.0473 0.1322
14 7 18 1.0679 -0.1276
14 7 19 -0.1872 -0.0873
14 7 20 -4.4433 -0.0561
14 8 0 -2.4075 -0.3537
14 8 1 -3.5118 -0.0065
14 8 2 6.1592 -0.0202
14 8 3 13.6568 0.2127
14 8 4 0.7331 -0.0574
14 8 5 0.2100 -0.0206
14 8 6 -14.9992 -0.0274
14 8 7 -8.1401 -0.0910
14 8 8 -1.9222 0.0232
14 8 9 2.0335 0.0829
14 8 10 2.9244 -0.0007
14 8 11 1.2086 0.0042
14 8 12 0.2521 -0.0656
14 8 13 1.7710 0.1320
14 8 14 -5.4262 -0.1222
14 8 15 -4.1488 -0.1044
14 8 16 -3.9918 0.1484
14 8 17 0.6167 0.0580
14 8 18 -0.1086 0.0952
14 8 19 1.0310 0.0140
14 8 20 -2.1741 -0.0929
14 9 1 -2.8895 0.0031
14 9 2 -1.2250 0.0190
14 9 3 3.2330 0.1451
14 9 4 -0.9831 -0.0056
14 9 5 -10.4655 0.1402
14 9 6 -7.4615 0.0350
14 9 7 -5.0273 -0.1345
14 9 8 0.4372 -0.0570
14 9 9 3.0583 -0.1173
14 9 10 0.3643 0.0765
14 9 11 -0.0299 -0.0450
14 9 12 -3.4433 0.0081
14 9 13 -0.8413 -0.0139
14 9 14 7.1301 0.0463
14 9 15 7.3621 -0.0482
14 9 16 2.0477 0.1230
14 9 17 -2.2645 0.0742
14 9 18 -5.3616 -0.0624
14 9 19 -2.3742 -0.1517
14 9 20 3.5825 0.0256
14 10 0 1.5421 -0.0610
14 10 1 5.6904 -0.0936
14 10 2 2.5349 0.0207
14 10 3 8.8473 -0.0172
14 10 4 1.1418 0.1482
14 10 5 -5.7771 -0.0347
14 10 6 -2.4040 0.0831
14 10 7 4.7194 -0.0972
14 10 8 3.8392 -0.0203
14 10 9 -4.0991 -0.1619
14 10 10 -8.1800 0.1138
14 10 11 -7.3342 0.0351
14 10 12 -3.0751 0.1454
14 10 13 -3.9063 -0.0779
14 10 14 -1.3542 -0.0744
14 10 15 -0.9725 -0.0804
14 10 16 -0.7675 0.0514
14 10 17 3.1679 0.1146
14 10 18 3.0617 0.1234
14 10 19 1.4005 0.0001
14 10 20 -0.1259 0.0905
14 11 1 -8.9361 0.2781
14 11 2 -1.4025 -0.0610
14 11 3 -1.5484 -0.0567
14 11 4 3.3918 -0.0554
14 11 5 -4.0870 0.3336
14 11 6 -3.7150 -0.0242
14 11 7 -6.9139 -0.1683
14 11 8 -6.1566 -0.2407
14 11 9 -3.3001 0.1008
14 11 10 2.7472 0.1332
14 11 11 -5.5919 -0.1324
14 11 12 -4.4325 -0.0359
14 11 13 -1.7917 -0.0773
14 11 14 2.6361 0.1117
14 11 15 0.6568 0.0948
14 11 16 0.8988 0.0738
14 11 17 -1.8553 -0.0707
14 11 18 2.2717 -0.0213
14 11 19 0.5832 -0.0767
14 12 0 -15.4760 0.1074
14 12 1 4.4630 -0.0356
14 12 2 3.9116 0.1222
14 12 3 11.7775 -0.0257
14 12 4 -1.3770 0.1466
14 12 5 2.4288 -0.0667
14 12 6 -4.5426 -0.0584
14 12 7 2.0116 -0.0250
14 12 8 -1.7020 0.0967
14 12 9 -1.7781 -0.0365
14 12 10 -5.7519 -0.0179
14 12 11 -4.8627 -0.0741
14 12 12 -2.4632 0.0930
14 12 13 0.8709 -0.0190
14 12 14 -0.0118 0.0983
14 12 15 0.9440 -0.0695
14 12 16 -0.3827 -0.0154
14 12 17 1.3291 -0.0302
14 12 18 0.6624 0.0900
14 12 19 2.6625 0.1334
14 13 1 1.2043 -0.1341
14 13 2 -0.4634 -0.0593
14 13 3 5.8087 -0.0097
14 13 4 3.1259 0.0988
14 13 5 4.4925 0.2918
14 13 6 -1.9784 -0.0879
14 13 7 4.2279 -0.2868
14 13 8 1.2911 -0.2345
14 13 9 5.3882 0.2532
14 13 10 -3.4416 0.2146
14 13 11 1.8918 -0.0768
14 13 12 -3.7299 -0.3146
14 13 13 -1.7353 0.0254
14 13 14 1.2616 0.1625
14 13 15 2.6985 0.1471
14 13 16 -0.5691 -0.0682
14 13 17 -0.5828 -0.0921
14 13 18 0.1303 -0.0803
14 13 19 4.0988 0.1476
14 14 0 9.4607 -0.1141
14 14 1 1.9254 0.1273
14 14 2 3.6793 0.3458
14 14 3 -0.3935 -0.0132
14 14 4 1.2807 0.0530
14 14 5 -3.6635 -0.2419
14 14 6 -0.0528 -0.0012
14 14 7 -6.0341 0.0024
14 14 8 0.6578 0.1533
14 14 9 -5.0792 0.1281
14 14 10 0.3754 -0.1422
14 14 11 -1.6295 -0.1316
14 14 12 1.9701 -0.0242
14 14 13 2.6956 0.0770
14 14 14 0.8401 0.1032
14 14 15 0.3758 0.0389
14 14 16 0.7235 -0.0345
14 14 17 0.4611 -0.1020
14 14 18 4.0962 -0.0499
14 14 19 -1.1649 0.2325
14 15 1 1.6528 -0.4949
14 15 2 5.7685 0.0062
14 15 3 4.6916 0.0653
14 15 4 3.3237 0.2369
14 15 5 2.4827 0.1344
14 15 6 2.3661 -0.1367
14 15 7 5.4741 -0.2576
14 15 8 6.3887 -0.1734
14 15 9 0.7899 0.2370
14 15 10 -0.3816 0.2514
14 15 11 -1.5382 -0.0411
14 15 12 4.5951 -0.3063
14 15 13 1.9352 -0.0331
14 15 14 -2.0477 0.1408
14 15 15 -4.6508 0.1860
14 15 16 -0.7616 -0.1495
14 15 17 0.3856 -0.0961
14 15 18 0.0216 -0.0959
14 16 0 -1.9916 -0.0730
14 16 1 6.3633 0.0815
14 16 2 0.3331 0.4103
14 16 3 6.1345 -0.1244
14 16 4 -3.0725 0.0845
14 16 5 0.9042 -0.3017
14 16 6 0.9832 0.1934
14 16 7 9.9674 -0.1743
14 16 8 -0.0869 0.2329
14 16 9 0.0927 -0.0560
14 16 10 -6.0302 0.1238
14 16 11 1.8603 -0.1805
14 16 12 -1.9847 -0.0700
14 16 13 1.2272 -0.0839
14 16 14 -0.1522 0.1390
14 16 15 0.1358 0.0463
14 16 16 -0.9741 0.1419
14 16 17 6.7825 -0.0964
14 16 18 2.8851 -0.0602
14 17 1 -1.3259 -0.2638
14 17 2 -3.8116 -0.0945
14 17 3 -1.3917 0.0140
14 17 4 1.8067 0.1194
14 17 5 0.8269 0.0378
14 17 6 1.4210 -0.0258
14 17 7 -0.7019 -0.1040
14 17 8 -2.1163 -0.0942
14 17 9 1.9785 0.0296
14 17 10 0.9933 0.1027
14 17 11 0.4014 0.0449
14 17 12 -2.1315 -0.0609
14 17 13 -3.3988 -0.0462
14 17 14 -1.6155 -0.0169
14 17 15 -2.7914 0.0486
14 17 16 -6.5966 -0.0832
14 17 17 -4.0352 0.0322
14 18 0 -0.3592 0.0853
14 18 1 -1.2680 -0.3348
14 18 2 5.9985 0.0825
14 18 3 4.2593 -0.0817
14 18 4 3.2587 0.2883
14 18 5 0.1494 -0.1206
14 18 6 -1.0289 0.1292
14 18 7 -1.3981 -0.2195
14 18 8 3.7160 0.1116
14 18 9 0.6361 -0.1456
14 18 10 0.1999 0.2275
14 18 11 -5.7783 -0.0967
14 18 12 -2.5710 0.0152
14 18 13 -0.4749 -0.2362
14 18 14 -1.0132 0.0398
14 18 15 3.7279 0.0234
14 18 16 2.0721 0.2629
14 18 17 -1.4101 -0.0512
14 19 1 -7.4382 -0.1055
14 19 2 -3.4388 -0.1749
14 19 3 1.9677 -0.0384
14 19 4 -0.2215 -0.1129
14 19 5 0.1599 0.1419
14 19 6 -1.4151 -0.0628
14 19 7 3.1192 0.0439
14 19 8 0.3575 -0.0623
14 19 9 -3.9446 -0.0298
14 19 10 -2.4360 0.0099
14 19 11 -2.2433 0.0122
14 19 12 -0.5603 0.0193
14 19 13 -0.1248 -0.0434
14 19 14 -1.9178 -0.0529
14 19 15 -3.3395 0.0302
14 19 16 2.0626 0.0675
14 20 0 -10.8768 -1.0072
14 20 1 -9.0161 -0.4014
14 20 2 -5.6198 0.0090
14 20 3 -4.7858 0.0243
14 20 4 0.4122 0.2785
14 20 5 -0.7731 0.0523
14 20 6 4.5911 -0.0491
14 20 7 2.5565 -0.0931
14 20 8 2.3605 0.0251
14 20 9 0.3184 0.0072
14 20 10 0.1354 -0.0805
14 20 11 1.2067 -0.0461
14 20 12 -1.0378 0.1614
14 20 13 0.2554 -0.0919
14 20 14 1.7757 -0.0236
14 20 15 -0.8171 -0.1615
14 20 16 -0.1328 0.1260
14 21 1 6.5944 -0.0230
14 21 2 8.8256 -0.0702
14 21 3 4.7850 -0.0939
14 21 4 3.7686 -0.1536
14 21 5 -2.1457 0.1277
14 21 6 -2.9278 -0.0967
14 21 7 -1.1707 -0.0389
14 21 8 2.7323 -0.0719
14 21 9 4.6827 0.1631
14 21 10 -0.7029 0.1226
14 21 11 1.4929 -0.1153
14 21 12 0.5190 -0.1773
14 21 13 -0.9862 -0.1320
14 21 14 -0.7033 0.1644
14 21 15 3.7059 0.1320
14 22 0 -2.3546 0.1515
14 22 1 1.2355 -0.2038
14 22 2 3.2139 -0.1291
14 22 3 6.7329 -0.0640
14 22 4 -2.5409 0.1119
14 22 5 -1.5949 0.0377
14 22 6 -3.4667 0.0312
14 22 7 0.6229 -0.0329
14 22 8 -0.7702 0.0096
14 22 9 -1.4772 0.0659
14 22 10 -3.6093 -0.1135
14 22 11 -2.1132 -0.1298
14 22 12 0.3903 0.0975
14 22 13 0.6295 0.1550
14 22 14 -1.6834 0.0335
14 22 15 -1.1380 -0.2419
14 23 1 0.7363 0.1332
14 23 2 -3.2574 -0.0782
14 23 3 -0.8328 -0.0706
14 23 4 -1.0841 0.0175
14 23 5 1.5142 -0.0207
14 23 6 0.5179 -0.1487
14 23 7 0.3894 -0.1515
14 23 8 1.1350 0.0078
14 23 9 -0.2118 0.2693
14 23 10 3.3670 0.1386
14 23 11 0.8042 -0.1366
14 23 12 3.1056 -0.2472
14 23 13 -1.5748 0.0009
14 23 14 -1.8408 0.0291
14 24 0 1.2934 0.1581
14 24 1 4.2820 0.0797
14 24 2 1.1755 0.0990
14 24 3 -0.6618 -0.0139
14 24 4 -0.8592 -0.0286
14 24 5 -0.2960 -0.1704
14 24 6 2.8528 -0.0474
14 24 7 0.8073 0.0056
14 24 8 0.1141 0.1444
14 24 9 -2.5824 0.0487
14 24 10 3.0861 -0.0570
14 24 11 3.7683 0.0275
14 24 12 -0.0950 -0.2280
14 24 13 0.4934 0.2495
14 25 1 -3.0228 0.0156
14 25 2 -0.7322 0.0182
14 25 3 -1.3403 -0.0836
14 25 4 -1.6116 0.0971
14 25 5 -1.5198 0.0829
14 25 6 -1.6596 -0.1918
14 25 7 2.1352 -0.1889
14 25 8 1.5633 -0.0059
14 25 9 2.3496 0.1433
14 25 10 0.6572 0.0759
14 25 11 3.6229 0.0208
14 25 12 0.5598 -0.0123
14 26 0 0.7006 0.0437
14 26 1 -4.8932 0.1851
14 26 2 -0.2121 0.1209
14 26 3 -2.8780 0.1901
14 26 4 -0.6220 -0.0758
14 26 5 -5.1203 -0.1857
14 26 6 -1.2971 -0.1789
14 26 7 -0.3011 -0.0466
14 26 8 1.4318 0.0215
14 26 9 1.0278 0.0302
14 26 10 1.5318 0.1687
14 26 11 -0.4131 0.0740
14 27 1 -0.0060 -0.0004
14 27 2 0.3953 -0.1212
14 27 3 2.4932 0.0043
14 27 4 0.7964 0.0926
14 27 5 -0.7587 0.1184
14 27 6 -0.6390 0.0110
14 27 7 -0.4006 -0.1688
14 27 8 -0.7444 -0.0052
14 27 9 -0.4231 -0.2318
14 27 10 0.9012 0.0231
14 28 0 -0.9824 0.2152
14 28 1 -4.4259 0.1395
14 28 2 -0.5931 -0.0255
14 28 3 -1.9419 0.1145
14 28 4 0.8794 0.1027
14 28 5 -1.3704 -0.0212
14 28 6 -1.5959 -0.3207
14 28 7 -0.3329 0.0399
14 28 8 0.2881 -0.2162
14 28 9 -1.2141 -0.0258
14 29 1 0.5537 0.0940
14 29 2 2.3354 0.0639
14 29 3 1.2311 -0.0884
14 29 4 4.2953 -0.1509
14 29 5 0.9636 0.0774
14 29 6 0.9134 0.2106
14 29 7 -3.4877 0.2595
14 30 0 0.1786 0.2916
14 30 1 -0.8662 0.0388
14 30 2 3.1005 -0.0545
14 30 3 1.1957 0.0397
14 30 4 -0.5731 -0.0528
14 30 5 -2.7772 0.1312
14 31 1 1.1388 0.6371
14 31 2 1.0535 -0.0752
15 1 0 -10.1521 0.7407
15 1 1 18.6492 -0.3221
15 1 2 -27.8567 0.2008
15 1 3 12.4690 -0.1077
15 1 4 -18.9463 1.0989
15 1 5 22.6284 -0.4238
15 1 6 -21.4579 0.3937
15 1 7 1.1543 -0.5746
15 1 8 -15.5207 0.1610
15 1 9 11.1259 -0.4862
15 1 10 0.8063 0.6229
15 1 11 8.6284 -0.1226
15 1 12 -4.4795 0.3865
15 1 13 0.9580 -0.4897
15 1 14 -4.0292 0.1504
15 1 15 7.6601 -0.3673
15 1 16 2.6205 0.2744
15 1 17 2.1418 -0.0734
15 1 18 -2.6704 0.3335
15 1 19 8.5340 -0.3448
15 1 20 -3.1604 0.0166
15 1 21 0.5153 -0.2830
15 2 1 -7.2818 -0.5873
15 2 2 -12.4938 -0.3688
15 2 3 -1.3445 0.1198
15 2 4 -5.5250 0.5853
15 2 5 1.1052 0.2384
15 2 6 0.5574 -0.2589
15 2 7 5.0654 -0.4758
15 2 8 1.4577 -0.0784
15 2 9 3.2715 0.3111
15 2 10 7.5007 0.4126
15 2 11 1.5419 -0.1238
15 2 12 3.2023 -0.3903
15 2 13 -5.6457 0.0004
15 2 14 0.5278 0.2072
15 2 15 2.4300 0.1520
15 2 16 0.9920 -0.0061
15 2 17 -3.9544 -0.2251
15 2 18 -8.9730 -0.1564
15 2 19 -16.7135 0.1412
15 2 20 -11.6287 0.1857
15 3 0 43.6005 -0.3757
15 3 1 8.4638 -0.2082
15 3 2 24.6546 0.2205
15 3 3 -17.2926 0.3306
15 3 4 7.1604 0.8196
15 3 5 -25.7877 -0.4618
15 3 6 2.5288 -0.0509
15 3 7 -13.2142 -0.5974
15 3 8 2.9334 0.8081
15 3 9 -8.9216 -0.1499
15 3 10 -1.1777 0.0566
15 3 11 -3.0526 -0.3842
15 3 12 0.5416 0.1755
15 3 13 -0.1941 0.0338
15 3 14 5.7822 0.4635
15 3 15 2.0183 -0.4095
15 3 16 0.4215 -0.1131
15 3 17 -7.7261 -0.3081
15 3 18 -7.5865 0.3488
15 3 19 -8.1346 0.0950
15 3 20 3.9819 -0.0727
15 4 1 -9.9469 -0.3254
15 4 2 -0.9403 -0.1178
15 4 3 3.6974 0.0541
15 4 4 17.4564 0.4891
15 4 5 5.1683 0.2058
15 4 6 -2.3671 -0.3423
15 4 7 -7.9588 -0.3109
15 4 8 3.4472 -0.0500
15 4 9 2.7496 0.3393
15 4 10 2.6708 0.2316
15 4 11 1.0802 -0.0784
15 4 12 -6.4734 -0.2424
15 4 13 -1.0998 -0.1607
15 4 14 -3.1388 0.1885
15 4 15 3.5393 0.2272
15 4 16 8.2867 0.0128
15 4 17 2.8082 -0.1023
15 4 18 -10.2106 -0.1627
15 4 19 -10.4173 -0.0745
15 4 20 -7.5886 0.1855
15 5 0 -4.3560 -0.1682
15 5 1 10.0095 -0.2046
15 5 2 -6.6073 -0.2176
15 5 3 5.7652 0.1350
15 5 4 -7.5627 -0.0678
15 5 5 8.2407 0.4744
15 5 6 -9.5168 -0.1273
15 5 7 -9.5562 0.0088
15 5 8 -9.9539 -0.2826
15 5 9 1.5216 0.0791
15 5 10 7.3995 0.0187
15 5 11 3.2782 0.1536
15 5 12 4.6383 -0.0090
15 5 13 -1.1752 0.1196
15 5 14 -2.5061 -0.2253
15 5 15 1.1034 0.2183
15 5 16 -2.1515 -0.1232
15 5 17 -5.8057 -0.0217
15 5 18 -3.5563 -0.1013
15 5 19 1.7029 -0.0837
15 5 20 1.0245 -0.2022
15 6 1 -17.7704 0.0445
15 6 2 -16.4541 0.0047
15 6 3 -1.3176 0.2048
15 6 4 11.4437 0.0926
15 6 5 2.4005 0.0578
15 6 6 3.7009 -0.0691
15 6 7 -4.0116 -0.1747
15 6 8 -1.2690 -0.0506
15 6 9 -1.7490 0.2337
15 6 10 -4.9266 0.0980
15 6 11 1.2217 -0.0447
15 6 12 5.8981 -0.1461
15 6 13 3.8873 -0.0482
15 6 14 -0.9615 0.0828
15 6 15 -1.8374 0.0452
15 6 16 -3.7928 0.0792
15 6 17 -0.7239 -0.0314
15 6 18 1.2108 -0.0462
15 6 19 1.7770 -0.0456
15 6 20 5.8839 0.0481
15 7 0 8.4300 0.1009
15 7 1 9.6784 -0.0184
15 7 2 0.3360 -0.6128
15 7 3 4.0592 -0.0897
15 7 4 6.1610 -0.2054
15 7 5 7.2761 0.5890
15 7 6 3.2209 -0.0112
15 7 7 0.4792 0.2356
15 7 8 1.7036 -0.7901
15 7 9 3.2433 0.1767
15 7 10 1.0445 -0.0128
15 7 11 -2.4614 0.5591
15 7 12 -5.0395 -0.1415
15 7 13 2.5694 -0.0032
15 7 14 6.5056 -0.3767
15 7 15 0.6003 0.2707
15 7 16 -0.5157 0.0525
15 7 17 1.5432 0.2945
15 7 18 3.3179 -0.4352
15 7 19 3.1471 -0.1681
15 7 20 -0.8054 -0.2581
15 8 1 -24.5421 -0.1886
15 8 2 -14.9282 0.0414
15 8 3 8.9075 0.1132
15 8 4 21.6706 0.2234
15 8 5 16.5634 0.0067
15 8 6 0.2932 -0.0534
15 8 7 -3.8597 -0.2496
15 8 8 -2.5620 0.0730
15 8 9 -1.7302 0.2130
15 8 10 2.7903 0.1496
15 8 11 -7.9520 -0.1212
15 8 12 -5.1984 -0.1279
15 8 13 -3.4212 -0.0593
15 8 14 2.6988 0.0948
15 8 15 -0.4241 0.0309
15 8 16 -3.4478 -0.0012
15 8 17 -9.0507 0.0067
15 8 18 -3.0526 -0.0301
15 8 19 2.5607 0.0554
15 8 20 5.3539 0.0050
15 9 0 7.7301 0.2556
15 9 1 1.5752 0.0380
15 9 2 -13.7467 -0.3226
15 9 3 -8.4719 -0.0090
15 9 4 4.0351 -0.1939
15 9 5 14.3539 0.2762
15 9 6 8.9807 -0.1690
15 9 7 -1.0894 0.0963
15 9 8 -4.8615 -0.2076
15 9 9 -1.7663 0.1176
15 9 10 1.6921 -0.0988
15 9 11 -0.6945 0.3633
15 9 12 -0.4311 -0.1760
15 9 13 -5.3181 0.0538
15 9 14 -4.2275 -0.1041
15 9 15 -1.6870 0.1042
15 9 16 0.4311 0.0539
15 9 17 0.9605 0.0204
15 9 18 1.3674 -0.0522
15 9 19 -3.2586 -0.1394
15 9 20 -0.3646 -0.2225
15 10 1 -11.4295 -0.1692
15 10 2 -15.6921 -0.1142
15 10 3 -4.1549 -0.0208
15 10 4 1.0962 0.2439
15 10 5 -2.4774 0.1119
15 10 6 -6.3661 -0.0466
15 10 7 -12.8659 -0.2440
15 10 8 -10.3106 0.0337
15 10 9 -2.5168 0.1416
15 10 10 6.9400 0.2842
15 10 11 13.0559 -0.0892
15 10 12 2.9531 -0.1538
15 10 13 3.6675 -0.0931
15 10 14 1.7110 0.0560
15 10 15 0.4139 0.0549
15 10 16 -7.2024 0.0437
15 10 17 -6.2948 -0.0563
15 10 18 -4.4684 -0.0566
15 10 19 -0.3607 0.0277
15 11 0 -13.0129 0.2480
15 11 1 -12.3379 0.3301
15 11 2 2.3993 0.1226
15 11 3 0.2478 0.1308
15 11 4 7.5275 -0.0580
15 11 5 2.7084 -0.3941
15 11 6 1.7804 -0.1819
15 11 7 -5.7171 0.0152
15 11 8 3.6982 0.3640
15 11 9 1.8539 0.1125
15 11 10 2.4554 -0.0932
15 11 11 -5.4721 -0.2049
15 11 12 -4.1188 -0.0073
15 11 13 3.1263 0.1454
15 11 14 1.1188 0.1295
15 11 15 -0.6357 0.0418
15 11 16 -3.0144 -0.1013
15 11 17 -0.3081 -0.2006
15 11 18 -0.9239 0.0261
15 11 19 -0.7484 0.1158
15 12 1 -6.2928 -0.1900
15 12 2 1.2684 -0.1918
15 12 3 -1.1587 -0.0399
15 12 4 6.9534 0.1769
15 12 5 -5.5346 0.1745
15 12 6 -5.2136 -0.0469
15 12 7 -5.8702 -0.1512
15 12 8 -1.5733 -0.0816
15 12 9 -2.5464 0.1509
15 12 10 -1.4911 0.2065
15 12 11 4.0203 -0.0276
15 12 12 3.0842 -0.0388
15 12 13 -6.5502 -0.1301
15 12 14 -3.1346 0.1250
15 12 15 2.4759 -0.0375
15 12 16 7.1699 -0.0433
15 12 17 -0.2997 -0.0390
15 12 18 5.0234 0.0546
15 12 19 0.5144 0.0453
15 13 0 -3.0824 0.1529
15 13 1 8.9503 0.4642
15 13 2 -12.8045 0.2331
15 13 3 7.1186 0.2050
15 13 4 -2.5592 -0.2838
15 13 5 9.7059 -0.1789
15 13 6 -8.3107 -0.2985
15 13 7 -0.8226 0.1360
15 13 8 -4.8088 0.1930
15 13 9 6.7880 0.1579
15 13 10 -0.1960 -0.0507
15 13 11 3.9812 -0.1360
15 13 12 3.0351 -0.0294
15 13 13 -1.5421 0.0354
15 13 14 -3.8313 0.0895
15 13 15 1.2530 0.0656
15 13 16 6.2295 -0.0685
15 13 17 5.5273 -0.1469
15 13 18 0.1155 -0.1101
15 13 19 2.2944 0.1473
15 14 1 -5.9827 -0.0532
15 14 2 -4.2755 -0.1131
15 14 3 1.7255 -0.0485
15 14 4 -2.5552 0.0935
15 14 5 -1.1386 0.0750
15 14 6 0.4476 0.0836
15 14 7 2.1759 -0.1598
15 14 8 1.2867 -0.0145
15 14 9 3.3503 0.0600
15 14 10 0.7897 0.0869
15 14 11 -3.6132 -0.0043
15 14 12 -4.3754 -0.0115
15 14 13 2.6075 0.0005
15 14 14 0.5466 0.1069
15 14 15 1.2651 -0.0156
15 14 16 2.1844 -0.0938
15 14 17 2.0678 -0.0575
15 14 18 -5.1220 0.0963
15 15 0 5.9951 -0.0096
15 15 1 -6.7678 0.2430
15 15 2 -1.5907 -0.0762
15 15 3 -9.4075 0.1317
15 15 4 4.2755 -0.2060
15 15 5 -11.5758 0.1403
15 15 6 0.3805 -0.1705
15 15 7 -6.2709 0.1751
15 15 8 8.5958 -0.2098
15 15 9 -2.5466 0.1253
15 15 10 5.7220 -0.0567
15 15 11 -6.4721 0.2298
15 15 12 -1.1463 -0.0664
15 15 13 0.5995 -0.0288
15 15 14 7.5938 -0.2192
15 15 15 1.5953 0.1370
15 15 16 -2.3627 -0.0079
15 15 17 -2.6381 0.1332
15 15 18 1.8157 -0.2566
15 16 1 0.5267 -0.0718
15 16 2 0.8761 -0.0428
15 16 3 0.6082 0.0443
15 16 4 5.6826 0.0166
15 16 5 -0.2292 0.0659
15 16 6 -2.2943 0.0606
15 16 7 -2.7919 -0.0256
15 16 8 -2.8864 -0.0814
15 16 9 -1.9247 0.0113
15 16 10 -0.4441 0.0246
15 16 11 2.4095 0.0064
15 16 12 -1.0301 -0.0574
15 16 13 -1.8704 0.0738
15 16 14 2.3157 0.0634
15 16 15 0.4960 0.0610
15 16 16 -1.3128 0.0408
15 16 17 -4.2446 -0.0740
15 17 0 -6.3744 -0.1231
15 17 1 9.8829 -0.3196
15 17 2 5.1908 -0.3403
15 17 3 14.6767 -0.0200
15 17 4 -2.1969 0.1590
15 17 5 5.1639 0.1932
15 17 6 -10.8480 0.0573
15 17 7 -3.1113 0.0351
15 17 8 -3.1371 -0.1495
15 17 9 5.4683 -0.0110
15 17 10 -0.2604 -0.1295
15 17 11 3.8898 0.2464
15 17 12 -0.7445 -0.0534
15 17 13 1.8492 0.0898
15 17 14 -3.4823 -0.2057
15 17 15 -2.1479 0.0111
15 17 16 -2.4593 0.0147
15 17 17 -1.6594 0.1469
15 18 1 -4.3354 0.0349
15 18 2 -3.2267 0.0698
15 18 3 -1.6808 -0.0277
15 18 4 -3.0667 0.0749
15 18 5 0.6763 0.0293
15 18 6 1.2427 0.1071
15 18 7 2.8808 0.0213
15 18 8 -1.5729 -0.1039
15 18 9 -3.3354 -0.1055
15 18 10 -7.1497 0.0121
15 18 11 -3.1033 0.0325
15 18 12 -3.2134 -0.0273
15 18 13 -0.8186 0.0148
15 18 14 -2.4232 0.0874
15 18 15 -0.5824 0.0366
15 18 16 -2.2518 -0.0003
15 18 17 -3.7173 0.1485
15 19 0 -3.5094 -0.1014
15 19 1 1.9428 -0.5843
15 19 2 3.4233 -0.2199
15 19 3 6.6994 -0.1975
15 19 4 3.9040 0.2551
15 19 5 3.7196 0.1544
15 19 6 7.6418 0.1504
15 19 7 6.1040 -0.0251
15 19 8 2.4896 0.2001
15 19 9 3.2954 -0.0968
15 19 10 -0.6851 -0.1922
15 19 11 -3.3596 -0.2166
15 19 12 0.0857 0.1679
15 19 13 2.8656 0.0952
15 19 14 0.8130 0.0869
15 19 15 2.5391 -0.0900
15 19 16 1.8269 0.1104
15 20 1 1.7444 -0.0717
15 20 2 0.2747 0.1229
15 20 3 -1.6542 0.0153
15 20 4 0.1216 0.0713
15 20 5 -1.1759 0.0481
15 20 6 0.7548 0.0511
15 20 7 2.3618 -0.0305
15 20 8 4.2727 -0.0658
15 20 9 2.3533 -0.0107
15 20 10 -2.3476 -0.0866
15 20 11 -2.2450 -0.0123
15 20 12 2.2469 0.0062
15 20 13 1.8547 -0.0176
15 20 14 1.6243 0.0764
15 20 15 -0.8931 0.1167
15 21 0 -10.0107 -0.2814
15 21 1 -11.1894 -0.5147
15 21 2 -4.1120 -0.0680
15 21 3 -4.2090 -0.0297
15 21 4 0.3310 0.2882
15 21 5 -0.1611 -0.2097
15 21 6 0.3144 0.1454
15 21 7 -1.2487 0.0786
15 21 8 3.0356 0.3159
15 21 9 -2.4773 -0.0819
15 21 10 0.9644 -0.0562
15 21 11 -2.6860 -0.4874
15 21 12 -1.1763 0.0724
15 21 13 -2.6125 0.0499
15 21 14 2.0052 0.3228
15 21 15 -0.1238 -0.1648
15 22 1 3.4294 0.0251
15 22 2 4.3669 -0.0694
15 22 3 -0.3299 0.0010
15 22 4 0.0957 0.0964
15 22 5 -1.5921 0.0487
15 22 6 -2.9151 -0.0399
15 22 7 -0.6359 -0.0193
15 22 8 -0.5886 -0.0696
15 22 9 1.1932 0.0110
15 22 10 -1.1442 -0.0867
15 22 11 0.1547 0.0070
15 22 12 -1.9645 -0.0863
15 22 13 2.2152 0.1366
15 22 14 0.6476 0.0492
15 23 0 7.1846 -0.3978
15 23 1 10.9741 -0.3915
15 23 2 -5.7539 0.0657
15 23 3 2.8549 0.0968
15 23 4 -2.3039 0.1235
15 23 5 1.8891 -0.1350
15 23 6 -1.3534 -0.0099
15 23 7 3.3966 0.0105
15 23 8 -3.2057 0.2537
15 23 9 -3.5830 -0.0857
15 23 10 -3.0799 -0.0179
15 23 11 4.5050 -0.0970
15 23 12 -0.6245 -0.0519
15 23 13 -1.1821 -0.2156
15 24 1 3.3157 0.1180
15 24 2 3.1101 -0.0937
15 24 3 0.8030 -0.0721
15 24 4 -1.2215 -0.0525
15 24 5 -0.1313 -0.0204
15 24 6 1.6507 0.0281
15 24 7 0.1213 0.0719
15 24 8 -0.9940 -0.0900
15 24 9 0.9535 -0.1221
15 24 10 2.0710 -0.1385
15 24 11 4.2772 0.1234
15 24 12 2.4464 0.1274
15 24 13 0.8978 0.0015
15 25 0 -1.8250 -0.3725
15 25 1 0.3371 -0.4313
15 25 2 1.1930 0.1746
15 25 3 4.2847 0.0792
15 25 4 2.1493 0.2386
15 25 5 2.0291 -0.2631
15 25 6 -3.5717 0.0062
15 25 7 -0.8254 -0.1133
15 25 8 1.8097 0.0620
15 25 9 3.7281 -0.0087
15 25 10 0.5054 -0.0022
15 25 11 -0.6424 0.0720
15 25 12 2.1716 0.1007
15 26 1 -0.0386 -0.0068
15 26 2 -2.0392 -0.0183
15 26 3 0.5357 -0.0571
15 26 4 -1.3535 -0.0750
15 26 5 1.7230 -0.1557
15 26 6 -0.6942 -0.1023
15 26 7 0.8805 0.1522
15 26 8 0.7556 0.0480
15 26 9 -0.7653 -0.0682
15 26 10 -1.3516 -0.2385
15 26 11 0.1544 0.0904
15 27 0 -4.2421 -0.2966
15 27 1 1.2489 -0.3604
15 27 2 -2.6654 0.1175
15 27 3 1.3469 -0.0302
15 27 4 -0.8104 0.2219
15 27 5 -1.2712 -0.0801
15 27 6 -0.8767 -0.0131
15 27 7 -0.7612 -0.1968
15 27 8 1.1961 -0.0396
15 27 9 -2.2162 -0.0789
15 27 10 0.1277 0.1816
15 28 1 2.2132 0.0329
15 28 2 4.2762 0.0778
15 28 3 0.8170 -0.0826
15 28 4 1.0817 -0.2470
15 28 5 -1.2724 -0.1457
15 28 6 -2.5747 0.0453
15 28 7 -3.1587 0.0895
15 28 8 -5.1726 0.0368
15 29 0 2.9515 -0.0819
15 29 1 0.3134 -0.2517
15 29 2 1.6134 0.0163
15 29 3 0.8826 0.1344
15 29 4 -2.0634 -0.1013
15 29 5 -0.9547 0.0773
15 29 6 -0.7119 -0.1013
15 29 7 2.6111 0.1561
15 30 1 0.9599 0.1323
15 30 2 -1.2555 0.1096
15 30 3 -1.8682 -0.2366
15 30 4 -0.1945 -0.0987
16 0 0 34.8863 0.2662
16 0 1 -11.8634 1.8611
16 0 2 7.9367 0.7309
16 0 3 -24.4576 2.8284
16 0 4 13.1562 -1.0162
16 0 5 -0.6275 -0.7195
16 0 6 15.2126 -2.8312
16 0 7 -10.4415 2.1701
16 0 8 -1.4643 0.9160
16 0 9 -2.1179 1.7067
16 0 10 3.0341 -2.1470
16 0 11 2.0827 -0.8313
16 0 12 2.2304 -1.1698
16 0 13 2.5433 1.9972
16 0 14 -9.0237 0.3762
16 0 15 -9.8881 0.3984
16 0 16 -1.3472 -1.7683
16 0 17 -1.6602 0.0199
16 0 18 9.3998 0.0111
16 0 19 -3.2666 1.1605
16 0 20 -4.0190 -0.0887
16 1 1 23.7227 2.5375
16 1 2 23.2005 -0.3154
16 1 3 4.2298 -0.2880
16 1 4 -7.0076 -0.7993
16 1 5 -5.7095 -0.8188
16 1 6 5.0229 0.9077
16 1 7 8.2726 0.9418
16 1 8 7.1760 -0.1756
16 1 9 1.7501 -0.4939
16 1 10 -1.2474 -0.5650
16 1 11 -1.5540 -0.0369
16 1 12 2.1766 0.7596
16 1 13 4.8155 0.4115
16 1 14 4.9252 -0.0639
16 1 15 2.9352 -0.6073
16 1 16 0.3105 -0.0858
16 1 17 -3.4730 0.3854
16 1 18 0.4497 0.3489
16 1 19 3.7806 0.0919
16 1 20 2.2685 -0.1487
16 2 0 30.2774 -0.2984
16 2 1 31.7426 0.0296
16 2 2 -6.0173 0.7007
16 2 3 -6.3575 0.2793
16 2 4 -5.7780 -0.1448
16 2 5 6.8118 0.2014
16 2 6 0.5353 -0.0120
16 2 7 8.6869 -0.0130
16 2 8 0.9286 -0.2246
16 2 9 2.8365 0.0113
16 2 10 -3.3761 -0.0011
16 2 11 1.0069 0.1796
16 2 12 -2.3904 0.0130
16 2 13 -3.2640 -0.2492
16 2 14 0.4694 -0.2414
16 2 15 -1.1634 0.1065
16 2 16 -2.2616 0.2493
16 2 17 4.4617 0.1214
16 2 18 -1.7160 -0.1949
16 2 19 -0.0788 -0.3276
16 2 20 -4.0801 0.0308
16 3 1 27.8492 0.4852
16 3 2 18.8704 0.4564
16 3 3 -0.4564 0.0405
16 3 4 -17.8965 -0.2083
16 3 5 3.1915 0.0949
16 3 6 -0.9199 -0.2468
16 3 7 6.1594 -0.1039
16 3 8 -3.0963 0.3200
16 3 9 5.2433 -0.0439
16 3 10 -4.7738 0.0660
16 3 11 -4.1627 0.1262
16 3 12 -6.4002 -0.2373
16 3 13 0.6561 -0.0645
16 3 14 2.6427 0.0789
16 3 15 -0.4607 0.1668
16 3 16 -0.6300 0.0644
16 3 17 0.6137 -0.0694
16 3 18 -0.0123 0.0106
16 3 19 -0.1136 0.0067
16 3 20 5.3781 0.1130
16 4 0 42.4459 -0.6086
16 4 1 5.2510 -0.7799
16 4 2 3.9220 0.0970
16 4 3 -22.1956 -0.5825
16 4 4 1.8393 0.7812
16 4 5 8.5708 0.1162
16 4 6 17.1037 1.0070
16 4 7 -4.3859 -0.8967
16 4 8 -5.5882 -0.3355
16 4 9 -2.3393 -0.7399
16 4 10 1.2607 0.7880
16 4 11 0.1470 0.2238
16 4 12 -1.3518 0.5259
16 4 13 5.0287 -0.7309
16 4 14 4.0476 -0.1778
16 4 15 7.9567 -0.3929
16 4 16 5.0552 0.7454
16 4 17 -0.0952 0.1253
16 4 18 -2.0637 0.1077
16 4 19 -1.6307 -0.6164
16 4 20 -0.5627 -0.0936
16 5 1 17.9428 -0.4141
16 5 2 15.9696 0.3868
16 5 3 5.5342 0.1980
16 5 4 -8.7943 0.3202
16 5 5 -11.2147 -0.0319
16 5 6 3.9003 -0.2839
16 5 7 7.2630 -0.1859
16 5 8 9.9165 -0.1092
16 5 9 -0.0987 0.3883
16 5 10 2.6539 0.1946
16 5 11 -3.3020 -0.0392
16 5 12 0.6641 -0.2420
16 5 13 -2.6730 -0.1597
16 5 14 -4.8234 0.0033
16 5 15 -7.5499 0.2797
16 5 16 -5.3522 0.0606
16 5 17 -3.0913 -0.0941
16 5 18 -0.2593 -0.1504
16 5 19 -3.0850 0.0593
16 5 20 -4.6679 0.0961
16 6 0 28.7729 -0.3579
16 6 1 14.3061 -0.5417
16 6 2 -5.3301 -0.2842
16 6 3 -14.6565 -0.1768
16 6 4 8.3156 0.4467
16 6 5 6.3871 0.2134
16 6 6 7.4295 0.4188
16 6 7 -3.1941 -0.3080
16 6 8 -3.9106 -0.2801
16 6 9 1.2072 -0.5370
16 6 10 6.0875 0.3311
16 6 11 3.6409 0.1774
16 6 12 -5.2508 0.2738
16 6 13 -9.0087 -0.1835
16 6 14 2.9312 -0.1412
16 6 15 7.7994 -0.2053
16 6 16 9.8289 0.2014
16 6 17 0.2696 0.1609
16 6 18 -2.3758 0.1113
16 6 19 -2.9408 -0.1218
16 6 20 3.1457 -0.0842
16 7 1 7.0740 0.0035
16 7 2 6.4278 -0.0470
16 7 3 -9.8291 0.0042
16 7 4 -5.0514 0.1852
16 7 5 2.7096 0.0324
16 7 6 2.4754 0.0304
16 7 7 1.5913 -0.0702
16 7 8 -1.2230 -0.2283
16 7 9 4.6296 0.0749
16 7 10 -0.7890 0.0888
16 7 11 3.8389 0.1302
16 7 12 -0.2568 -0.1094
16 7 13 3.2701 -0.0680
16 7 14 -4.7430 -0.0325
16 7 15 -1.6911 0.0941
16 7 16 -3.4941 -0.0114
16 7 17 -2.6338 -0.0287
16 7 18 -3.8078 -0.1044
16 7 19 -1.1240 0.0225
16 7 20 -3.6025 0.1389
16 8 0 20.0503 -0.0312
16 8 1 5.7299 -0.1451
16 8 2 5.2518 -0.2359
16 8 3 -14.7324 0.4694
16 8 4 -14.5194 0.0651
16 8 5 -4.8093 0.1431
16 8 6 0.7888 -0.3401
16 8 7 -0.8841 0.1423
16 8 8 -3.6269 -0.0588
16 8 9 -1.0197 0.0877
16 8 10 2.0650 -0.3020
16 8 11 7.3771 0.0188
16 8 12 5.7471 -0.0034
16 8 13 3.3932 0.2411
16 8 14 -6.2299 -0.0197
16 8 15 -4.0585 0.0144
16 8 16 -4.3005 -0.3231
16 8 17 -3.2818 0.1735
16 8 18 -3.3859 0.1271
16 8 19 -1.5094 0.2388
16 8 20 -0.7977 0.0235
16 9 1 7.3813 0.0703
16 9 2 -0.0113 -0.1201
16 9 3 3.1778 -0.0550
16 9 4 -3.6498 -0.0262
16 9 5 -0.9877 0.0271
16 9 6 -0.7622 0.1543
16 9 7 -0.0804 -0.0298
16 9 8 4.6540 -0.0501
16 9 9 0.9651 -0.1399
16 9 10 1.4732 -0.0665
16 9 11 -2.3241 0.0912
16 9 12 1.6717 -0.0034
16 9 13 -2.3692 0.0989
16 9 14 3.4035 0.0758
16 9 15 -2.3488 -0.1192
16 9 16 -0.9532 -0.0654
16 9 17 -2.0704 -0.0194
16 9 18 -2.4734 -0.0275
16 9 19 -1.3075 0.0310
16 10 0 8.1371 0.3065
16 10 1 6.1442 0.0317
16 10 2 -2.5506 0.0078
16 10 3 -1.7856 0.5579
16 10 4 3.1857 0.0707
16 10 5 0.0296 -0.0235
16 10 6 1.5085 -0.5438
16 10 7 -1.3274 0.1949
16 10 8 0.0007 0.0498
16 10 9 1.8057 0.2870
16 10 10 -4.0030 -0.2930
16 10 11 -3.4254 -0.0883
16 10 12 0.9608 -0.1268
16 10 13 3.8839 0.3293
16 10 14 7.6323 0.0153
16 10 15 -1.9660 -0.0310
16 10 16 -1.9092 -0.2541
16 10 17 -3.6055 0.0261
16 10 18 0.7695 0.1934
16 10 19 -0.7111 0.2475
16 11 1 -5.2650 0.1895
16 11 2 -3.2795 -0.0172
16 11 3 -0.6170 -0.1156
16 11 4 4.4557 -0.0894
16 11 5 3.3930 0.0567
16 11 6 -0.7185 0.0906
16 11 7 -3.1878 -0.0079
16 11 8 -0.3331 -0.0095
16 11 9 -1.9184 -0.0910
16 11 10 1.3948 -0.0615
16 11 11 1.5386 -0.0778
16 11 12 4.9408 0.1024
16 11 13 8.4668 0.0820
16 11 14 -0.0780 0.0722
16 11 15 1.8927 -0.0681
16 11 16 -4.0253 -0.0508
16 11 17 -2.8214 -0.0931
16 11 18 -1.6917 0.1849
16 11 19 0.5111 -0.0690
16 12 0 8.0520 0.2809
16 12 1 -4.5417 0.0420
16 12 2 9.9740 0.2165
16 12 3 -4.5689 0.2405
16 12 4 4.3335 0.1624
16 12 5 -1.3864 -0.1515
16 12 6 3.6210 -0.1729
16 12 7 -0.6872 -0.0820
16 12 8 0.1615 0.1800
16 12 9 -4.3221 0.0618
16 12 10 1.8493 -0.0330
16 12 11 2.8243 -0.0796
16 12 12 4.2720 0.0193
16 12 13 -1.1119 0.0817
16 12 14 -4.5628 0.0707
16 12 15 -5.2792 -0.0925
16 12 16 -2.4359 -0.0415
16 12 17 -1.0533 -0.0689
16 12 18 2.2928 0.0700
16 12 19 2.2324 -0.0503
16 13 1 -3.3711 0.0399
16 13 2 -7.5239 0.0902
16 13 3 -5.6908 -0.0685
16 13 4 -2.6831 -0.0181
16 13 5 -1.6504 0.1090
16 13 6 -2.1921 0.0360
16 13 7 -4.7650 -0.0512
16 13 8 -3.1895 -0.1130
16 13 9 3.1620 0.0556
16 13 10 0.6013 0.0432
16 13 11 -0.3847 -0.0543
16 13 12 -2.0372 -0.0552
16 13 13 -0.3805 0.0167
16 13 14 2.0399 0.1037
16 13 15 1.9586 -0.0355
16 13 16 3.9520 -0.0646
16 13 17 -0.0403 0.0386
16 13 18 -0.3896 0.0888
16 14 0 -4.7396 0.0154
16 14 1 4.9993 0.0321
16 14 2 -1.4891 -0.0523
16 14 3 4.7617 0.1475
16 14 4 -9.9005 0.1431
16 14 5 -5.2051 0.0059
16 14 6 -7.9317 -0.0140
16 14 7 0.2378 -0.1054
16 14 8 -7.7568 0.0241
16 14 9 1.7370 -0.0167
16 14 10 2.6433 0.0976
16 14 11 6.5335 -0.0275
16 14 12 0.0886 0.1196
16 14 13 1.7073 -0.0181
16 14 14 0.9505 0.0547
16 14 15 0.7898 -0.0568
16 14 16 -2.8110 0.0579
16 14 17 -0.3375 -0.0785
16 14 18 0.2974 -0.1189
16 15 1 -9.6862 -0.1742
16 15 2 -7.3727 0.0859
16 15 3 1.1000 0.0555
16 15 4 3.9970 0.2261
16 15 5 0.1002 -0.0663
16 15 6 -7.1714 0.0787
16 15 7 -3.8577 -0.0815
16 15 8 1.9472 -0.0798
16 15 9 -3.6165 0.0060
16 15 10 -1.5863 0.1173
16 15 11 2.0001 0.0448
16 15 12 0.7853 -0.0924
16 15 13 -2.7632 -0.0801
16 15 14 -2.6830 -0.0187
16 15 15 1.6549 -0.0070
16 15 16 -1.6791 0.0356
16 15 17 -2.1405 0.0855
16 15 18 -3.5883 0.0901
16 16 0 -4.1166 -0.2016
16 16 1 -6.7246 0.0578
16 16 2 5.5761 -0.1955
16 16 3 -4.7994 0.2877
16 16 4 2.6644 -0.1070
16 16 5 -2.0616 0.1628
16 16 6 4.7333 -0.1339
16 16 7 -4.4281 0.1203
16 16 8 3.9354 -0.0813
16 16 9 0.7900 0.0105
16 16 10 -0.5181 0.0120
16 16 11 -5.7085 0.0569
16 16 12 -0.4916 0.0116
16 16 13 -1.3826 0.0982
16 16 14 4.8382 0.0043
16 16 15 -0.5442 0.0811
16 16 16 5.1188 -0.0306
16 16 17 4.2568 0.1241
16 17 1 -3.5174 -0.3251
16 17 2 -2.8733 -0.0214
16 17 3 3.8630 0.1718
16 17 4 7.6782 0.1874
16 17 5 -1.2362 -0.1118
16 17 6 0.2223 0.1266
16 17 7 -4.7008 0.0181
16 17 8 -2.1892 0.0269
16 17 9 -1.0912 -0.1554
16 17 10 1.1800 -0.0283
16 17 11 0.6251 0.1416
16 17 12 3.0789 0.0408
16 17 13 0.9228 -0.0479
16 17 14 -1.3589 -0.0932
16 17 15 0.3693 -0.1243
16 17 16 4.1399 -0.0317
16 17 17 2.2730 0.2163
16 18 0 -7.8733 0.1386
16 18 1 -5.5264 0.1061
16 18 2 1.8369 -0.0963
16 18 3 5.1250 0.3413
16 18 4 0.2996 -0.1747
16 18 5 0.1383 0.0316
16 18 6 -1.1992 -0.2193
16 18 7 2.4806 0.1570
16 18 8 -0.6543 0.0390
16 18 9 0.7195 0.1538
16 18 10 0.1138 -0.1755
16 18 11 -3.5283 0.0088
16 18 12 -1.2389 -0.0893
16 18 13 -0.3349 0.2766
16 18 14 -1.1717 -0.0296
16 18 15 -0.2971 0.1515
16 18 16 2.9496 -0.1440
16 19 1 1.7727 -0.1989
16 19 2 0.1841 -0.1770
16 19 3 -0.7591 -0.0421
16 19 4 -3.2740 0.0110
16 19 5 5.6946 0.1443
16 19 6 -1.0279 0.1505
16 19 7 -0.0122 -0.0045
16 19 8 -5.0107 -0.0053
16 19 9 -5.6847 -0.1197
16 19 10 -5.0289 -0.0493
16 19 11 0.3965 0.0094
16 19 12 -0.6129 0.0999
16 19 13 -0.5445 0.0873
16 19 14 -2.1165 -0.0194
16 19 15 1.0798 -0.1182
16 19 16 0.2506 -0.1465
16 20 0 -2.0230 0.1680
16 20 1 1.0203 0.2781
16 20 2 -1.8896 0.0865
16 20 3 1.4436 0.2239
16 20 4 1.7202 -0.0837
16 20 5 1.8173 -0.0771
16 20 6 -3.1967 -0.2907
16 20 7 0.0893 0.1445
16 20 8 -1.4177 0.0528
16 20 9 1.3024 0.1942
16 20 10 -3.0537 -0.1601
16 20 11 0.6699 0.0270
16 20 12 -3.5350 -0.1285
16 20 13 -1.5627 0.1564
16 20 14 -0.9429 0.0827
16 20 15 1.7715 0.1405
16 21 1 2.0849 -0.1490
16 21 2 0.6999 -0.1710
16 21 3 -1.7423 -0.1399
16 21 4 2.2893 0.0710
16 21 5 -2.1411 0.1182
16 21 6 -0.2587 0.0175
16 21 7 -1.4464 -0.0409
16 21 8 4.6180 -0.0709
16 21 9 1.8279 0.0415
16 21 10 -1.6422 0.0886
16 21 11 -2.8481 -0.0513
16 21 12 -0.2783 0.0466
16 21 13 1.0355 -0.1078
16 21 14 1.8776 0.1533
16 22 0 -4.6224 0.0530
16 22 1 -7.9774 0.0699
16 22 2 4.0310 0.1163
16 22 3 2.0700 0.1009
16 22 4 2.8358 0.0608
16 22 5 -0.7444 -0.0470
16 22 6 6.5205 -0.0922
16 22 7 4.8836 -0.0823
16 22 8 3.2618 -0.0240
16 22 9 -3.7840 0.0143
16 22 10 -1.3225 0.1231
16 22 11 -0.5956 -0.0103
16 22 12 5.4708 0.1519
16 22 13 0.4261 -0.1198
16 22 14 0.7828 0.0126
16 23 1 0.8916 -0.2226
16 23 2 0.3591 -0.0796
16 23 3 2.3292 0.0235
16 23 4 0.5933 0.2260
16 23 5 0.4364 -0.0588
16 23 6 -0.5753 -0.0819
16 23 7 -1.8803 -0.1815
16 23 8 -0.4091 -0.0260
16 23 9 3.3370 0.1594
16 23 10 4.9209 0.1411
16 23 11 -0.4626 0.1581
16 23 12 -0.9595 -0.2103
16 23 13 -3.3423 -0.0107
16 24 0 -1.6143 -0.0254
16 24 1 6.2182 -0.0703
16 24 2 1.7986 -0.1168
16 24 3 2.8155 -0.0551
16 24 4 -1.6920 0.0542
16 24 5 0.8122 0.2006
16 24 6 -0.7490 0.1337
16 24 7 -0.1296 -0.1859
16 24 8 -2.0944 -0.0895
16 24 9 -1.1166 -0.1195
16 24 10 -1.5310 0.1323
16 24 11 2.1847 0.0531
16 24 12 0.8011 0.0065
16 25 1 -0.9651 -0.1078
16 25 2 1.3393 -0.1553
16 25 3 -1.3670 0.0258
16 25 4 0.0342 0.2852
16 25 5 -0.7831 0.0278
16 25 6 -0.8563 -0.0945
16 25 7 2.3737 -0.0908
16 25 8 2.9104 -0.0654
16 25 9 2.2205 0.0310
16 25 10 -2.3195 0.0105
16 25 11 0.8958 0.2450
16 26 0 8.4275 -0.1596
16 26 1 5.5768 -0.2090
16 26 2 3.7176 -0.2558
16 26 3 2.3515 -0.0703
16 26 4 -1.1828 0.0420
16 26 5 1.4316 0.1438
16 26 6 -1.6026 0.2507
16 26 7 -0.8947 0.0342
16 26 8 -6.0792 -0.0059
16 26 9 -0.2050 -0.1280
16 26 10 2.7055 0.0469
16 27 1 0.9858 -0.0793
16 27 2 -1.0907 -0.1777
16 27 3 2.4414 0.0287
16 27 4 0.5356 0.1447
16 27 5 1.0332 0.2270
16 27 6 1.8726 0.0241
16 27 7 0.1478 -0.1537
16 27 8 1.8694 0.1173
16 27 9 -1.4558 0.1022
16 28 0 12.1851 -0.3248
16 28 1 13.3599 -0.3079
16 28 2 3.0504 -0.0251
16 28 3 0.6551 -0.1648
16 28 4 0.5398 0.1632
16 28 5 0.4026 -0.1344
16 28 6 2.0502 0.2517
16 28 7 1.7255 0.2889
16 28 8 4.5125 0.1728
16 29 1 1.9879 -0.0623
16 29 2 1.4587 -0.0257
16 29 3 -1.6900 -0.1670
16 29 4 0.6147 -0.0306
16 29 5 3.0540 0.2316
16 29 6 2.4142 0.1570
16 30 0 -3.9564 -0.7177
16 30 1 -2.6244 -0.3279
16 30 2 3.1374 0.2181
16 30 3 4.1628 0.3168
17 1 0 -6.9272 -0.7104
17 1 1 4.1831 0.2463
17 1 2 -7.0675 -0.3645
17 1 3 11.6899 0.4093
17 1 4 3.8552 -0.3794
17 1 5 9.2814 0.2856
17 1 6 -2.8769 -0.4830
17 1 7 3.8908 0.4019
17 1 8 -0.2019 -0.2136
17 1 9 5.6150 0.5063
17 1 10 -6.5105 -0.4632
17 1 11 0.2131 -0.0282
17 1 12 -13.0785 -0.2770
17 1 13 -3.3169 0.3977
17 1 14 -12.9496 -0.0102
17 1 15 -4.8523 0.3324
17 1 16 1.6377 -0.2787
17 1 17 2.2870 0.0985
17 1 18 3.8713 -0.2470
17 1 19 2.9582 0.1185
17 1 20 4.2592 -0.1484
17 2 1 2.7083 -0.1949
17 2 2 1.1618 -0.9279
17 2 3 -0.2471 0.0699
17 2 4 -1.7034 0.7148
17 2 5 -1.8371 0.4039
17 2 6 7.5254 -0.1371
17 2 7 2.5191 -0.6141
17 2 8 1.3258 -0.0832
17 2 9 -3.7237 0.4491
17 2 10 2.9512 0.3489
17 2 11 -3.7024 -0.0661
17 2 12 0.7539 -0.3279
17 2 13 -6.9575 -0.4176
17 2 14 -1.2312 0.4446
17 2 15 -1.4428 0.2665
17 2 16 3.6549 -0.1369
17 2 17 6.5045 -0.2552
17 2 18 8.2185 -0.0932
17 2 19 7.2840 0.0503
17 2 20 3.2335 0.3799
17 3 0 27.4098 -0.0675
17 3 1 3.7385 0.2462
17 3 2 10.9206 -0.4839
17 3 3 -14.1736 0.2203
17 3 4 0.1155 -0.3009
17 3 5 -4.2672 0.4143
17 3 6 8.3246 -0.2561
17 3 7 1.4756 0.2652
17 3 8 3.9479 -0.2499
17 3 9 -0.9942 0.1846
17 3 10 3.7850 -0.2873
17 3 11 -2.2088 0.2525
17 3 12 4.4568 -0.2975
17 3 13 2.3281 0.1932
17 3 14 7.5854 -0.0517
17 3 15 0.3841 0.1453
17 3 16 -2.9259 -0.0515
17 3 17 0.1699 0.1566
17 3 18 2.4662 -0.1770
17 3 19 0.7098 0.0075
17 3 20 0.9423 -0.1218
17 4 1 10.1879 -0.1592
17 4 2 17.5759 -0.2721
17 4 3 11.8495 0.3102
17 4 4 -7.4513 0.0004
17 4 5 -6.9576 0.2286
17 4 6 -11.0364 -0.0288
17 4 7 6.1609 -0.2419
17 4 8 -2.0258 -0.0155
17 4 9 1.7179 0.0824
17 4 10 -4.9480 0.3311
17 4 11 1.4610 -0.0493
17 4 12 -7.7540 -0.2166
17 4 13 -0.3505 -0.1789
17 4 14 -1.8168 0.0580
17 4 15 2.3242 0.2008
17 4 16 1.7097 0.2316
17 4 17 -0.2647 -0.2609
17 4 18 -6.6448 -0.1172
17 4 19 -8.7449 -0.0423
17 4 20 -3.4096 0.2290
17 5 0 3.9320 -0.1750
17 5 1 13.9903 -0.5446
17 5 2 -9.6717 0.1902
17 5 3 -3.4631 0.0611
17 5 4 -10.9125 0.1647
17 5 5 1.3348 -0.0673
17 5 6 -6.7808 -0.0382
17 5 7 -3.2286 -0.0411
17 5 8 -6.1176 0.1455
17 5 9 4.4471 -0.0494
17 5 10 0.6892 -0.0018
17 5 11 3.7664 -0.2619
17 5 12 -0.1339 0.1269
17 5 13 2.4681 0.0320
17 5 14 1.2883 0.1211
17 5 15 2.9251 -0.1349
17 5 16 -0.6011 -0.0228
17 5 17 -0.8948 -0.0031
17 5 18 0.9208 0.2262
17 5 19 7.0282 -0.0354
17 5 20 3.8665 -0.0339
17 6 1 9.3515 0.3179
17 6 2 2.4684 0.4416
17 6 3 -3.6474 0.0154
17 6 4 -5.0085 -0.3884
17 6 5 -1.2349 -0.1910
17 6 6 5.4803 0.1281
17 6 7 -0.8682 0.4146
17 6 8 -0.5828 -0.0068
17 6 9 -0.2088 -0.2556
17 6 10 -0.1183 -0.1784
17 6 11 -0.1805 0.1142
17 6 12 2.2627 0.1634
17 6 13 0.6984 0.1102
17 6 14 4.5666 -0.1475
17 6 15 0.8499 -0.1269
17 6 16 1.6028 0.0426
17 6 17 -1.7471 0.1741
17 6 18 3.4014 0.1264
17 6 19 3.1312 -0.0027
17 6 20 1.6674 -0.0009
17 7 0 10.8532 -0.1193
17 7 1 -6.2891 -0.3571
17 7 2 -6.9234 0.1020
17 7 3 -18.1260 -0.0130
17 7 4 -2.1694 0.3938
17 7 5 1.1685 -0.3935
17 7 6 8.5188 0.1936
17 7 7 -0.4178 -0.0867
17 7 8 1.5519 0.2360
17 7 9 -2.6772 -0.1741
17 7 10 2.4803 0.0666
17 7 11 -1.2889 -0.2901
17 7 12 1.1544 0.1907
17 7 13 0.1510 -0.0513
17 7 14 2.8443 0.2010
17 7 15 0.4180 -0.2229
17 7 16 1.8981 0.0098
17 7 17 -0.4452 -0.0018
17 7 18 -1.0050 0.1420
17 7 19 -1.7517 0.0083
17 8 1 3.5815 0.8336
17 8 2 11.0102 0.5879
17 8 3 9.2809 -0.1869
17 8 4 0.4169 -0.3755
17 8 5 -6.0698 -0.2168
17 8 6 -11.0799 0.1613
17 8 7 0.4249 0.4082
17 8 8 0.7987 0.0158
17 8 9 2.0238 -0.2512
17 8 10 -1.5122 -0.3125
17 8 11 -4.2476 0.1481
17 8 12 1.4957 0.2826
17 8 13 4.0783 0.1767
17 8 14 1.1726 -0.2250
17 8 15 0.1863 -0.1684
17 8 16 -2.4782 -0.0878
17 8 17 1.6952 0.2883
17 8 18 0.1072 0.2585
17 8 19 0.7134 0.1104
17 9 0 6.2566 -0.0468
17 9 1 -2.4689 -0.1549
17 9 2 -11.6598 -0.0561
17 9 3 -5.6080 -0.0115
17 9 4 4.1683 0.0887
17 9 5 9.8403 0.0184
17 9 6 1.5278 0.0744
17 9 7 3.2466 0.0195
17 9 8 -2.6113 0.0501
17 9 9 4.5835 -0.1161
17 9 10 -0.0756 -0.0292
17 9 11 2.7717 0.0435
17 9 12 -3.4776 0.0268
17 9 13 -2.0623 -0.0210
17 9 14 -4.4351 -0.0064
17 9 15 -5.4643 -0.0427
17 9 16 -8.8304 0.0044
17 9 17 -2.9065 0.0880
17 9 18 1.7914 0.0059
17 9 19 -0.3486 -0.0282
17 10 1 2.7946 0.5289
17 10 2 2.7900 0.3475
17 10 3 12.0541 0.0408
17 10 4 0.7738 -0.0414
17 10 5 -2.8524 -0.1026
17 10 6 -10.7071 0.0581
17 10 7 -3.1524 -0.0323
17 10 8 3.8113 0.0681
17 10 9 9.5165 0.0395
17 10 10 6.5121 -0.1332
17 10 11 4.6040 0.0483
17 10 12 -0.6699 0.0457
17 10 13 2.7045 0.1506
17 10 14 7.7341 -0.1077
17 10 15 4.3443 -0.0624
17 10 16 4.5909 -0.0706
17 10 17 2.2064 0.1329
17 10 18 -1.6718 0.1064
17 10 19 -0.3390 0.2519
17 11 0 9.4213 0.0446
17 11 1 3.1828 -0.0712
17 11 2 2.7686 -0.2408
17 11 3 -9.4568 -0.0580
17 11 4 1.7937 -0.0277
17 11 5 -0.4834 0.1923
17 11 6 5.3638 0.0696
17 11 7 -2.3710 0.0795
17 11 8 4.8274 -0.0916
17 11 9 2.1434 -0.0695
17 11 10 -0.9328 -0.0747
17 11 11 -2.7212 0.1160
17 11 12 -0.5670 0.0726
17 11 13 0.6954 0.0026
17 11 14 -1.4104 -0.1227
17 11 15 -0.8042 -0.0122
17 11 16 -0.3970 0.0273
17 11 17 -3.5609 0.1334
17 11 18 -4.8357 0.0110
17 11 19 -2.7724 -0.1253
17 12 1 -2.2168 0.2390
17 12 2 -0.4077 0.0716
17 12 3 -3.1051 0.2547
17 12 4 -1.0756 0.1317
17 12 5 -5.1915 0.1157
17 12 6 -0.5728 -0.1218
17 12 7 0.6610 -0.1147
17 12 8 2.4004 -0.0559
17 12 9 1.2058 0.0919
17 12 10 3.8223 0.1406
17 12 11 1.1660 -0.0356
17 12 12 1.5080 -0.0643
17 12 13 -2.4138 0.0423
17 12 14 2.7534 0.0034
17 12 15 7.3305 -0.0688
17 12 16 2.1429 0.0477
17 12 17 -4.5832 0.0084
17 12 18 -1.2098 0.1473
17 13 0 9.3672 0.0499
17 13 1 1.1641 -0.3013
17 13 2 -4.3654 -0.0247
17 13 3 -1.5160 -0.2159
17 13 4 0.2514 0.0309
17 13 5 8.1758 0.0548
17 13 6 0.2921 0.1425
17 13 7 1.2280 0.0244
17 13 8 -6.4915 -0.0163
17 13 9 -1.2557 -0.0896
17 13 10 -2.3225 0.0172
17 13 11 0.0210 -0.0696
17 13 12 1.3931 0.0804
17 13 13 1.2003 -0.0120
17 13 14 1.2864 0.0272
17 13 15 -3.1527 -0.0097
17 13 16 -1.1421 0.0289
17 13 17 -3.2542 -0.0668
17 13 18 -3.1500 0.0901
17 14 1 -9.8617 -0.0794
17 14 2 -7.4133 -0.0895
17 14 3 3.4054 0.2518
17 14 4 -0.4996 0.0238
17 14 5 1.4417 0.2007
17 14 6 0.7736 -0.0379
17 14 7 5.3158 0.0191
17 14 8 3.0894 -0.0862
17 14 9 0.2039 -0.0622
17 14 10 -0.2981 -0.0237
17 14 11 -3.0007 0.0131
17 14 12 -2.8533 0.0956
17 14 13 0.2781 0.0315
17 14 14 5.0669 0.0198
17 14 15 4.7751 -0.1551
17 14 16 1.7561 0.0394
17 14 17 2.1107 0.1321
17 14 18 -1.9803 0.1383
17 15 0 11.5723 0.1141
17 15 1 5.7022 -0.1814
17 15 2 7.0513 -0.0268
17 15 3 -1.0668 -0.2186
17 15 4 5.5054 0.0858
17 15 5 -4.1162 -0.0999
17 15 6 1.1757 0.1734
17 15 7 -2.8208 -0.0205
17 15 8 -0.0961 0.0351
17 15 9 -2.7067 -0.1263
17 15 10 -1.9230 0.0616
17 15 11 -1.3199 -0.0585
17 15 12 -0.0001 0.0463
17 15 13 0.3161 -0.1536
17 15 14 -0.3143 0.1204
17 15 15 1.6227 -0.0231
17 15 16 -0.3644 0.0876
17 15 17 2.1146 -0.0345
17 16 1 6.1019 -0.1933
17 16 2 1.6652 -0.1505
17 16 3 -0.5948 -0.1429
17 16 4 -0.7184 0.1024
17 16 5 1.4237 0.2139
17 16 6 -1.5686 0.0552
17 16 7 -2.0186 0.0063
17 16 8 -2.9238 -0.1285
17 16 9 0.2620 0.0030
17 16 10 0.0836 -0.0885
17 16 11 -1.2115 -0.0667
17 16 12 -2.6008 -0.0070
17 16 13 -1.9273 0.1350
17 16 14 -5.6541 0.0143
17 16 15 -7.0567 0.0545
17 16 16 -2.5254 -0.0032
17 16 17 3.2107 0.0585
17 17 0 7.4105 0.1584
17 17 1 4.0196 0.1048
17 17 2 -2.4271 -0.0699
17 17 3 -3.5805 -0.1027
17 17 4 -3.5483 -0.0474
17 17 5 3.6526 -0.0353
17 17 6 -2.3567 0.0790
17 17 7 0.2456 0.0002
17 17 8 1.6335 -0.0245
17 17 9 0.8653 -0.0346
17 17 10 -3.3297 -0.0188
17 17 11 -1.6327 0.0403
17 17 12 -1.4105 -0.0244
17 17 13 -1.5818 -0.0495
17 17 14 -4.3988 -0.0928
17 17 15 -2.9907 0.0147
17 17 16 3.3094 0.1116
17 18 1 -0.4901 -0.0782
17 18 2 -1.4427 -0.1357
17 18 3 -5.4353 -0.2708
17 18 4 -3.3372 0.0737
17 18 5 0.8292 0.1076
17 18 6 4.7650 0.0761
17 18 7 -1.0143 -0.1859
17 18 8 0.4681 0.0067
17 18 9 -4.2314 0.1182
17 18 10 -1.2079 0.0053
17 18 11 -1.6273 -0.1334
17 18 12 3.9742 -0.1927
17 18 13 0.0317 0.0582
17 18 14 1.8196 0.1086
17 18 15 1.9951 0.1223
17 18 16 1.8154 0.0260
17 19 0 -1.0429 0.0510
17 19 1 -3.1415 0.2925
17 19 2 -2.7265 -0.0132
17 19 3 -4.3174 -0.0379
17 19 4 0.9723 -0.1973
17 19 5 -3.9804 0.1713
17 19 6 2.0013 -0.0802
17 19 7 -0.9898 -0.0662
17 19 8 -0.8175 -0.0094
17 19 9 2.2318 0.0149
17 19 10 1.4304 0.0507
17 19 11 -0.7244 0.0118
17 19 12 -0.1455 -0.0641
17 19 13 0.2626 -0.0619
17 19 14 2.1231 -0.0508
17 19 15 -0.1692 0.1737
17 20 1 0.6547 -0.0464
17 20 2 -2.7065 -0.2635
17 20 3 1.5871 -0.0963
17 20 4 -1.9770 0.0641
17 20 5 0.0503 0.0662
17 20 6 -5.5890 -0.0549
17 20 7 -1.2595 -0.3189
17 20 8 -1.1053 0.0297
17 20 9 2.9648 0.2136
17 20 10 1.5623 0.3143
17 20 11 -0.9823 -0.1807
17 20 12 -2.5678 -0.3361
17 20 13 -0.0855 -0.1168
17 20 14 -1.0007 0.1706
17 20 15 -0.0949 0.1534
17 21 0 -0.8030 -0.0210
17 21 1 -5.5421 0.2911
17 21 2 5.2698 0.0707
17 21 3 0.4517 0.1135
17 21 4 -1.1513 -0.1408
17 21 5 -3.1275 -0.0696
17 21 6 -3.2041 -0.0614
17 21 7 -0.5965 0.0487
17 21 8 0.0445 -0.1453
17 21 9 -2.3888 0.0887
17 21 10 -1.5038 0.0672
17 21 11 -1.1162 -0.0149
17 21 12 0.3253 -0.0716
17 21 13 -1.5683 0.0173
17 21 14 -1.5798 0.0530
17 22 1 -5.7228 -0.2594
17 22 2 -5.3549 -0.3204
17 22 3 -2.9726 0.0456
17 22 4 1.9423 0.0812
17 22 5 2.0136 0.1271
17 22 6 1.0112 -0.2199
17 22 7 -3.5995 -0.1986
17 22 8 -4.3627 -0.0315
17 22 9 -3.5516 0.1347
17 22 10 1.6855 0.3606
17 22 11 1.6414 -0.0292
17 22 12 0.2515 -0.0892
17 22 13 -2.8978 -0.2971
17 23 0 3.2143 -0.0280
17 23 1 -0.5598 0.2558
17 23 2 -2.0885 0.1356
17 23 3 -2.9663 0.1147
17 23 4 3.4888 -0.1650
17 23 5 0.5304 0.0070
17 23 6 2.7195 -0.1591
17 23 7 1.9409 -0.0045
17 23 8 1.6655 -0.0483
17 23 9 -1.0920 0.0445
17 23 10 -0.6585 -0.0429
17 23 11 0.8962 0.1263
17 23 12 -1.4547 -0.1258
17 23 13 1.0139 0.0903
17 24 1 1.2071 -0.2518
17 24 2 2.0340 -0.3059
17 24 3 2.5662 -0.0851
17 24 4 2.8755 0.1146
17 24 5 1.0999 0.0516
17 24 6 1.7828 -0.0844
17 24 7 -1.8465 -0.0623
17 24 8 0.2736 0.0538
17 24 9 -1.7063 0.0407
17 24 10 0.4651 -0.0089
17 24 11 -1.9391 0.0267
17 24 12 -0.3939 0.1057
17 25 0 3.4659 -0.1229
17 25 1 0.5940 0.2284
17 25 2 4.0413 0.1546
17 25 3 1.0076 0.0970
17 25 4 2.2510 -0.1067
17 25 5 -1.1295 -0.0830
17 25 6 1.4684 -0.0531
17 25 7 -1.4468 -0.0749
17 25 8 1.2581 -0.1157
17 25 9 1.6011 0.0481
17 25 10 -0.6217 0.0647
17 25 11 0.9248 -0.0624
17 26 1 -0.3691 -0.1077
17 26 2 -1.5771 -0.1797
17 26 3 0.5960 -0.3177
17 26 4 -3.3939 -0.0841
17 26 5 0.2979 0.1158
17 26 6 -1.8554 0.2386
17 26 7 1.8123 0.0079
17 26 8 -2.5467 -0.0147
17 26 9 0.3057 -0.0403
17 26 10 1.0576 -0.1431
17 27 0 -2.4512 -0.0341
17 27 1 -0.8414 0.2327
17 27 2 -0.7113 0.0976
17 27 3 -0.6155 0.1047
17 27 4 -0.5944 -0.1135
17 27 5 1.3077 -0.0232
17 27 6 0.8914 -0.1196
17 27 7 3.1478 -0.0320
17 27 8 0.7186 0.0483
17 28 1 4.0124 0.0087
17 28 2 3.5586 -0.1817
17 28 3 -2.9748 -0.2348
17 28 4 -0.7124 -0.1494
17 28 5 -0.9418 0.0854
17 28 6 1.4961 0.2266
17 28 7 -2.9519 0.1014
17 29 0 0.2266 0.0526
17 29 1 -0.5633 0.0962
17 29 2 1.6772 0.0397
17 29 3 0.3664 0.1193
17 29 4 -0.6747 -0.0714
17 29 5 -1.1126 -0.1567
18 0 2 23.6563 1.3067
18 0 3 1.4094 1.2262
18 0 4 20.4762 -0.2540
18 0 5 -3.2971 -0.9360
18 0 6 9.4748 -1.2905
18 0 7 -10.0021 1.0136
18 0 8 5.0748 1.0576
18 0 9 -6.6153 0.6592
18 0 10 9.7861 -0.8810
18 0 11 -9.4233 -0.8668
18 0 12 2.2269 -0.4367
18 0 13 -5.3821 0.9424
18 0 14 3.1816 0.4443
18 0 15 -2.8164 -0.0212
18 0 16 6.3468 -0.8444
18 0 17 8.2738 -0.2443
18 0 18 11.1236 0.2115
18 0 19 3.6795 0.6023
18 0 20 -3.4357 0.0039
18 1 1 1.1202 -2.1207
18 1 2 2.0289 -1.0484
18 1 3 1.0855 0.5895
18 1 4 5.1686 1.7889
18 1 5 4.4919 0.6538
18 1 6 3.8553 -1.0687
18 1 7 -7.2715 -1.2802
18 1 8 -14.0477 -0.1276
18 1 9 -8.7471 1.0236
18 1 10 3.3598 0.8626
18 1 11 9.2595 -0.1498
18 1 12 1.6006 -1.0263
18 1 13 -0.2904 -0.4805
18 1 14 -2.4296 0.3091
18 1 15 4.1839 0.8398
18 1 16 2.4618 0.2102
18 1 17 2.6214 -0.4307
18 1 18 1.7881 -0.7003
18 1 19 3.9877 -0.0306
18 1 20 5.5634 0.5317
18 2 0 -38.7294 -0.8270
18 2 1 8.8855 0.4012
18 2 2 -23.8706 0.5560
18 2 3 18.7576 0.0198
18 2 4 -17.6147 0.1414
18 2 5 6.0052 0.1742
18 2 6 -16.3796 -0.0728
18 2 7 7.5200 0.0532
18 2 8 -4.2746 -0.1487
18 2 9 5.5204 0.0738
18 2 10 -3.8595 0.0441
18 2 11 5.5381 0.0768
18 2 12 -5.1931 -0.0200
18 2 13 0.7078 -0.0924
18 2 14 0.4696 -0.1038
18 2 15 5.2051 0.0148
18 2 16 -1.2068 -0.0609
18 2 17 4.0835 0.1830
18 2 18 1.6023 0.0029
18 2 19 -1.3287 -0.2336
18 2 20 -2.7282 -0.0728
18 3 1 -9.9434 -0.5843
18 3 2 -6.2696 -0.5808
18 3 3 -8.8992 -0.2857
18 3 4 -3.1666 0.3817
18 3 5 -2.1125 0.3439
18 3 6 4.1889 0.1183
18 3 7 -2.3771 -0.2525
18 3 8 -1.2034 -0.0919
18 3 9 -3.5947 -0.0188
18 3 10 2.2413 -0.0290
18 3 11 -2.0961 -0.0754
18 3 12 0.9793 0.0807
18 3 13 -4.5629 0.0059
18 3 14 1.4853 0.0209
18 3 15 -2.9784 -0.0052
18 3 16 -0.9109 -0.0766
18 3 17 1.0133 -0.0454
18 3 18 0.3474 0.0348
18 3 19 2.3089 0.1804
18 3 20 0.2954 0.0904
18 4 0 3.8258 -0.1517
18 4 1 -16.9296 -0.4695
18 4 2 15.5725 -0.3901
18 4 3 3.0149 0.1137
18 4 4 17.1814 0.1533
18 4 5 -2.1999 0.4008
18 4 6 0.2182 0.6339
18 4 7 -12.5300 -0.4697
18 4 8 0.6984 -0.4454
18 4 9 -3.8061 -0.1798
18 4 10 5.7142 0.2574
18 4 11 -3.2685 0.3897
18 4 12 1.7350 0.1609
18 4 13 -1.8630 -0.2744
18 4 14 -0.3203 -0.2817
18 4 15 3.1498 -0.1581
18 4 16 0.4229 0.3734
18 4 17 -5.9393 0.2150
18 4 18 -6.0997 -0.0228
18 4 19 -1.8358 -0.3274
18 5 1 0.0005 0.2033
18 5 2 -8.1305 -0.2781
18 5 3 2.5611 -0.3805
18 5 4 2.8338 -0.3623
18 5 5 6.8320 0.1320
18 5 6 -0.9166 0.3709
18 5 7 -1.2665 0.2301
18 5 8 -0.1543 0.0445
18 5 9 1.4334 -0.3240
18 5 10 3.1546 -0.1818
18 5 11 -3.6158 -0.1102
18 5 12 -6.5068 0.2028
18 5 13 -6.3418 0.1343
18 5 14 -3.6402 0.0524
18 5 15 4.4496 -0.1919
18 5 16 1.3140 -0.0465
18 5 17 0.9564 -0.0517
18 5 18 -0.4786 0.0837
18 5 19 4.6658 0.0600
18 6 0 -4.1471 -0.1451
18 6 1 20.5365 -0.3735
18 6 2 -15.0595 -0.3390
18 6 3 4.9649 -0.0394
18 6 4 -13.7662 0.2766
18 6 5 -5.7291 0.3307
18 6 6 -12.4391 0.0820
18 6 7 4.5226 0.0244
18 6 8 2.5658 -0.2469
18 6 9 6.0436 -0.2780
18 6 10 -3.8640 0.1817
18 6 11 -0.5451 0.1668
18 6 12 -4.2751 0.0782
18 6 13 -0.0080 0.0314
18 6 14 3.4246 -0.1814
18 6 15 3.3379 -0.1127
18 6 16 1.2357 0.1842
18 6 17 -1.4249 0.1598
18 6 18 -2.5902 0.0392
18 6 19 -1.1626 -0.1682
18 7 1 -8.1120 0.2302
18 7 2 -0.1702 -0.2036
18 7 3 -7.0178 -0.1727
18 7 4 4.4040 -0.1924
18 7 5 -0.1173 0.0777
18 7 6 2.0695 0.0258
18 7 7 -1.5909 0.1008
18 7 8 -2.6375 0.0997
18 7 9 4.0494 0.0870
18 7 10 -3.1291 -0.0028
18 7 11 -0.1179 -0.1952
18 7 12 -7.6005 -0.0755
18 7 13 -0.2256 0.0281
18 7 14 -2.5425 0.1606
18 7 15 -3.8574 0.0545
18 7 16 -3.2993 -0.0893
18 7 17 -4.4757 -0.1793
18 7 18 -1.3818 -0.0600
18 7 19 -3.7614 0.0515
18 8 0 9.4405 0.1293
18 8 1 4.6344 -0.0697
18 8 2 11.0915 -0.0992
18 8 3 5.0588 0.0249
18 8 4 1.4594 0.0954
18 8 5 -0.5161 0.0887
18 8 6 -4.5203 -0.0485
18 8 7 -9.1997 0.1035
18 8 8 -2.4317 0.0363
18 8 9 -4.8654 -0.0292
18 8 10 7.2737 -0.1711
18 8 11 -0.9701 -0.0125
18 8 12 3.0290 0.1456
18 8 13 -0.8254 -0.0101
18 8 14 -0.4019 0.0744
18 8 15 1.5177 0.0282
18 8 16 -1.3881 -0.1162
18 8 17 -0.2964 0.1450
18 8 18 -3.5519 0.0526
18 8 19 0.0001 -0.1430
18 9 1 -4.7070 0.0030
18 9 2 -7.0930 -0.1374
18 9 3 0.2391 0.0411
18 9 4 1.3473 0.0385
18 9 5 0.6270 0.0446
18 9 6 -0.0307 -0.1105
18 9 7 -1.9535 -0.1054
18 9 8 0.1366 0.0734
18 9 9 -2.6598 0.2476
18 9 10 0.6115 0.1725
18 9 11 -5.1019 -0.1033
18 9 12 0.9880 -0.1875
18 9 13 -0.3677 -0.0080
18 9 14 7.2259 0.0773
18 9 15 2.5815 0.0789
18 9 16 -0.9333 -0.0515
18 9 17 -0.3036 -0.0778
18 9 18 -1.7872 -0.0983
18 9 19 -1.9204 -0.0511
18 10 0 -6.5664 0.1527
18 10 1 12.3089 0.1273
18 10 2 -1.2087 0.0906
18 10 3 14.4716 -0.0067
18 10 4 -0.6759 0.1083
18 10 5 2.5690 -0.1056
18 10 6 -7.7716 -0.0598
18 10 7 -0.0206 0.0460
18 10 8 -0.1080 0.1251
18 10 9 5.8456 0.0698
18 10 10 -4.3762 -0.1235
18 10 11 -0.7503 -0.0705
18 10 12 -0.6613 -0.0070
18 10 13 -0.1702 0.1312
18 10 14 -3.1532 0.0013
18 10 15 -3.8369 0.0265
18 10 16 -3.2163 0.0154
18 10 17 -2.4641 0.0096
18 10 18 0.9785 -0.0410
18 11 1 -0.7399 -0.1123
18 11 2 -0.4667 0.0850
18 11 3 0.8977 -0.0239
18 11 4 -0.9807 0.0759
18 11 5 3.9093 -0.0185
18 11 6 -3.1222 0.0262
18 11 7 -2.8954 -0.0710
18 11 8 -7.8307 0.0315
18 11 9 0.9342 0.0862
18 11 10 3.9273 0.0730
18 11 11 6.5097 0.0357
18 11 12 0.6809 -0.0208
18 11 13 -1.1334 0.0757
18 11 14 -3.7178 -0.0921
18 11 15 -0.1024 -0.0520
18 11 16 2.2486 0.0002
18 11 17 1.6493 0.1853
18 11 18 -4.8465 -0.0972
18 12 0 4.6000 0.2560
18 12 1 -8.4225 0.0305
18 12 2 4.1324 0.1097
18 12 3 -6.2005 0.0793
18 12 4 6.9496 -0.0505
18 12 5 -5.5733 -0.0488
18 12 6 4.8030 0.0265
18 12 7 -2.6031 0.0016
18 12 8 4.9581 0.0187
18 12 9 -5.1435 0.0687
18 12 10 1.0730 -0.0501
18 12 11 -2.1725 0.0555
18 12 12 -1.4062 -0.0224
18 12 13 1.5996 0.0254
18 12 14 0.4194 0.0256
18 12 15 -0.4008 0.0113
18 12 16 -3.6330 0.0180
18 12 17 0.1262 -0.1012
18 12 18 2.3163 -0.0795
18 13 1 0.9538 0.0853
18 13 2 3.0626 -0.0130
18 13 3 2.3022 -0.0616
18 13 4 4.4458 0.0300
18 13 5 -4.5457 0.0836
18 13 6 -2.6336 0.0683
18 13 7 -3.3315 -0.0088
18 13 8 1.3082 0.0127
18 13 9 5.6862 -0.0399
18 13 10 3.8487 -0.0275
18 13 11 0.6706 0.0075
18 13 12 0.3784 0.1231
18 13 13 5.7215 0.1003
18 13 14 8.6789 -0.0971
18 13 15 4.0358 -0.0395
18 13 16 0.4489 -0.0150
18 13 17 -4.8553 0.2182
18 13 18 -2.0099 0.1176
18 14 0 -12.7234 0.1468
18 14 1 4.7355 -0.0025
18 14 2 -6.8434 0.1201
18 14 3 10.9622 -0.1296
18 14 4 -10.1162 0.0548
18 14 5 3.3783 -0.0228
18 14 6 -5.4868 0.1399
18 14 7 11.1958 0.0000
18 14 8 -1.5097 -0.0076
18 14 9 1.3397 -0.1395
18 14 10 -3.8676 0.1381
18 14 11 -0.8921 0.0105
18 14 12 -1.9048 0.0921
18 14 13 1.8536 -0.0149
18 14 14 0.6660 0.0597
18 14 15 1.5547 -0.0300
18 14 16 -2.1979 -0.0368
18 14 17 1.5612 -0.1842
18 15 1 -4.5897 0.2703
18 15 2 -2.5254 -0.0650
18 15 3 -0.4136 0.0124
18 15 4 8.4651 -0.1255
18 15 5 17.3993 0.2418
18 15 6 9.9316 0.0226
18 15 7 3.5311 0.0208
18 15 8 -0.2278 -0.0276
18 15 9 -0.7943 -0.0184
18 15 10 -0.2072 -0.0405
18 15 11 -0.2457 -0.1019
18 15 12 2.3048 0.1193
18 15 13 1.1279 0.1240
18 15 14 3.8711 0.0616
18 15 15 -0.1323 -0.1949
18 15 16 -1.1214 0.0878
18 15 17 2.9351 0.1318
18 16 0 -3.5415 0.2082
18 16 1 -2.8408 0.0271
18 16 2 16.1786 0.1016
18 16 3 1.0460 -0.1686
18 16 4 6.1580 0.0917
18 16 5 -4.8429 -0.0305
18 16 6 8.5274 0.1359
18 16 7 -3.3538 -0.0141
18 16 8 6.7106 0.0604
18 16 9 -0.4804 -0.0633
18 16 10 -1.4842 0.0746
18 16 11 -1.9864 -0.0922
18 16 12 2.4202 0.1324
18 16 13 0.6242 -0.0168
18 16 14 -0.1429 0.1877
18 16 15 -1.8000 -0.0559
18 16 16 0.7303 -0.0635
18 17 1 1.4020 0.2714
18 17 2 2.3138 -0.0931
18 17 3 4.7130 0.0261
18 17 4 0.3921 0.0694
18 17 5 -10.7074 0.2641
18 17 6 -3.8789 -0.0352
18 17 7 1.5148 -0.1492
18 17 8 2.1390 -0.1042
18 17 9 0.3554 0.1548
18 17 10 -2.3696 0.0989
18 17 11 -0.0854 -0.1145
18 17 12 -0.0894 -0.0976
18 17 13 -1.3170 0.0803
18 17 14 -4.9731 0.1439
18 17 15 -0.8395 -0.0144
18 17 16 2.9504 -0.1355
18 18 0 -1.8007 0.1574
18 18 1 -2.2137 0.0780
18 18 2 -6.4457 0.2496
18 18 3 2.6080 -0.1122
18 18 4 -3.4950 0.0146
18 18 5 -0.1337 -0.0920
18 18 6 -3.8043 0.0127
18 18 7 3.8609 0.0312
18 18 8 -0.4175 0.1602
18 18 9 -2.4372 0.1854
18 18 10 0.6391 -0.1800
18 18 11 -3.4987 -0.0753
18 18 12 -4.2522 -0.0807
18 18 13 -0.9054 0.1669
18 18 14 -0.0353 0.1450
18 18 15 3.8000 0.1869
18 19 1 -5.6807 0.0224
18 19 2 -2.4219 -0.0335
18 19 3 -1.7296 0.1076
18 19 4 0.3473 0.2130
18 19 5 1.9436 0.2193
18 19 6 -2.4346 -0.1068
18 19 7 -1.6493 -0.1723
18 19 8 -1.5772 -0.1248
18 19 9 -1.6878 0.1789
18 19 10 -0.2746 0.0871
18 19 11 -1.2748 0.0110
18 19 12 -0.8594 -0.1295
18 19 13 -3.5779 0.0706
18 19 14 -0.0360 0.0190
18 19 15 0.8852 -0.0780
18 20 0 0.6554 0.5393
18 20 1 10.1651 0.1481
18 20 2 3.4800 0.0710
18 20 3 4.7771 0.0186
18 20 4 -0.0962 -0.0946
18 20 5 -1.2189 -0.0971
18 20 6 -3.2544 -0.0296
18 20 7 -3.3355 0.1781
18 20 8 -3.2361 0.0601
18 20 9 -0.0144 0.0626
18 20 10 -4.1790 -0.0661
18 20 11 1.9215 0.0444
18 20 12 -1.0202 -0.1410
18 20 13 1.3310 0.0546
18 20 14 -1.6759 -0.0157
18 21 1 4.8711 -0.1946
18 21 2 2.5563 -0.0680
18 21 3 0.8464 0.0921
18 21 4 -0.4320 0.2375
18 21 5 0.5023 0.1359
18 21 6 1.5553 0.0149
18 21 7 1.1602 -0.1232
18 21 8 -0.8995 0.0007
18 21 9 -3.4286 -0.0511
18 21 10 -3.6456 0.0166
18 21 11 1.1139 0.0108
18 21 12 -1.6204 0.0860
18 21 13 -1.2883 0.0026
18 21 14 -3.3103 -0.1049
18 22 0 2.5783 -0.1899
18 22 1 -4.9726 0.1084
18 22 2 1.6089 -0.0047
18 22 3 -1.3655 -0.1497
18 22 4 1.1098 -0.0013
18 22 5 -1.8370 0.0964
18 22 6 0.9993 0.0695
18 22 7 -0.2047 0.0144
18 22 8 1.1199 -0.0596
18 22 9 -4.4257 -0.0605
18 22 10 1.1478 0.0779
18 22 11 -0.6716 0.0358
18 22 12 2.5206 0.2274
18 22 13 -1.1141 -0.2277
18 23 1 -1.8097 -0.1252
18 23 2 -0.0946 -0.1332
18 23 3 0.2310 0.0432
18 23 4 -1.9181 0.0239
18 23 5 -2.7643 0.1434
18 23 6 0.9673 0.1166
18 23 7 3.3114 0.1070
18 23 8 0.1603 0.0483
18 23 9 1.5084 -0.2115
18 23 10 0.9921 -0.0571
18 23 11 -1.9445 -0.0949
18 23 12 1.5254 0.1274
18 24 0 -3.4076 0.0441
18 24 1 1.7167 -0.2564
18 24 2 3.6002 -0.2529
18 24 3 1.3816 -0.2019
18 24 4 -3.2804 0.0628
18 24 5 -4.6556 0.2152
18 24 6 -1.0509 0.1794
18 24 7 1.9359 -0.0331
18 24 8 3.8971 -0.0597
18 24 9 3.0001 -0.0753
18 24 10 -1.5157 -0.0969
18 24 11 -1.9357 0.1321
18 25 1 -3.9381 0.0701
18 25 2 -1.2527 -0.0927
18 25 3 -1.2077 0.0107
18 25 4 3.5151 -0.0124
18 25 5 0.5666 0.0168
18 25 6 -0.3687 0.1167
18 25 7 -1.3316 0.1918
18 25 8 2.6869 0.0653
18 25 9 3.2998 -0.0045
18 25 10 2.2886 -0.0981
18 26 0 -1.8858 -0.1856
18 26 1 -4.3792 -0.2344
18 26 2 1.7765 -0.2983
18 26 3 0.0080 -0.1604
18 26 4 -1.1772 0.0108
18 26 5 -3.0398 0.1670
18 26 6 -0.0900 0.2122
18 26 7 0.8746 0.0417
18 26 8 -0.3544 0.0185
18 26 9 -1.4697 0.0151
18 27 1 -4.4014 -0.0336
18 27 2 -7.9178 0.0240
18 27 3 -1.3520 0.1751
18 27 4 -2.1205 0.0633
18 27 5 0.8945 0.0476
18 27 6 -1.8008 -0.0512
18 27 7 1.7884 -0.1509
18 27 8 2.1813 0.1483
18 28 0 -6.3918 -0.3329
18 28 1 -2.4690 -0.3303
18 28 2 -1.4575 0.0035
18 28 3 -0.8545 0.0076
18 28 4 -0.1025 0.0256
18 28 5 -2.0813 -0.2361
18 28 6 1.8682 0.1993
18 29 1 1.6444 -0.2329
18 29 2 2.9998 0.0806
18 29 3 0.7610 0.1476
19 1 0 -9.7175 -0.7237
19 1 1 -20.9499 -0.2194
19 1 2 4.4370 -0.4146
19 1 3 -13.1043 0.0383
19 1 4 5.5320 -0.7905
19 1 5 -16.5991 0.4940
19 1 6 11.2372 -0.4395
19 1 7 -6.0326 0.3754
19 1 8 6.5152 -0.1449
19 1 9 -7.1150 0.4740
19 1 10 -2.4343 -0.4910
19 1 11 -5.9536 0.1078
19 1 12 -2.4354 -0.2706
19 1 13 -1.4440 0.4582
19 1 14 2.8417 -0.1720
19 1 15 -4.0826 0.2671
19 1 16 3.9210 -0.3711
19 1 17 -1.1198 0.0759
19 1 18 2.7013 -0.1526
19 1 19 1.5533 0.2548
19 2 1 4.3963 0.1838
19 2 2 5.3482 0.0939
19 2 3 7.9495 -0.0034
19 2 4 9.9392 -0.2111
19 2 5 2.9958 -0.0273
19 2 6 1.8769 0.1197
19 2 7 -6.2629 0.0679
19 2 8 0.7125 -0.0078
19 2 9 4.1820 0.1053
19 2 10 1.8197 -0.2975
19 2 11 -2.5036 0.1613
19 2 12 -0.2926 0.1228
19 2 13 3.4735 -0.1652
19 2 14 0.1951 -0.1573
19 2 15 1.9214 0.0018
19 2 16 3.5016 -0.0289
19 2 17 1.8537 0.2585
19 2 18 -6.6616 0.0518
19 2 19 -6.2263 -0.0342
19 3 0 2.3217 0.2160
19 3 1 12.8755 -0.1534
19 3 2 -17.5037 -0.6342
19 3 3 -0.7963 -0.3312
19 3 4 -11.5532 -0.4851
19 3 5 12.3876 0.5338
19 3 6 -10.8948 0.0664
19 3 7 -3.6590 0.3631
19 3 8 -10.6756 -0.7937
19 3 9 3.1881 0.1331
19 3 10 4.1375 0.0189
19 3 11 2.6611 0.4831
19 3 12 -0.7842 -0.1954
19 3 13 -0.7657 -0.0592
19 3 14 -2.4154 -0.5086
19 3 15 2.0437 0.3268
19 3 16 -1.8662 0.0985
19 3 17 4.0169 0.2437
19 3 18 3.3463 -0.2446
19 3 19 0.2899 -0.1481
19 4 1 -11.6270 -0.0091
19 4 2 -2.9439 -0.1682
19 4 3 3.0966 -0.0684
19 4 4 12.2388 -0.0330
19 4 5 6.3795 0.0027
19 4 6 -0.8777 0.1228
19 4 7 -0.1765 -0.0014
19 4 8 0.3353 -0.0358
19 4 9 -0.6890 -0.0407
19 4 10 1.5481 0.0401
19 4 11 3.9560 0.0171
19 4 12 1.5787 -0.0195
19 4 13 -0.5009 0.0336
19 4 14 -0.7748 -0.0741
19 4 15 1.4243 -0.0406
19 4 16 2.2831 0.0606
19 4 17 -1.5601 -0.0194
19 4 18 -5.7542 -0.0492
19 4 19 -8.6593 0.1218
19 5 0 10.2016 -0.0806
19 5 1 -3.2891 -0.2814
19 5 2 0.9834 0.1566
19 5 3 -8.7117 -0.0343
19 5 4 8.0182 0.2014
19 5 5 2.3252 -0.4319
19 5 6 5.9403 0.0175
19 5 7 -7.1393 -0.0709
19 5 8 -1.8053 0.4094
19 5 9 0.8768 -0.1631
19 5 10 4.2379 -0.0102
19 5 11 1.5277 -0.1188
19 5 12 0.6470 0.0263
19 5 13 0.5085 -0.1345
19 5 14 1.8874 0.1312
19 5 15 -0.3582 -0.2089
19 5 16 1.3578 0.0180
19 5 17 0.4633 -0.0112
19 5 18 -0.7962 0.2262
19 5 19 -4.2064 -0.0670
19 6 1 -8.5279 -0.1755
19 6 2 -12.3803 -0.0973
19 6 3 2.2956 -0.1775
19 6 4 6.4097 0.1585
19 6 5 7.5630 0.0645
19 6 6 3.7817 -0.0839
19 6 7 -7.6640 -0.0939
19 6 8 -5.1366 0.0327
19 6 9 -9.2926 0.0487
19 6 10 -3.6417 0.0944
19 6 11 -7.4600 -0.0603
19 6 12 0.1533 -0.0289
19 6 13 -0.9504 -0.0344
19 6 14 2.6651 0.0991
19 6 15 2.0692 0.0587
19 6 16 4.0025 -0.0017
19 6 17 5.2652 -0.0762
19 6 18 -1.2740 -0.1176
19 6 19 -4.2318 -0.0660
19 7 0 5.9000 -0.4503
19 7 1 12.4220 -0.1406
19 7 2 -0.3736 0.5645
19 7 3 3.8286 0.3199
19 7 4 1.3462 0.2817
19 7 5 8.0853 -0.7491
19 7 6 5.0555 -0.0457
19 7 7 1.5464 -0.1228
19 7 8 -0.5908 0.7366
19 7 9 0.5557 -0.1321
19 7 10 -1.9641 -0.0086
19 7 11 -6.2168 -0.4630
19 7 12 -7.8628 0.0559
19 7 13 -2.3259 -0.0376
19 7 14 0.7450 0.2892
19 7 15 3.3567 -0.2383
19 7 16 4.1667 -0.0906
19 7 17 1.6415 -0.2778
19 7 18 0.0642 0.3769
19 7 19 -0.6536 0.0062
19 8 1 -10.1007 0.0516
19 8 2 -3.1840 -0.1324
19 8 3 1.2036 -0.1313
19 8 4 9.2637 0.0934
19 8 5 -3.0646 0.0920
19 8 6 -5.1176 -0.1177
19 8 7 -3.2361 -0.0889
19 8 8 -2.3573 -0.0287
19 8 9 0.6450 0.1173
19 8 10 -3.8564 0.1028
19 8 11 -0.5441 -0.0566
19 8 12 -2.8652 -0.0329
19 8 13 2.3846 -0.0697
19 8 14 -3.2411 0.0805
19 8 15 -0.7598 0.0942
19 8 16 -4.4794 0.0678
19 8 17 -4.1804 -0.0527
19 8 18 -0.1325 -0.1454
19 8 19 -0.3500 -0.0535
19 9 0 16.0126 -0.6190
19 9 1 4.5653 -0.0175
19 9 2 0.7890 0.2963
19 9 3 3.0916 0.3173
19 9 4 8.7547 -0.0182
19 9 5 3.9801 -0.0843
19 9 6 -3.7903 -0.0517
19 9 7 -2.9552 0.0946
19 9 8 2.9026 0.0437
19 9 9 -1.0115 -0.0089
19 9 10 1.0767 0.0194
19 9 11 -0.8048 -0.1083
19 9 12 0.1293 -0.0297
19 9 13 -2.1460 -0.0511
19 9 14 0.4269 -0.0165
19 9 15 3.8106 0.0327
19 9 16 -1.3977 -0.1167
19 9 17 -2.3926 -0.0668
19 9 18 -2.9495 -0.0610
19 10 1 -10.2870 0.2180
19 10 2 -8.6998 -0.0767
19 10 3 -1.2477 -0.0795
19 10 4 6.1633 -0.1027
19 10 5 5.8578 0.0011
19 10 6 2.5334 0.0686
19 10 7 -6.4621 -0.0620
19 10 8 0.7813 -0.0270
19 10 9 0.0019 0.0791
19 10 10 6.6267 0.0237
19 10 11 6.2448 -0.0286
19 10 12 2.7340 -0.0133
19 10 13 -1.3565 -0.0452
19 10 14 -5.6693 0.0514
19 10 15 -7.1985 0.0149
19 10 16 -2.7770 0.0192
19 10 17 4.1926 0.0683
19 10 18 1.0177 -0.0108
19 11 0 -10.4486 -0.4602
19 11 1 10.8813 -0.1224
19 11 2 -6.7051 -0.1875
19 11 3 1.9440 0.1230
19 11 4 -9.8173 -0.0163
19 11 5 3.0430 0.3744
19 11 6 0.1639 0.1560
19 11 7 2.8926 0.0277
19 11 8 -3.1274 -0.3540
19 11 9 3.8357 -0.0977
19 11 10 0.8520 0.0516
19 11 11 0.8436 0.3080
19 11 12 0.7744 -0.0876
19 11 13 3.0761 -0.1030
19 11 14 4.2174 -0.2163
19 11 15 -0.9801 0.1669
19 11 16 -2.5538 0.0025
19 11 17 -2.7837 -0.0339
19 11 18 0.6899 -0.1781
19 12 1 -3.4380 0.1319
19 12 2 -3.3234 0.0346
19 12 3 1.5542 -0.1511
19 12 4 4.3263 -0.0409
19 12 5 -2.6531 -0.0557
19 12 6 -5.3852 0.0035
19 12 7 1.1955 -0.0248
19 12 8 1.7766 0.0623
19 12 9 5.3558 0.0473
19 12 10 2.0420 0.0519
19 12 11 -0.9069 -0.0545
19 12 12 -0.0971 -0.1147
19 12 13 -1.5098 0.0096
19 12 14 2.5656 0.0243
19 12 15 0.9632 0.0163
19 12 16 -3.4887 -0.0120
19 12 17 -8.6963 0.0552
19 12 18 -0.9596 0.0698
19 13 0 7.5294 -0.2074
19 13 1 -12.6921 -0.2405
19 13 2 1.3338 -0.2552
19 13 3 -6.1354 0.0312
19 13 4 10.3512 0.1070
19 13 5 -2.4903 0.2535
19 13 6 2.7173 0.1231
19 13 7 -8.1854 0.0750
19 13 8 3.5640 -0.2519
19 13 9 -3.2909 -0.0921
19 13 10 3.7016 -0.0576
19 13 11 -1.1249 0.2556
19 13 12 1.9171 -0.0490
19 13 13 2.8193 -0.0537
19 13 14 3.0015 -0.0974
19 13 15 0.7858 0.0878
19 13 16 2.1832 0.0446
19 13 17 -0.8079 -0.0617
19 14 1 -5.9937 -0.0394
19 14 2 -2.9009 -0.0222
19 14 3 0.2633 -0.0620
19 14 4 2.0369 -0.0083
19 14 5 4.3111 -0.0665
19 14 6 5.6690 0.0001
19 14 7 -3.1813 -0.1112
19 14 8 -2.6862 0.0556
19 14 9 -4.3339 0.1130
19 14 10 -1.8837 0.1418
19 14 11 1.2621 -0.1004
19 14 12 -0.8157 -0.1514
19 14 13 4.1681 -0.0775
19 14 14 2.3313 0.0779
19 14 15 4.0356 0.0901
19 14 16 -2.5513 -0.0625
19 14 17 -2.8004 -0.0195
19 15 0 -10.4953 0.0546
19 15 1 10.5195 -0.1280
19 15 2 -6.7455 -0.0137
19 15 3 6.5337 0.0113
19 15 4 -9.3337 0.1747
19 15 5 7.5883 -0.0725
19 15 6 -7.1764 -0.0018
19 15 7 3.0438 -0.0355
19 15 8 -3.2832 0.1694
19 15 9 8.9681 -0.0580
19 15 10 0.6248 -0.0471
19 15 11 0.9718 -0.1288
19 15 12 0.9763 0.0564
19 15 13 3.5569 0.0296
19 15 14 0.1877 0.0654
19 15 15 1.3562 -0.0823
19 15 16 -4.8897 0.0781
19 16 1 0.9573 0.0129
19 16 2 1.4939 0.0887
19 16 3 3.4248 -0.0582
19 16 4 6.3740 -0.0470
19 16 5 2.0998 -0.0933
19 16 6 -2.9920 -0.0890
19 16 7 0.9855 0.0713
19 16 8 -4.6255 0.0274
19 16 9 -2.6730 0.0749
19 16 10 -0.9442 -0.0038
19 16 11 2.9905 -0.0406
19 16 12 1.0211 0.0195
19 16 13 -0.7835 -0.0401
19 16 14 -1.0016 -0.0157
19 16 15 -0.5969 -0.0335
19 16 16 2.3670 -0.0151
19 17 0 10.6142 0.2454
19 17 1 -0.8257 0.1589
19 17 2 1.9692 0.2044
19 17 3 -4.8913 0.0646
19 17 4 2.0168 0.0140
19 17 5 -9.4678 -0.1988
19 17 6 0.7985 0.0053
19 17 7 0.5928 -0.0851
19 17 8 7.5258 0.1566
19 17 9 -3.7695 -0.1018
19 17 10 -0.8313 0.0964
19 17 11 1.8678 -0.0673
19 17 12 2.3321 0.1322
19 17 13 1.9585 -0.1577
19 17 14 3.1799 0.0229
19 17 15 1.7485 -0.0674
19 17 16 -0.7572 0.0577
19 18 1 0.9437 0.0707
19 18 2 0.9762 0.1163
19 18 3 -4.5156 -0.0426
19 18 4 0.2199 -0.1330
19 18 5 -0.3806 -0.0578
19 18 6 3.4956 0.0570
19 18 7 -6.4771 -0.0179
19 18 8 -0.7547 0.0081
19 18 9 -1.1121 0.0351
19 18 10 -2.2282 -0.0212
19 18 11 -2.3151 0.0071
19 18 12 -1.3123 0.0107
19 18 13 -1.3377 0.0819
19 18 14 1.0517 -0.0234
19 18 15 2.9427 -0.1545
19 19 0 4.6529 0.3231
19 19 1 8.4893 0.3140
19 19 2 3.4645 0.0950
19 19 3 3.9805 0.0312
19 19 4 -1.3056 -0.0083
19 19 5 1.8618 -0.0744
19 19 6 -0.8020 -0.0057
19 19 7 -0.5369 -0.0332
19 19 8 -1.4858 -0.1359
19 19 9 0.4668 -0.1185
19 19 10 0.9605 0.0745
19 19 11 -2.1241 0.3065
19 19 12 1.0471 0.1581
19 19 13 -2.5459 -0.1120
19 19 14 -3.2627 -0.3298
19 20 1 -1.4834 0.1465
19 20 2 -0.2898 0.0439
19 20 3 -0.8920 -0.0029
19 20 4 -1.1401 -0.0953
19 20 5 -1.7980 -0.0030
19 20 6 -3.3642 0.0376
19 20 7 0.9176 0.0464
19 20 8 -2.0460 -0.0586
19 20 9 1.5357 0.0327
19 20 10 2.5871 -0.0087
19 20 11 1.7354 0.0152
19 20 12 0.9576 -0.0126
19 20 13 5.0554 0.0179
19 20 14 5.8877 0.0453
19 21 0 -0.4523 0.4708
19 21 1 4.4420 0.1946
19 21 2 2.2482 0.0376
19 21 3 6.5495 -0.2387
19 21 4 -0.2317 -0.0459
19 21 5 1.1347 0.2241
19 21 6 -3.1500 0.0748
19 21 7 1.2400 -0.0549
19 21 8 -0.5205 -0.3209
19 21 9 1.6712 -0.0624
19 21 10 -1.0838 -0.0137
19 21 11 2.3996 0.3719
19 21 12 -0.7957 0.1371
19 21 13 2.9745 0.1736
19 22 1 -2.4217 -0.0019
19 22 2 -3.6039 0.0256
19 22 3 -0.3835 0.0396
19 22 4 0.6688 -0.0067
19 22 5 0.4228 0.0694
19 22 6 0.6389 0.0657
19 22 7 -0.8407 0.0621
19 22 8 1.1735 -0.1066
19 22 9 0.4999 0.0041
19 22 10 -2.5929 0.0290
19 22 11 -1.5810 0.0672
19 22 12 -3.3864 -0.1046
19 23 0 -8.8344 0.5441
19 23 1 -4.5623 0.0739
19 23 2 -2.5013 -0.1943
19 23 3 1.1903 -0.1656
19 23 4 -0.0749 -0.0036
19 23 5 -0.2115 0.2675
19 23 6 -0.7746 0.0660
19 23 7 0.8427 -0.0273
19 23 8 0.0159 -0.2634
19 23 9 -2.4162 0.0476
19 23 10 -0.2367 -0.0242
19 23 11 -0.2056 0.1394
19 23 12 -1.4264 -0.0840
19 24 1 4.2354 -0.1108
19 24 2 5.1164 0.0118
19 24 3 -1.0430 -0.0281
19 24 4 1.3033 0.0793
19 24 5 -1.5501 0.2271
19 24 6 -2.2777 0.0985
19 24 7 -5.5438 0.0429
19 24 8 -3.1757 -0.1530
19 24 9 -2.5210 -0.0402
19 24 10 0.7588 0.0867
19 24 11 1.3007 -0.0284
19 25 0 -0.7096 0.5049
19 25 1 -1.5056 0.1869
19 25 2 -2.8284 -0.0670
19 25 3 -1.9440 -0.1632
19 25 4 -0.8652 -0.0161
19 25 5 -0.0877 0.0337
19 25 6 1.4025 0.1059
19 25 7 -0.0000 0.0520
19 25 8 0.4832 0.0252
19 25 9 1.6063 0.0567
19 25 10 -1.0793 -0.0857
19 26 1 -1.2922 0.0044
19 26 2 -0.9125 -0.0734
19 26 3 0.9833 0.0338
19 26 4 1.7403 0.2158
19 26 5 0.2848 0.1416
19 26 6 -2.5386 0.1544
19 26 7 -0.0684 -0.1264
19 26 8 -0.0230 -0.0004
19 27 0 1.1344 0.2059
19 27 1 2.0085 0.2072
19 27 2 -2.0733 0.2744
19 27 3 0.9443 -0.0372
19 27 4 -0.5863 -0.1354
19 27 5 1.2235 -0.1886
19 27 6 -3.7087 0.0162
19 27 7 1.2430 0.1178
19 28 1 -1.2768 -0.1637
19 28 2 -0.6281 -0.0894
19 28 3 -1.2889 0.1393
19 28 4 -0.1729 0.2966
19 28 5 -0.6857 0.1394
20 0 0 18.9422 0.0712
20 0 1 8.6188 -1.5462
20 0 2 4.1698 -0.3955
20 0 3 -3.7213 -2.6049
20 0 4 -3.1938 1.0830
20 0 5 7.3598 0.5290
20 0 6 -0.0294 2.5722
20 0 7 2.2765 -1.9525
20 0 8 -7.5753 -0.7069
20 0 9 -1.0221 -1.6535
20 0 10 1.5723 1.9327
20 0 11 -2.2317 0.5889
20 0 12 -1.2870 1.0914
20 0 13 2.8003 -1.7503
20 0 14 1.2911 -0.3044
20 0 15 0.3899 -0.4548
20 0 16 -0.7341 1.5906
20 0 17 1.3291 -0.0671
20 0 18 -0.8380 0.0096
20 0 19 1.4075 -0.9273
20 1 1 17.3572 -3.1380
20 1 2 13.2346 0.1322
20 1 3 1.7333 0.4171
20 1 4 -8.7277 1.2498
20 1 5 -2.5763 0.8025
20 1 6 -1.5637 -1.1149
20 1 7 7.2700 -1.1960
20 1 8 5.8852 0.3238
20 1 9 10.0957 0.7194
20 1 10 2.2065 0.6955
20 1 11 -0.5906 -0.1895
20 1 12 -0.7452 -0.7660
20 1 13 3.5851 -0.3763
20 1 14 1.3975 0.2247
20 1 15 -3.7650 0.6707
20 1 16 -3.5267 0.0596
20 1 17 -3.3396 -0.4752
20 1 18 2.6998 -0.2812
20 1 19 2.8728 0.0385
20 2 0 21.1495 0.1790
20 2 1 4.7374 -0.0135
20 2 2 0.7861 -0.5320
20 2 3 -10.7455 -0.2272
20 2 4 7.3817 0.1587
20 2 5 -2.5962 -0.2238
20 2 6 6.7660 -0.0244
20 2 7 -0.9855 0.1196
20 2 8 5.6415 0.1822
20 2 9 3.1036 -0.1693
20 2 10 -4.4342 -0.0033
20 2 11 -2.0740 -0.0679
20 2 12 -2.7843 0.1079
20 2 13 -1.3943 0.0734
20 2 14 4.7392 0.0851
20 2 15 -0.5692 -0.1117
20 2 16 0.5132 -0.1136
20 2 17 -2.6694 0.0055
20 2 18 1.2761 0.0390
20 2 19 -2.6675 0.0766
20 3 1 16.5089 -0.6115
20 3 2 18.4035 -0.6610
20 3 3 -0.3555 0.0532
20 3 4 -9.5479 0.5151
20 3 5 -9.6930 -0.0060
20 3 6 3.6608 0.0611
20 3 7 3.7923 -0.0197
20 3 8 6.4872 -0.3510
20 3 9 -3.7313 0.2038
20 3 10 -6.1431 0.0372
20 3 11 -5.0663 -0.0472
20 3 12 -1.6582 -0.0056
20 3 13 -2.6618 0.0032
20 3 14 1.3147 0.0336
20 3 15 0.1912 0.0432
20 3 16 -1.6188 -0.1061
20 3 17 -2.1466 -0.0308
20 3 18 2.5244 -0.0520
20 3 19 7.6954 0.2891
20 4 0 12.9145 0.3599
20 4 1 -0.6080 0.5603
20 4 2 4.0400 -0.0961
20 4 3 -5.3969 0.6202
20 4 4 1.0431 -0.7154
20 4 5 7.3258 -0.1297
20 4 6 2.2388 -0.7269
20 4 7 -2.1577 0.6995
20 4 8 -5.1328 0.2052
20 4 9 -2.7925 0.5743
20 4 10 0.2188 -0.7209
20 4 11 -2.0580 -0.0546
20 4 12 0.3936 -0.3203
20 4 13 1.3006 0.5252
20 4 14 -4.7027 -0.0420
20 4 15 0.0365 0.2560
20 4 16 0.7304 -0.4557
20 4 17 2.7187 0.0587
20 4 18 -2.0007 -0.1596
20 4 19 -0.2184 0.2370
20 5 1 15.4766 0.2040
20 5 2 8.1746 -0.4474
20 5 3 2.7598 -0.1677
20 5 4 -5.9166 -0.1805
20 5 5 2.3471 0.1719
20 5 6 2.7562 0.2283
20 5 7 6.5731 0.0869
20 5 8 -0.5041 -0.0014
20 5 9 -0.3827 -0.2079
20 5 10 -1.6623 -0.1410
20 5 11 -1.2526 0.1240
20 5 12 -1.9142 -0.0230
20 5 13 0.8906 0.0951
20 5 14 -0.2112 0.1354
20 5 15 1.8663 -0.1270
20 5 16 1.4549 -0.1299
20 5 17 -0.7125 -0.0722
20 5 18 0.3286 0.1841
20 5 19 -0.4236 0.2161
20 6 0 14.2854 0.2605
20 6 1 6.4785 0.2209
20 6 2 -1.3310 0.2590
20 6 3 -6.5499 0.2036
20 6 4 1.3828 -0.2653
20 6 5 -4.2073 -0.1522
20 6 6 1.4402 -0.3527
20 6 7 0.6335 0.3188
20 6 8 -0.1338 0.0910
20 6 9 6.3588 0.2940
20 6 10 6.7360 -0.1925
20 6 11 13.7165 -0.0652
20 6 12 5.5144 -0.2499
20 6 13 0.0980 0.1874
20 6 14 1.9476 -0.0343
20 6 15 -1.7242 0.1285
20 6 16 1.3831 -0.0284
20 6 17 -2.5423 0.0553
20 6 18 4.3168 -0.1380
20 7 1 2.3112 0.0312
20 7 2 4.1283 -0.0867
20 7 3 -2.9025 -0.1836
20 7 4 -1.2868 -0.0910
20 7 5 -0.6381 0.0994
20 7 6 1.8582 0.0624
20 7 7 4.0045 0.0546
20 7 8 5.0706 0.0159
20 7 9 0.6119 0.0400
20 7 10 -3.5728 0.0307
20 7 11 -1.6156 -0.1565
20 7 12 3.2516 -0.0776
20 7 13 -0.5130 0.0271
20 7 14 -3.3325 0.1739
20 7 15 -6.0782 0.0260
20 7 16 -1.1483 -0.1284
20 7 17 -2.9826 -0.1841
20 7 18 -1.6955 0.1498
20 8 0 18.0898 -0.1253
20 8 1 5.1917 -0.1193
20 8 2 6.0304 0.1049
20 8 3 -6.2468 -0.3245
20 8 4 1.8616 0.1444
20 8 5 4.6438 0.0239
20 8 6 2.9164 0.4121
20 8 7 -2.7800 -0.2866
20 8 8 -6.5586 -0.0704
20 8 9 -6.4102 -0.2060
20 8 10 -1.1212 0.2884
20 8 11 0.1842 0.0587
20 8 12 1.1238 0.0959
20 8 13 -2.5391 -0.3407
20 8 14 -2.3281 -0.0059
20 8 15 -2.4770 -0.0547
20 8 16 -1.7193 0.3624
20 8 17 -1.2709 0.0601
20 8 18 -2.7270 0.0299
20 9 1 3.5903 -0.1755
20 9 2 2.3165 0.0632
20 9 3 2.8837 -0.1150
20 9 4 0.5522 0.0177
20 9 5 -2.1547 0.0872
20 9 6 -2.7560 0.0211
20 9 7 -4.7022 -0.0005
20 9 8 2.0465 -0.0476
20 9 9 2.0424 0.1258
20 9 10 0.1254 0.0833
20 9 11 -4.2046 -0.0824
20 9 12 -2.2333 -0.1408
20 9 13 -0.0067 -0.0479
20 9 14 -0.3355 0.0794
20 9 15 -2.9251 0.0543
20 9 16 -2.4638 -0.0273
20 9 17 -0.0592 -0.0528
20 9 18 -0.2200 0.0754
20 10 0 0.9927 -0.4415
20 10 1 -4.9795 -0.2725
20 10 2 -0.7989 -0.1643
20 10 3 -4.6114 -0.3492
20 10 4 0.2137 0.1586
20 10 5 0.9464 0.1829
20 10 6 4.5946 0.5211
20 10 7 -1.5979 -0.2077
20 10 8 -0.3680 -0.2205
20 10 9 -0.9516 -0.3297
20 10 10 -1.9823 0.2975
20 10 11 -3.3021 0.0835
20 10 12 -1.7967 0.1007
20 10 13 -1.1934 -0.2377
20 10 14 -2.5983 -0.0727
20 10 15 1.9780 -0.0470
20 10 16 3.7320 0.2208
20 10 17 1.7626 0.1553
20 10 18 -0.6430 0.1059
20 11 1 0.0586 -0.0937
20 11 2 -0.1078 -0.0256
20 11 3 2.9501 -0.0315
20 11 4 1.1254 0.0432
20 11 5 0.9810 0.0107
20 11 6 -1.6549 0.0902
20 11 7 -1.0747 0.1156
20 11 8 -1.0523 -0.0645
20 11 9 -5.2314 -0.0174
20 11 10 -4.1020 -0.0797
20 11 11 0.2058 0.0340
20 11 12 2.4907 -0.0171
20 11 13 5.1198 -0.0019
20 11 14 -1.0818 0.0330
20 11 15 3.8356 -0.0947
20 11 16 1.1168 0.0421
20 11 17 2.1210 0.1465
20 12 0 -3.1193 -0.3676
20 12 1 2.5212 -0.2084
20 12 2 -3.4707 -0.3802
20 12 3 -0.8383 0.0185
20 12 4 -2.8131 -0.0986
20 12 5 0.9452 0.2852
20 12 6 -0.8890 0.1708
20 12 7 4.7998 0.1399
20 12 8 -4.1972 -0.2332
20 12 9 1.3474 -0.0911
20 12 10 -0.5181 -0.0720
20 12 11 7.5864 0.1532
20 12 12 3.0263 -0.0873
20 12 13 1.7084 0.0086
20 12 14 2.7392 -0.1296
20 12 15 1.0762 0.0383
20 12 16 2.4580 -0.0756
20 12 17 -2.0021 0.1801
20 13 1 -6.3720 0.1413
20 13 2 -8.0486 0.1757
20 13 3 -3.4730 -0.0222
20 13 4 2.0026 -0.0563
20 13 5 0.5978 -0.1629
20 13 6 -0.2482 0.1863
20 13 7 0.1304 0.2265
20 13 8 -1.1235 0.0250
20 13 9 -0.2310 -0.1693
20 13 10 -0.8041 -0.2162
20 13 11 2.0981 -0.0016
20 13 12 5.6829 0.1291
20 13 13 0.0412 0.1064
20 13 14 1.4364 -0.0738
20 13 15 -0.5486 0.0094
20 13 16 6.1576 0.0154
20 13 17 -0.3745 0.1645
20 14 0 -0.3613 -0.2637
20 14 1 -9.1919 -0.1539
20 14 2 8.1062 -0.2831
20 14 3 -0.9098 0.1646
20 14 4 4.5923 -0.1255
20 14 5 -3.5517 0.2007
20 14 6 4.5600 -0.0255
20 14 7 -1.3277 0.2595
20 14 8 4.5626 -0.1231
20 14 9 -3.7804 -0.0290
20 14 10 0.4180 -0.1011
20 14 11 -3.7972 0.0893
20 14 12 3.1340 -0.1484
20 14 13 1.7842 0.0128
20 14 14 1.8030 -0.1399
20 14 15 -3.0723 0.0620
20 14 16 -0.6181 -0.0118
20 15 1 -8.9514 0.3527
20 15 2 -8.3352 0.3868
20 15 3 -0.8059 -0.0130
20 15 4 2.9702 -0.2940
20 15 5 4.2855 -0.0774
20 15 6 -3.1591 0.1705
20 15 7 -6.4491 0.1888
20 15 8 -0.5723 0.1193
20 15 9 -1.8918 -0.2612
20 15 10 3.0236 -0.1973
20 15 11 3.1755 0.0394
20 15 12 0.5231 0.1531
20 15 13 1.5104 0.0764
20 15 14 0.4539 -0.0565
20 15 15 4.7677 -0.1376
20 15 16 -2.6452 0.2280
20 16 0 -3.2866 -0.2713
20 16 1 5.1782 -0.2133
20 16 2 -3.7541 -0.1254
20 16 3 2.3639 -0.0407
20 16 4 -6.0900 0.1245
20 16 5 1.7893 0.0620
20 16 6 -5.7317 0.1985
20 16 7 1.7498 -0.0173
20 16 8 -5.5776 -0.0217
20 16 9 0.8881 -0.0816
20 16 10 -6.1468 0.0236
20 16 11 0.3944 0.0113
20 16 12 0.6755 0.0214
20 16 13 0.1142 -0.1835
20 16 14 -1.7421 -0.0702
20 16 15 -2.8161 -0.0573
20 16 16 -4.6750 0.0736
20 17 1 1.5821 0.2122
20 17 2 -1.3370 0.3708
20 17 3 5.4769 0.0293
20 17 4 3.8847 -0.1321
20 17 5 2.3056 -0.0847
20 17 6 -0.3987 0.0699
20 17 7 2.0513 0.1203
20 17 8 -0.7017 -0.1032
20 17 9 2.3540 0.0277
20 17 10 -2.5448 0.0208
20 17 11 -1.8764 -0.0544
20 17 12 -2.9435 0.0836
20 17 13 -2.5172 -0.0456
20 17 14 -2.5947 -0.1014
20 17 15 0.2320 -0.0279
20 18 0 2.1582 -0.3210
20 18 1 -5.0092 -0.2950
20 18 2 4.9800 -0.0944
20 18 3 -3.3548 -0.2314
20 18 4 1.3000 0.1725
20 18 5 -2.6821 0.1712
20 18 6 5.4646 0.3465
20 18 7 0.2343 -0.0822
20 18 8 -0.3471 -0.0651
20 18 9 -3.3094 -0.3139
20 18 10 3.8820 0.1467
20 18 11 1.2836 0.0652
20 18 12 -0.3210 0.1440
20 18 13 0.9603 -0.1886
20 18 14 -0.4121 0.0009
20 18 15 -3.0942 -0.2622
20 19 1 -6.5328 0.0676
20 19 2 1.4271 0.2590
20 19 3 8.4612 0.0099
20 19 4 9.3103 0.0599
20 19 5 4.1174 -0.1071
20 19 6 1.8764 -0.0008
20 19 7 -0.5319 0.0126
20 19 8 0.3171 -0.0577
20 19 9 -3.0952 0.1114
20 19 10 1.9135 0.0419
20 19 11 0.6993 0.1153
20 19 12 0.6295 -0.1737
20 19 13 -1.1682 -0.0067
20 19 14 1.0388 -0.1007
20 20 0 -2.6637 -0.2926
20 20 1 3.3099 -0.2189
20 20 2 -1.7108 -0.2942
20 20 3 1.8215 -0.0556
20 20 4 -0.7479 0.0770
20 20 5 0.7362 0.2057
20 20 6 -1.3033 0.2963
20 20 7 0.5215 -0.1053
20 20 8 0.6525 -0.1096
20 20 9 2.8613 -0.1798
20 20 10 -0.9451 0.1217
20 20 11 0.2186 -0.0020
20 20 12 0.8314 0.0412
20 20 13 -1.8600 -0.0597
20 21 1 1.6755 0.0328
20 21 2 -3.8876 0.1625
20 21 3 -3.2340 0.0223
20 21 4 0.5589 0.0066
20 21 5 4.0483 -0.1866
20 21 6 -2.6112 0.0524
20 21 7 -1.4866 0.0691
20 21 8 1.4123 0.1412
20 21 9 0.6517 -0.0151
20 21 10 -4.2426 -0.0878
20 21 11 -1.2024 -0.0430
20 21 12 1.5633 -0.0519
20 21 13 1.7350 0.0895
20 22 0 2.0306 -0.0714
20 22 1 -2.0043 -0.0738
20 22 2 1.8831 -0.1207
20 22 3 -1.6387 0.0266
20 22 4 -1.6990 -0.0275
20 22 5 0.1739 0.0245
20 22 6 0.4061 0.0632
20 22 7 1.2833 0.0062
20 22 8 -0.3650 -0.0226
20 22 9 -0.3424 -0.0547
20 22 10 0.4868 0.0799
20 22 11 -0.4865 -0.0501
20 22 12 0.2760 -0.0455
20 23 1 -1.3320 -0.0290
20 23 2 -2.6085 -0.0317
20 23 3 -0.5488 -0.0386
20 23 4 -1.9542 -0.0499
20 23 5 -1.5120 0.0029
20 23 6 0.7249 0.0136
20 23 7 1.8398 0.0705
20 23 8 1.1679 0.0783
20 23 9 2.6251 0.0122
20 23 10 0.9329 -0.0297
20 23 11 -1.9775 -0.1266
20 24 0 5.4023 -0.0141
20 24 1 6.6439 0.2006
20 24 2 -0.0696 0.2750
20 24 3 1.3146 -0.0999
20 24 4 0.7952 -0.1103
20 24 5 1.3425 -0.0473
20 24 6 0.0385 -0.1630
20 24 7 1.4271 0.0021
20 24 8 0.7041 -0.0599
20 24 9 1.0402 0.2412
20 24 10 -1.5888 -0.1675
20 25 1 -0.9348 -0.0071
20 25 2 -0.3559 -0.1458
20 25 3 -2.0352 -0.1095
20 25 4 -0.1920 -0.0881
20 25 5 -0.7380 0.1619
20 25 6 0.8251 -0.0230
20 25 7 -0.9209 0.1602
20 25 8 3.3663 -0.3362
20 25 9 -0.7609 0.0270
20 26 0 -7.9750 0.4266
20 26 1 -8.5264 0.3394
20 26 2 0.6669 0.1418
20 26 3 1.3793 0.1554
20 26 4 1.5116 -0.2882
20 26 5 -1.1833 -0.0914
20 26 6 -1.1424 -0.0375
20 26 7 -1.5417 -0.0375
20 27 1 -2.5575 0.0529
20 27 2 -4.8816 -0.4093
20 27 3 -4.1190 -0.0463
20 27 4 -4.0797 0.2989
20 27 5 -0.9668 0.0869
20 27 6 0.1108 -0.1141
20 28 0 7.3355 0.7151
20 28 1 13.5772 0.6020
20 28 2 8.0456 0.0554
20 28 3 5.1479 -0.4684
21 1 0 0.9256 0.4109
21 1 1 1.1647 -0.3771
21 1 2 0.6310 0.1818
21 1 3 -0.8311 -0.2456
21 1 4 0.9618 0.2615
21 1 5 -4.3798 -0.1068
21 1 6 -1.4340 0.1764
21 1 7 -5.4746 -0.2403
21 1 8 0.3251 0.1627
21 1 9 1.9905 -0.2833
21 1 10 4.7244 0.1303
21 1 11 4.1998 -0.0523
21 1 12 0.4095 0.1611
21 1 13 0.1640 -0.1391
21 1 14 3.0504 0.2047
21 1 15 2.4174 -0.1925
21 1 16 2.5805 0.1073
21 1 17 1.1944 -0.1533
21 1 18 1.0480 0.0598
21 1 19 3.4061 -0.1542
21 2 1 7.2283 0.1562
21 2 2 4.9767 0.9908
21 2 3 4.2290 0.1634
21 2 4 0.3189 -0.7811
21 2 5 3.4187 -0.3982
21 2 6 -0.1321 0.2941
21 2 7 0.5249 0.4569
21 2 8 -7.7359 -0.0340
21 2 9 1.8786 -0.6379
21 2 10 -1.2351 -0.0872
21 2 11 5.0652 0.1966
21 2 12 1.1681 0.2706
21 2 13 0.2062 0.1237
21 2 14 -0.5586 -0.4525
21 2 15 0.6787 -0.1225
21 2 16 4.9683 0.2847
21 2 17 4.6121 0.1680
21 2 18 4.8816 -0.0589
21 3 0 9.6467 -0.1613
21 3 1 11.1312 -0.2540
21 3 2 3.8206 0.2258
21 3 3 0.6726 -0.0260
21 3 4 -4.1088 0.1668
21 3 5 1.4091 -0.2155
21 3 6 1.3200 0.1783
21 3 7 5.6108 -0.0026
21 3 8 1.9610 -0.0606
21 3 9 1.7979 -0.1288
21 3 10 0.0767 0.0621
21 3 11 -1.8958 -0.2237
21 3 12 3.0557 0.2547
21 3 13 3.3797 -0.0338
21 3 14 5.3090 0.0589
21 3 15 0.3372 -0.0207
21 3 16 0.0732 0.0199
21 3 17 0.1586 -0.1281
21 3 18 6.1281 0.0861
21 4 1 8.8927 0.3718
21 4 2 12.0688 0.4388
21 4 3 0.0496 -0.2630
21 4 4 -4.2807 -0.1551
21 4 5 -4.9562 -0.2843
21 4 6 -0.4877 0.2112
21 4 7 2.7894 0.2572
21 4 8 5.9764 -0.0919
21 4 9 1.1033 -0.3079
21 4 10 1.5027 -0.2642
21 4 11 -2.8570 0.1705
21 4 12 -1.6933 0.2914
21 4 13 0.5891 0.0987
21 4 14 1.8513 -0.1650
21 4 15 1.7875 -0.1963
21 4 16 1.9684 -0.1298
21 4 17 0.8957 0.2679
21 4 18 -0.0864 0.0420
21 5 0 4.4849 -0.0985
21 5 1 -6.1469 0.3881
21 5 2 -4.4087 -0.2180
21 5 3 -4.7852 0.1786
21 5 4 1.9902 -0.1726
21 5 5 3.0194 0.2142
21 5 6 1.9304 -0.0141
21 5 7 -0.9995 0.1704
21 5 8 -3.8840 -0.2767
21 5 9 -3.6547 -0.0863
21 5 10 0.3385 -0.1495
21 5 11 4.4950 0.3257
21 5 12 0.2720 -0.0983
21 5 13 0.9738 0.0133
21 5 14 1.1170 -0.0936
21 5 15 4.4828 0.0584
21 5 16 0.4189 0.0161
21 5 17 4.8616 0.2339
21 5 18 3.3259 -0.1849
21 6 1 6.3891 -0.1664
21 6 2 5.3544 -0.2399
21 6 3 7.0774 0.0531
21 6 4 -5.8154 0.1846
21 6 5 -5.4300 0.0946
21 6 6 -4.1610 -0.0417
21 6 7 3.8743 -0.2305
21 6 8 6.2125 -0.0900
21 6 9 4.1363 0.0162
21 6 10 -2.8264 0.0566
21 6 11 -4.1540 0.0943
21 6 12 -1.9533 -0.0754
21 6 13 1.3097 -0.0412
21 6 14 4.0927 0.0113
21 6 15 3.1024 0.0761
21 6 16 -1.0757 0.0073
21 6 17 -1.2360 -0.1579
21 6 18 -0.6947 -0.0468
21 7 0 0.1599 -0.0594
21 7 1 1.1171 0.1908
21 7 2 -1.6298 -0.0587
21 7 3 -10.5767 0.2041
21 7 4 -4.4493 -0.2516
21 7 5 -0.3061 0.3210
21 7 6 6.9719 -0.1555
21 7 7 -1.0922 0.1684
21 7 8 -2.7476 -0.3677
21 7 9 0.0126 0.0392
21 7 10 1.2931 -0.0965
21 7 11 -2.5916 0.3677
21 7 12 -2.2170 -0.1388
21 7 13 0.4171 -0.0112
21 7 14 2.5602 -0.2428
21 7 15 -1.6432 0.1567
21 7 16 -0.9314 0.0437
21 7 17 -2.2326 0.1756
21 7 18 0.4212 -0.0266
21 8 1 2.6604 -0.5409
21 8 2 2.2397 -0.3633
21 8 3 -0.0427 0.2089
21 8 4 -3.3809 0.0944
21 8 5 -3.2249 0.1363
21 8 6 -4.8468 -0.0530
21 8 7 0.8276 -0.1627
21 8 8 -7.6418 -0.0738
21 8 9 2.4858 -0.0303
21 8 10 2.1172 0.1170
21 8 11 2.2722 -0.0295
21 8 12 -2.0603 -0.0520
21 8 13 -2.3840 -0.0848
21 8 14 1.1092 0.0552
21 8 15 -0.1644 0.0866
21 8 16 2.6559 0.1419
21 8 17 0.1641 -0.1459
21 8 18 3.1356 -0.0800
21 9 0 9.2457 0.0505
21 9 1 -2.8740 0.0796
21 9 2 -2.1996 0.1043
21 9 3 -2.5228 0.0290
21 9 4 0.1945 -0.1435
21 9 5 -1.3697 0.0945
21 9 6 -6.2432 -0.0031
21 9 7 1.5354 0.0830
21 9 8 3.8924 -0.3648
21 9 9 6.2824 0.0220
21 9 10 -0.4384 0.0876
21 9 11 0.6323 0.1918
21 9 12 -1.8085 0.0237
21 9 13 -1.5426 -0.0834
21 9 14 -1.3774 -0.1696
21 9 15 -0.1897 -0.0387
21 9 16 0.9872 0.0557
21 9 17 -0.0340 0.1847
21 9 18 -0.2016 -0.0895
21 10 1 7.3411 -0.3284
21 10 2 10.2398 -0.1883
21 10 3 1.1451 -0.0615
21 10 4 -3.9926 -0.1146
21 10 5 -2.1915 -0.0404
21 10 6 1.9470 0.0776
21 10 7 0.4967 0.2274
21 10 8 6.3414 -0.0024
21 10 9 0.5256 -0.2326
21 10 10 0.1111 -0.1874
21 10 11 0.3618 -0.0046
21 10 12 1.7526 0.1224
21 10 13 2.2606 0.0654
21 10 14 1.5008 -0.0434
21 10 15 -0.4311 -0.0389
21 10 16 1.1362 0.1199
21 10 17 1.6756 0.0667
21 11 0 1.2008 0.0819
21 11 1 5.2625 -0.0456
21 11 2 1.7700 0.2170
21 11 3 -1.9797 -0.0342
21 11 4 -1.5430 0.0080
21 11 5 0.1852 -0.1285
21 11 6 2.9861 0.0416
21 11 7 -1.8052 -0.0794
21 11 8 0.7165 -0.0172
21 11 9 -1.1152 -0.1064
21 11 10 1.3076 0.1058
21 11 11 -4.3545 0.0710
21 11 12 -0.0558 0.1284
21 11 13 -1.7031 -0.0818
21 11 14 -0.3606 -0.0663
21 11 15 -1.5065 -0.1224
21 11 16 -1.1779 -0.0482
21 11 17 4.2863 0.0450
21 12 1 -0.4369 0.0189
21 12 2 -2.5479 0.0320
21 12 3 3.5315 -0.1989
21 12 4 2.3255 -0.3418
21 12 5 -5.0165 -0.1233
21 12 6 -9.8978 0.1426
21 12 7 0.2181 0.3412
21 12 8 3.1057 0.0814
21 12 9 5.8090 -0.2377
21 12 10 1.2316 -0.3611
21 12 11 -3.0041 0.0511
21 12 12 -0.2284 0.1982
21 12 13 0.6058 0.1279
21 12 14 0.2082 -0.0966
21 12 15 -0.3074 -0.1380
21 12 16 -1.9109 0.0764
21 12 17 0.2524 0.1445
21 13 0 15.6277 0.0266
21 13 1 1.1243 0.1822
21 13 2 -2.0558 0.0420
21 13 3 -5.7451 0.0042
21 13 4 3.8422 -0.0373
21 13 5 2.1297 -0.0541
21 13 6 0.2148 0.0436
21 13 7 1.5702 0.0337
21 13 8 -0.2566 -0.1744
21 13 9 -0.1673 -0.0066
21 13 10 -6.6368 0.0092
21 13 11 -2.7887 0.2341
21 13 12 -6.0202 -0.0549
21 13 13 -0.6677 -0.0327
21 13 14 -1.9868 -0.0492
21 13 15 0.8995 -0.0166
21 13 16 0.1282 -0.1039
21 14 1 0.3511 0.0670
21 14 2 3.0326 0.0751
21 14 3 4.4798 -0.1339
21 14 4 -0.9499 -0.1238
21 14 5 2.4744 -0.1538
21 14 6 1.4007 0.0252
21 14 7 -3.5538 0.0505
21 14 8 -2.2257 0.0718
21 14 9 1.6983 0.0527
21 14 10 1.4325 -0.0503
21 14 11 -0.2255 -0.0603
21 14 12 -1.4187 0.0012
21 14 13 0.4611 0.0317
21 14 14 6.6900 -0.0026
21 14 15 1.4959 0.0644
21 14 16 -0.6006 -0.0701
21 15 0 6.2315 0.0101
21 15 1 3.2662 0.1742
21 15 2 -0.3320 -0.0553
21 15 3 -3.7560 0.1109
21 15 4 0.9143 -0.2459
21 15 5 2.9111 0.2623
21 15 6 3.8880 -0.1078
21 15 7 -1.6936 0.2050
21 15 8 0.9299 -0.2483
21 15 9 0.7242 0.0087
21 15 10 0.5976 -0.0524
21 15 11 -1.5530 0.1665
21 15 12 2.7188 -0.0361
21 15 13 0.9754 0.0284
21 15 14 0.8807 -0.1093
21 15 15 -2.6633 0.1376
21 15 16 -2.7488 -0.0554
21 16 1 4.6422 0.1465
21 16 2 2.5116 -0.0951
21 16 3 -2.0837 -0.0284
21 16 4 -0.5784 0.0041
21 16 5 0.4082 0.0085
21 16 6 -2.0352 -0.0485
21 16 7 0.6208 -0.2068
21 16 8 -3.4916 0.0822
21 16 9 -5.0069 0.1526
21 16 10 1.6016 0.1510
21 16 11 3.3633 -0.0654
21 16 12 4.4264 -0.1091
21 16 13 2.6983 0.0540
21 16 14 -2.2706 0.0431
21 16 15 1.5010 -0.0232
21 17 0 1.9403 0.0742
21 17 1 3.1420 -0.0376
21 17 2 -1.6336 -0.0344
21 17 3 -0.1019 0.0221
21 17 4 -1.2354 -0.0553
21 17 5 0.3645 0.0687
21 17 6 -1.4576 0.0818
21 17 7 1.7616 0.0648
21 17 8 -2.2829 -0.0282
21 17 9 -0.5645 -0.0777
21 17 10 0.2290 -0.0351
21 17 11 2.3820 -0.0058
21 17 12 -1.6690 -0.0583
21 17 13 -0.9742 0.0129
21 17 14 -1.0110 0.1867
21 17 15 -1.7765 0.0381
21 18 1 -3.7526 0.0737
21 18 2 -4.7432 -0.1407
21 18 3 4.0805 0.0182
21 18 4 3.9318 -0.0055
21 18 5 4.9563 0.0905
21 18 6 1.8336 -0.1234
21 18 7 -2.3771 0.0160
21 18 8 -1.2028 0.0796
21 18 9 2.3571 0.0432
21 18 10 -1.5326 0.0104
21 18 11 -0.2694 -0.1340
21 18 12 -0.0642 0.1118
21 18 13 -1.1121 0.0673
21 18 14 1.9746 0.0892
21 19 0 6.8165 0.0833
21 19 1 -3.5930 -0.1069
21 19 2 3.2907 -0.0533
21 19 3 -6.2765 -0.1480
21 19 4 -0.4494 0.0906
21 19 5 -2.6284 -0.0636
21 19 6 2.0325 0.2242
21 19 7 -2.0184 0.0380
21 19 8 2.2250 -0.0050
21 19 9 -0.0580 -0.0999
21 19 10 -0.5759 -0.0072
21 19 11 -4.1899 -0.1478
21 19 12 1.7351 0.1164
21 19 13 1.7989 -0.0531
21 20 1 -3.2730 0.1202
21 20 2 -5.5554 0.0018
21 20 3 -7.8880 -0.1113
21 20 4 1.2406 -0.0733
21 20 5 6.3895 0.0242
21 20 6 2.1014 0.0684
21 20 7 -2.1797 0.1510
21 20 8 -3.4157 0.0731
21 20 9 -3.4127 0.0081
21 20 10 0.8134 -0.1450
21 20 11 -1.8021 -0.1322
21 20 12 0.5488 -0.0833
21 20 13 0.2364 0.1486
21 21 0 -5.8656 -0.0200
21 21 1 0.5054 -0.0879
21 21 2 -5.1946 -0.0486
21 21 3 -1.6226 -0.1886
21 21 4 -2.5103 0.0276
21 21 5 -0.7088 0.0239
21 21 6 1.6042 0.1079
21 21 7 3.1704 0.0227
21 21 8 3.2553 0.1628
21 21 9 2.2817 -0.1481
21 21 10 -1.3425 0.0121
21 21 11 0.7930 -0.0907
21 21 12 0.1202 0.0406
21 22 1 3.1062 0.1639
21 22 2 3.5398 0.0364
21 22 3 12.9461 -0.2182
21 22 4 4.1892 -0.0673
21 22 5 5.4830 -0.0021
21 22 6 1.2766 0.2415
21 22 7 1.5544 0.1045
21 22 8 -3.4178 0.0785
21 22 9 -0.8848 0.0061
21 22 10 0.5541 -0.1553
21 22 11 0.8051 0.0047
21 23 0 3.2414 -0.0093
21 23 1 -1.9290 0.0169
21 23 2 1.1200 -0.1661
21 23 3 -0.9869 -0.0166
21 23 4 0.8045 -0.0674
21 23 5 0.3578 0.0289
21 23 6 1.1332 0.0204
21 23 7 2.1278 0.0164
21 23 8 0.0453 0.2462
21 23 9 -2.2301 0.0702
21 23 10 2.4497 -0.0379
21 24 1 2.3709 0.1156
21 24 2 -0.8516 0.0833
21 24 3 -8.4284 -0.1773
21 24 4 -4.1732 0.0663
21 24 5 0.4931 0.0134
21 24 6 0.2152 0.1318
21 24 7 -1.8466 -0.0625
21 24 8 -0.5324 0.1544
21 24 9 0.7611 0.0277
21 25 0 -2.6864 0.0091
21 25 1 0.0824 -0.0483
21 25 2 1.9150 -0.0481
21 25 3 0.3543 -0.0404
21 25 4 -1.0506 0.0202
21 25 5 -3.2218 -0.1069
21 25 6 0.0979 0.1336
21 25 7 -2.0855 0.1584
21 25 8 -1.0424 0.0485
21 26 1 -3.8493 0.0715
21 26 2 -2.9178 -0.0740
21 26 3 3.4817 0.1923
21 26 4 1.6947 0.0765
21 26 5 0.1043 0.1460
21 26 6 -1.9254 -0.2593
21 27 0 3.4363 -0.1084
21 27 1 -1.3159 -0.0082
21 27 2 3.1245 0.1269
21 27 3 -2.1160 -0.1491
21 27 4 0.2194 -0.0647
22 0 0 -6.7746 -1.5336
22 0 1 4.6701 -1.0092
22 0 2 5.1480 -0.9545
22 0 3 9.9134 -1.1615
22 0 4 -8.0210 0.2127
22 0 5 -1.9489 0.9487
22 0 6 -8.5563 1.4747
22 0 7 1.9338 -0.9992
22 0 8 -1.9877 -1.1042
22 0 9 -0.1082 -0.7204
22 0 10 1.9392 1.0086
22 0 11 -0.6472 0.8031
22 0 12 -3.8108 0.3217
22 0 13 0.0246 -0.9578
22 0 14 -1.5256 -0.4730
22 0 15 -1.3090 0.0224
22 0 16 -6.1625 0.8697
22 0 17 -3.0964 0.2634
22 0 18 -0.7395 -0.3132
22 1 1 -5.5618 1.2009
22 1 2 -7.1551 1.1206
22 1 3 -1.9574 -0.3290
22 1 4 3.4554 -1.5057
22 1 5 5.9405 -0.4960
22 1 6 3.9695 0.8211
22 1 7 -4.0179 1.1246
22 1 8 -7.5204 0.2061
22 1 9 -6.7504 -0.8304
22 1 10 4.7377 -0.7311
22 1 11 5.9720 0.1093
22 1 12 4.1723 0.8503
22 1 13 -0.8995 0.3766
22 1 14 -2.8256 -0.2301
22 1 15 -0.5735 -0.6274
22 1 16 -2.4004 -0.1292
22 1 17 -0.7754 0.1893
22 1 18 -0.8187 0.5809
22 2 0 -0.4431 0.9015
22 2 1 5.5354 -0.5258
22 2 2 -1.1127 -0.5318
22 2 3 2.1889 -0.0663
22 2 4 -2.0615 0.1064
22 2 5 -7.8418 -0.0416
22 2 6 -0.3563 0.2345
22 2 7 1.6992 -0.1997
22 2 8 5.2864 0.0771
22 2 9 -2.0276 -0.1421
22 2 10 -5.1187 0.1045
22 2 11 -1.3208 -0.0964
22 2 12 -0.0444 0.0263
22 2 13 0.4940 0.0364
22 2 14 -0.4706 0.0939
22 2 15 1.1441 -0.1429
22 2 16 -0.8149 0.1314
22 2 17 -0.3945 -0.0746
22 2 18 -1.4976 -0.0266
22 3 1 -8.8019 0.5439
22 3 2 -3.5732 0.3157
22 3 3 0.5884 0.2676
22 3 4 5.8360 -0.2428
22 3 5 2.3947 -0.2653
22 3 6 0.0358 -0.0130
22 3 7 -4.6348 0.3238
22 3 8 -7.2042 0.0548
22 3 9 -4.3885 -0.1156
22 3 10 -0.1616 0.0406
22 3 11 5.9071 0.0749
22 3 12 2.3411 0.0553
22 3 13 -2.8470 0.0010
22 3 14 -0.2087 -0.0119
22 3 15 2.5517 0.0185
22 3 16 0.1844 0.0237
22 3 17 -1.6788 0.0185
22 3 18 -1.4256 -0.0198
22 4 0 2.9582 0.3780
22 4 1 7.3508 0.2684
22 4 2 -0.2873 0.1635
22 4 3 0.7725 0.0047
22 4 4 -2.8847 -0.0691
22 4 5 5.2766 -0.2761
22 4 6 -0.7004 -0.5581
22 4 7 -7.4451 0.5096
22 4 8 -9.4728 0.3580
22 4 9 -6.0879 0.0971
22 4 10 4.1120 -0.3275
22 4 11 -0.3488 -0.2902
22 4 12 3.1169 0.0054
22 4 13 0.4605 0.2579
22 4 14 1.6279 0.1583
22 4 15 -0.7947 0.0029
22 4 16 -0.1606 -0.2938
22 4 17 0.9173 0.0140
22 4 18 -0.8556 0.0106
22 5 1 -3.2316 0.0175
22 5 2 -7.1205 0.0701
22 5 3 -0.1094 0.1528
22 5 4 0.8657 0.2247
22 5 5 2.2407 -0.0655
22 5 6 -2.2623 -0.1109
22 5 7 -3.1817 -0.0887
22 5 8 -2.7487 0.0873
22 5 9 2.1001 0.0759
22 5 10 3.1037 -0.0034
22 5 11 -0.9083 0.1431
22 5 12 -6.0635 -0.0710
22 5 13 -3.5067 0.0005
22 5 14 -2.9917 0.0081
22 5 15 -0.5718 0.0949
22 5 16 0.2961 -0.0969
22 5 17 0.8043 0.0701
22 5 18 1.4056 0.0145
22 6 0 -9.9597 0.0183
22 6 1 5.2974 0.1330
22 6 2 -4.8184 0.2179
22 6 3 9.0739 0.0829
22 6 4 -3.7722 -0.1918
22 6 5 -0.6949 -0.2743
22 6 6 -9.2786 -0.1057
22 6 7 -3.4417 0.0240
22 6 8 -1.4736 0.2510
22 6 9 6.1873 0.1839
22 6 10 2.3374 -0.1824
22 6 11 3.4059 -0.1551
22 6 12 -3.7245 0.0305
22 6 13 2.3267 0.0241
22 6 14 -0.1811 0.0707
22 6 15 2.8644 0.0112
22 6 16 0.8660 -0.0197
22 6 17 0.1146 -0.0442
22 6 18 -0.0075 -0.1615
22 7 1 -3.6817 -0.1121
22 7 2 1.0063 -0.0498
22 7 3 -0.7940 -0.0852
22 7 4 4.5709 0.0540
22 7 5 3.1074 -0.0149
22 7 6 2.9037 0.1254
22 7 7 -3.0456 0.0859
22 7 8 -2.6643 -0.0429
22 7 9 1.1007 -0.1301
22 7 10 6.0393 -0.0899
22 7 11 -0.7382 0.0611
22 7 12 -2.2219 0.1506
22 7 13 -0.1500 0.1438
22 7 14 3.4381 -0.1703
22 7 15 5.3861 -0.0846
22 7 16 1.6855 -0.0383
22 7 17 3.4677 0.1247
22 8 0 -1.3846 -0.3021
22 8 1 -3.3724 -0.2046
22 8 2 2.1429 0.0013
22 8 3 -1.0664 -0.0417
22 8 4 3.9365 -0.0452
22 8 5 -1.0227 -0.0818
22 8 6 3.0106 0.0927
22 8 7 0.1169 -0.1141
22 8 8 4.8491 -0.0107
22 8 9 -2.1529 -0.0824
22 8 10 3.4175 0.2122
22 8 11 -2.0149 0.0356
22 8 12 3.5207 0.0086
22 8 13 -2.8732 -0.1308
22 8 14 1.1217 -0.1042
22 8 15 1.9470 -0.0796
22 8 16 1.6647 0.3364
22 8 17 2.3299 -0.0721
22 9 1 -4.7837 0.0424
22 9 2 -7.7393 -0.0933
22 9 3 -0.0216 -0.2685
22 9 4 1.2870 -0.1857
22 9 5 6.0552 0.0583
22 9 6 -1.1310 0.2081
22 9 7 -1.2299 0.1188
22 9 8 -2.6330 0.0685
22 9 9 1.9507 -0.2910
22 9 10 -4.2704 -0.1734
22 9 11 -5.4695 0.0282
22 9 12 -7.2736 0.2538
22 9 13 -7.6924 0.0969
22 9 14 -2.5213 -0.1133
22 9 15 -3.2912 -0.1598
22 9 16 -1.5036 -0.0518
22 9 17 -3.0076 0.0358
22 10 0 5.1306 -0.1033
22 10 1 8.4483 -0.1718
22 10 2 7.0955 -0.1094
22 10 3 6.0133 -0.1974
22 10 4 -3.1004 -0.1339
22 10 5 1.4160 0.0668
22 10 6 0.3060 0.2328
22 10 7 0.0370 -0.0270
22 10 8 -2.1442 -0.1209
22 10 9 1.6169 -0.1888
22 10 10 -1.9397 0.1458
22 10 11 -0.2227 0.1454
22 10 12 -4.9885 0.1427
22 10 13 1.8848 -0.3165
22 10 14 -1.9347 -0.0927
22 10 15 1.2044 -0.0269
22 10 16 -0.8985 0.1261
22 10 17 -2.4415 0.1407
22 11 1 1.2393 0.1981
22 11 2 0.1307 -0.1619
22 11 3 -2.7602 -0.1851
22 11 4 -0.0294 -0.2084
22 11 5 -0.5674 0.0153
22 11 6 0.5166 0.1040
22 11 7 -1.0020 0.0811
22 11 8 -0.5178 0.0143
22 11 9 1.5188 -0.0824
22 11 10 4.0634 -0.1098
22 11 11 2.3343 -0.0697
22 11 12 -3.4348 0.0956
22 11 13 1.2381 0.1062
22 11 14 -0.3426 0.0074
22 11 15 2.9223 -0.0716
22 11 16 0.5533 -0.0506
22 11 17 -0.9740 -0.1316
22 12 0 -12.2946 0.0726
22 12 1 -2.4408 -0.0414
22 12 2 -14.8606 -0.0903
22 12 3 1.4390 -0.1784
22 12 4 1.5481 -0.0043
22 12 5 1.9107 0.0292
22 12 6 -3.8993 -0.0225
22 12 7 0.0573 0.1652
22 12 8 -0.1362 -0.0315
22 12 9 -3.9302 -0.0862
22 12 10 -1.4815 0.0641
22 12 11 0.2870 -0.0071
22 12 12 5.1288 -0.0371
22 12 13 -0.7318 -0.0546
22 12 14 0.7043 -0.0673
22 12 15 -1.7989 0.0078
22 12 16 -0.3058 -0.0873
22 13 1 0.6802 0.1908
22 13 2 3.3515 -0.2108
22 13 3 -3.2789 -0.0325
22 13 4 -2.4436 -0.0783
22 13 5 -4.3287 -0.0157
22 13 6 -0.9644 -0.0524
22 13 7 0.3908 -0.0170
22 13 8 2.1690 0.0047
22 13 9 7.6645 0.0547
22 13 10 5.3171 -0.0336
22 13 11 1.3229 -0.0855
22 13 12 4.7041 -0.0127
22 13 13 0.8939 0.1332
22 13 14 3.2795 0.0472
22 13 15 -2.0198 -0.0610
22 13 16 -0.7572 -0.0234
22 14 0 4.5112 0.0644
22 14 1 -1.2938 -0.0695
22 14 2 11.7116 -0.0153
22 14 3 0.5506 0.0754
22 14 4 1.3158 -0.0207
22 14 5 -2.6630 -0.0149
22 14 6 3.6598 -0.0282
22 14 7 0.1324 0.0275
22 14 8 3.9987 0.0370
22 14 9 0.2199 0.1465
22 14 10 0.5786 -0.1435
22 14 11 -3.7186 -0.0040
22 14 12 -2.6640 -0.1132
22 14 13 1.4994 0.1051
22 14 14 -0.3554 -0.0409
22 14 15 -0.2243 -0.0762
22 15 1 2.4041 0.0056
22 15 2 5.3158 -0.0669
22 15 3 7.2677 -0.0485
22 15 4 4.5052 -0.0120
22 15 5 -0.1416 -0.0302
22 15 6 -2.7322 -0.0776
22 15 7 -0.5343 -0.0597
22 15 8 4.4964 0.0759
22 15 9 0.1990 -0.0270
22 15 10 -0.7134 -0.0176
22 15 11 -0.5272 -0.0138
22 15 12 -1.9710 -0.0255
22 15 13 0.3688 0.0425
22 15 14 2.4072 0.0804
22 15 15 2.7756 0.0407
22 16 0 2.2068 -0.0925
22 16 1 8.2139 -0.0458
22 16 2 6.7855 -0.1048
22 16 3 7.1371 0.2113
22 16 4 -3.2453 -0.0339
22 16 5 -1.6499 0.1014
22 16 6 -0.9958 -0.1662
22 16 7 2.2830 0.1768
22 16 8 0.2058 -0.1337
22 16 9 1.5030 0.1266
22 16 10 -0.8299 -0.1606
22 16 11 0.1777 0.0764
22 16 12 -0.9680 -0.0208
22 16 13 0.5110 0.1273
22 16 14 -1.0315 0.0151
22 16 15 -1.3001 -0.1296
22 17 1 -1.8758 0.0828
22 17 2 -2.3700 0.0230
22 17 3 -1.5352 -0.0382
22 17 4 2.7032 -0.1537
22 17 5 0.3912 -0.2039
22 17 6 0.7437 0.0773
22 17 7 -0.5988 0.0930
22 17 8 -0.8672 0.1455
22 17 9 1.5218 -0.1387
22 17 10 -0.5873 -0.1309
22 17 11 -1.9716 -0.1118
22 17 12 -0.2790 0.1345
22 17 13 0.0283 0.1097
22 17 14 -1.8296 -0.0386
22 18 0 -6.1007 -0.0506
22 18 1 0.5319 -0.0322
22 18 2 -1.7659 -0.0343
22 18 3 1.5997 0.0086
22 18 4 -0.2687 -0.0457
22 18 5 -0.8706 0.2217
22 18 6 2.2309 -0.0394
22 18 7 5.1704 0.0748
22 18 8 4.3614 -0.1858
22 18 9 0.2742 -0.0819
22 18 10 -1.6747 0.0426
22 18 11 -1.6330 0.1851
22 18 12 -1.2171 -0.0476
22 18 13 2.1679 -0.0021
22 19 1 -1.7550 0.1122
22 19 2 3.5822 -0.0570
22 19 3 4.1174 -0.0537
22 19 4 1.8595 -0.2764
22 19 5 -0.7521 -0.0976
22 19 6 0.4425 0.0231
22 19 7 0.3477 0.2309
22 19 8 -2.0229 0.1163
22 19 9 -0.8688 -0.1418
22 19 10 1.9449 -0.1718
22 19 11 3.4339 -0.1232
22 19 12 1.9202 0.1385
22 19 13 -0.4884 0.0615
22 20 0 9.8119 -0.2543
22 20 1 1.2109 -0.0208
22 20 2 4.2528 -0.0378
22 20 3 -2.8851 -0.0122
22 20 4 -1.1063 0.1064
22 20 5 -1.9161 0.1345
22 20 6 0.8845 0.0407
22 20 7 -0.0399 -0.1245
22 20 8 1.9600 -0.1233
22 20 9 -0.2149 0.0259
22 20 10 1.9881 0.0375
22 20 11 -0.6304 0.0464
22 20 12 -1.6047 0.1164
22 21 1 0.7326 0.1707
22 21 2 3.2839 -0.1156
22 21 3 -1.7424 -0.0392
22 21 4 1.5085 -0.2067
22 21 5 -3.8881 -0.0675
22 21 6 0.5335 0.0437
22 21 7 2.4614 0.0299
22 21 8 5.9713 0.1328
22 21 9 -0.9992 -0.0809
22 21 10 -3.3821 -0.0336
22 21 11 -0.9033 -0.1200
22 22 0 -3.5550 -0.0497
22 22 1 1.5754 -0.0283
22 22 2 -0.5043 0.0466
22 22 3 1.0594 0.1318
22 22 4 -4.9574 0.0340
22 22 5 -7.8526 0.0416
22 22 6 -5.5330 0.0982
22 22 7 -0.8875 -0.1197
22 22 8 1.1498 -0.1533
22 22 9 -1.1087 -0.0517
22 22 10 -0.8613 0.2507
22 23 1 -2.1508 -0.0136
22 23 2 -6.0332 0.1276
22 23 3 -1.1859 0.0202
22 23 4 0.5529 -0.1159
22 23 5 4.1320 -0.0447
22 23 6 0.5297 -0.0403
22 23 7 -0.1407 -0.0103
22 23 8 -3.8355 -0.0821
22 23 9 0.9052 0.0296
22 24 0 2.9898 0.2807
22 24 1 4.1917 0.1252
22 24 2 4.8964 0.2035
22 24 3 2.2224 0.1004
22 24 4 -2.2322 0.0090
22 24 5 -3.1017 -0.0300
22 24 6 -1.1051 -0.2073
22 24 7 1.3051 0.2859
22 24 8 0.8207 -0.0351
22 25 1 -1.6796 -0.1190
22 25 2 4.2392 -0.0360
22 25 3 6.8973 -0.0548
22 25 4 4.7015 0.1464
22 25 5 1.7801 -0.1691
22 25 6 1.7792 0.0399
22 25 7 -0.2346 0.0148
22 26 0 7.8202 0.2448
22 26 1 5.6584 0.6643
22 26 2 3.1978 0.0746
22 26 3 1.4180 -0.0305
22 26 4 0.6163 -0.3852
22 26 5 -2.2300 0.2314
22 27 1 -2.0870 0.1907
22 27 2 -0.1370 0.0583
23 1 0 5.9043 0.6454
23 1 1 3.7578 -0.1719
23 1 2 -0.3953 0.3120
23 1 3 0.0929 0.0486
23 1 4 -0.4380 0.9450
23 1 5 1.7349 -0.6813
23 1 6 -6.6294 0.2446
23 1 7 -3.9973 -0.4791
23 1 8 -1.3844 0.3071
23 1 9 3.1683 -0.5357
23 1 10 -1.2823 0.4199
23 1 11 1.4883 -0.0226
23 1 12 2.8172 0.3748
23 1 13 3.3190 -0.3927
23 1 14 0.2664 0.1310
23 1 15 -0.6619 -0.3128
23 1 16 0.3278 0.3326
23 1 17 -0.4573 0.1054
23 1 18 -0.8618 0.2699
23 2 1 -0.7232 -0.3147
23 2 2 -1.2567 0.0566
23 2 3 3.0687 0.1194
23 2 4 4.7440 -0.0466
23 2 5 4.2080 -0.0943
23 2 6 1.3463 -0.1921
23 2 7 -1.2006 0.2339
23 2 8 -4.9074 0.0908
23 2 9 0.2079 -0.1370
23 2 10 -2.4667 0.2373
23 2 11 0.4671 -0.1524
23 2 12 -1.7778 -0.1172
23 2 13 -0.6314 0.0856
23 2 14 -0.2255 -0.0222
23 2 15 -1.7415 0.0074
23 2 16 -1.3314 0.2208
23 2 17 0.1856 -0.1050
23 2 18 2.9729 -0.0755
23 3 0 2.6637 -0.1843
23 3 1 5.6256 -0.2751
23 3 2 -3.2675 0.6757
23 3 3 -5.0790 0.2981
23 3 4 -4.7618 0.7130
23 3 5 -0.2488 -0.8996
23 3 6 0.5582 -0.0613
23 3 7 -3.9039 -0.4824
23 3 8 -6.3183 1.0152
23 3 9 -2.5423 -0.3393
23 3 10 0.0036 0.0159
23 3 11 -2.3476 -0.5548
23 3 12 -2.9608 0.4242
23 3 13 2.2155 0.0534
23 3 14 1.2858 0.4173
23 3 15 1.1422 -0.3783
23 3 16 0.3337 -0.0012
23 3 17 2.0994 -0.1891
23 3 18 -0.1802 0.5501
23 4 1 -4.0867 0.0764
23 4 2 1.1786 0.1965
23 4 3 1.2716 -0.0917
23 4 4 6.9564 -0.0990
23 4 5 2.3745 -0.1355
23 4 6 2.9831 -0.0819
23 4 7 -3.8524 0.1836
23 4 8 -0.2237 0.1253
23 4 9 -7.7360 0.0166
23 4 10 3.4027 -0.0747
23 4 11 -1.7279 0.0136
23 4 12 4.0781 0.1188
23 4 13 0.6999 -0.1996
23 4 14 -2.9823 0.0240
23 4 15 -4.9629 0.0346
23 4 16 -2.7887 -0.0184
23 4 17 3.7725 0.0773
23 5 0 23.1801 0.0211
23 5 1 5.0826 0.1131
23 5 2 0.9775 0.1766
23 5 3 -8.6706 0.0753
23 5 4 -1.5090 -0.1650
23 5 5 -4.6833 0.0027
23 5 6 0.3523 -0.0205
23 5 7 -1.7436 0.0651
23 5 8 2.0819 -0.0428
23 5 9 -3.8277 -0.0476
23 5 10 -1.3832 -0.0800
23 5 11 -0.7828 0.0084
23 5 12 1.1661 0.1303
23 5 13 -0.9217 0.1009
23 5 14 2.6806 -0.0723
23 5 15 -0.0559 0.0920
23 5 16 -3.3465 -0.0313
23 5 17 -0.5286 0.0810
23 6 1 -10.5758 0.1164
23 6 2 -10.0636 -0.0220
23 6 3 5.0729 0.0108
23 6 4 7.7403 -0.1476
23 6 5 7.4517 -0.1201
23 6 6 1.1221 0.0322
23 6 7 -4.6509 0.1183
23 6 8 -3.0819 0.0614
23 6 9 1.7729 0.0788
23 6 10 0.0406 -0.1059
23 6 11 4.6306 0.0307
23 6 12 2.2206 0.0325
23 6 13 4.3677 0.0501
23 6 14 0.4338 -0.0998
23 6 15 -1.0025 -0.0768
23 6 16 -1.7139 -0.0002
23 6 17 -2.0714 0.0461
23 7 0 -15.4969 0.3178
23 7 1 7.1980 0.2283
23 7 2 -5.9557 -0.1851
23 7 3 4.7205 -0.1360
23 7 4 -6.8356 -0.2588
23 7 5 4.8303 0.2115
23 7 6 -1.1773 0.0075
23 7 7 1.9279 0.1384
23 7 8 -3.2713 -0.2930
23 7 9 4.5217 0.0140
23 7 10 0.8492 0.0277
23 7 11 -0.5957 0.2441
23 7 12 -5.0943 -0.0903
23 7 13 2.5490 -0.0045
23 7 14 -0.2543 -0.1428
23 7 15 0.2192 0.1526
23 7 16 -1.0301 0.0477
23 7 17 0.4888 0.1675
23 8 1 2.1435 -0.0992
23 8 2 2.4349 -0.0695
23 8 3 0.1272 0.0210
23 8 4 6.6870 -0.0957
23 8 5 -0.6669 -0.0026
23 8 6 -3.2113 0.0177
23 8 7 -1.0215 0.0916
23 8 8 3.9551 0.0531
23 8 9 4.0075 -0.0232
23 8 10 1.1111 -0.1092
23 8 11 -5.0280 0.0500
23 8 12 -3.2670 0.0835
23 8 13 -4.5830 0.0328
23 8 14 -3.9503 -0.0650
23 8 15 0.0561 0.0189
23 8 16 3.3371 -0.0829
23 8 17 5.3811 -0.0187
23 9 0 15.5885 0.3620
23 9 1 3.3407 0.0727
23 9 2 5.1312 0.1155
23 9 3 -1.4238 -0.1265
23 9 4 4.3981 -0.0450
23 9 5 0.2535 -0.2960
23 9 6 0.9053 0.0411
23 9 7 -3.9040 -0.0724
23 9 8 1.7045 0.2134
23 9 9 1.3619 0.0158
23 9 10 3.5847 0.1188
23 9 11 -1.4778 -0.0809
23 9 12 0.3669 -0.0429
23 9 13 -2.6984 -0.0553
23 9 14 1.4794 0.0936
23 9 15 -0.0668 -0.0671
23 9 16 1.2861 0.0708
23 9 17 -0.5079 -0.0277
23 10 1 -1.2480 -0.0921
23 10 2 2.9035 -0.0012
23 10 3 5.6332 -0.0675
23 10 4 4.9316 0.0533
23 10 5 3.2706 -0.0110
23 10 6 -0.1047 0.0313
23 10 7 -5.0690 0.1380
23 10 8 -1.4017 0.0060
23 10 9 -5.9268 -0.1506
23 10 10 -1.8450 -0.0360
23 10 11 -0.7286 -0.0254
23 10 12 2.0870 0.1076
23 10 13 -0.0889 0.1115
23 10 14 0.2242 0.0213
23 10 15 -1.9288 -0.0506
23 10 16 -4.0248 -0.0445
23 11 0 1.3673 0.3342
23 11 1 1.7508 0.1775
23 11 2 -2.8364 0.5036
23 11 3 -0.8623 -0.0736
23 11 4 0.3358 -0.0431
23 11 5 2.2790 -0.6592
23 11 6 0.4347 0.0236
23 11 7 -1.5730 -0.1055
23 11 8 -3.1630 0.6291
23 11 9 -3.1436 -0.0545
23 11 10 -1.1356 0.1524
23 11 11 1.8180 -0.4106
23 11 12 0.8811 0.0774
23 11 13 3.9560 -0.0768
23 11 14 1.5933 0.3992
23 11 15 1.5527 -0.2315
23 11 16 -3.1970 -0.0895
23 12 1 0.6454 0.0327
23 12 2 -0.2836 0.0141
23 12 3 4.2893 -0.0656
23 12 4 4.9765 0.0628
23 12 5 1.8423 0.0355
23 12 6 -0.4764 0.0654
23 12 7 -0.2789 0.0620
23 12 8 -0.6423 -0.0082
23 12 9 0.6047 -0.0798
23 12 10 -1.3757 -0.1077
23 12 11 2.2890 0.0403
23 12 12 0.4906 0.0702
23 12 13 2.9954 0.0610
23 12 14 -6.4813 0.0576
23 12 15 -2.8899 0.0623
23 12 16 -3.5817 -0.0808
23 13 0 -4.7745 0.1409
23 13 1 5.0273 0.1943
23 13 2 -5.3768 0.3086
23 13 3 1.7046 -0.0023
23 13 4 -3.8619 -0.0142
23 13 5 3.4098 -0.5014
23 13 6 -2.5260 -0.0026
23 13 7 1.2820 -0.0330
23 13 8 -1.2627 0.4131
23 13 9 2.1561 -0.0162
23 13 10 1.9293 0.1091
23 13 11 3.3191 -0.2798
23 13 12 3.5677 0.0731
23 13 13 1.5252 -0.0449
23 13 14 0.2845 0.1695
23 13 15 -0.6669 0.0447
23 14 1 -1.1517 0.0605
23 14 2 0.7247 0.0526
23 14 3 0.6533 -0.0024
23 14 4 0.4447 -0.0251
23 14 5 -0.6120 0.0103
23 14 6 0.7166 0.0037
23 14 7 0.0599 0.1647
23 14 8 0.0479 -0.0025
23 14 9 0.3535 -0.0366
23 14 10 -0.6151 -0.1385
23 14 11 -2.3618 0.0191
23 14 12 0.1023 0.1037
23 14 13 1.5371 0.0186
23 14 14 10.5018 0.0101
23 14 15 3.5667 0.0432
23 15 0 10.7959 -0.0322
23 15 1 4.8671 0.1042
23 15 2 5.2499 -0.0231
23 15 3 -0.1578 -0.1386
23 15 4 2.7435 -0.1478
23 15 5 -0.8018 0.0665
23 15 6 4.0670 0.1170
23 15 7 -2.2618 0.0188
23 15 8 1.6609 -0.0972
23 15 9 -0.7719 -0.0703
23 15 10 0.3301 0.0873
23 15 11 -2.1023 0.1729
23 15 12 1.1173 -0.0795
23 15 13 0.5029 -0.0722
23 15 14 2.3887 -0.1587
23 16 1 -0.8440 -0.0005
23 16 2 1.7317 -0.0118
23 16 3 -1.7237 0.0118
23 16 4 1.1417 -0.1349
23 16 5 -0.7460 -0.0751
23 16 6 -1.1480 0.1383
23 16 7 -1.1497 0.0795
23 16 8 -0.9138 0.0714
23 16 9 -2.5951 -0.0343
23 16 10 2.1152 -0.1035
23 16 11 2.4427 0.0121
23 16 12 0.3424 0.0183
23 16 13 -0.5036 0.0763
23 16 14 -4.6314 -0.1307
23 17 0 -4.3633 -0.2146
23 17 1 -2.7828 -0.1598
23 17 2 -2.1543 -0.2765
23 17 3 0.9616 -0.1107
23 17 4 -1.6058 -0.0888
23 17 5 0.9039 0.2251
23 17 6 -1.3154 0.0968
23 17 7 7.3587 0.0560
23 17 8 2.8585 -0.2169
23 17 9 -0.9650 -0.0115
23 17 10 -3.5218 -0.0421
23 17 11 -1.1190 0.2273
23 17 12 -1.8229 -0.1297
23 17 13 2.5365 -0.0996
23 18 1 -4.0505 -0.0497
23 18 2 -8.2154 -0.0348
23 18 3 -3.0667 -0.1012
23 18 4 -1.2036 -0.0451
23 18 5 -2.7635 -0.0805
23 18 6 -1.8077 -0.0094
23 18 7 -6.7411 0.0892
23 18 8 -1.5168 0.0871
23 18 9 3.6497 0.0093
23 18 10 2.8056 0.0074
23 18 11 2.5223 -0.0855
23 18 12 0.4440 -0.0625
23 18 13 0.9277 -0.0288
23 19 0 -4.0206 -0.2513
23 19 1 -0.7214 -0.2965
23 19 2 -3.2161 -0.2244
23 19 3 -2.0610 -0.1475
23 19 4 -4.3544 -0.0174
23 19 5 0.3636 0.1209
23 19 6 2.8001 0.1360
23 19 7 2.2675 0.0239
23 19 8 -0.2579 -0.2012
23 19 9 -0.1693 -0.0120
23 19 10 -1.2711 0.0094
23 19 11 -0.4283 0.1159
23 19 12 -0.8685 -0.0041
23 20 1 0.1063 -0.0670
23 20 2 1.7317 0.0455
23 20 3 -3.9950 0.0086
23 20 4 1.6109 -0.1125
23 20 5 1.7730 -0.0568
23 20 6 -0.8300 -0.0994
23 20 7 1.3303 0.0792
23 20 8 3.5373 0.0237
23 20 9 0.6419 0.0626
23 20 10 0.6729 0.0190
23 20 11 1.6155 -0.0854
23 21 0 -6.2417 -0.2371
23 21 1 -5.2305 -0.1871
23 21 2 -0.5891 -0.0955
23 21 3 -0.3306 -0.1000
23 21 4 1.4612 -0.0189
23 21 5 0.3189 0.0251
23 21 6 2.4948 0.0091
23 21 7 1.4378 0.0238
23 21 8 -0.2305 -0.0444
23 21 9 -1.5596 -0.1258
23 21 10 -2.5316 0.0756
23 21 11 -1.6637 0.0328
23 22 1 -0.2165 0.2018
23 22 2 -0.7645 0.0974
23 22 3 0.7950 0.0576
23 22 4 2.0321 -0.1804
23 22 5 -0.2843 -0.1124
23 22 6 3.5390 0.0809
23 22 7 -0.1965 -0.0709
23 22 8 1.1269 0.0212
23 22 9 2.6220 -0.0005
23 22 10 3.1920 0.0516
23 23 0 13.8251 -0.2822
23 23 1 8.8416 0.0903
23 23 2 0.2510 -0.2079
23 23 3 0.6806 -0.0247
23 23 4 0.8256 -0.0365
23 23 5 3.0137 0.0616
23 23 6 -2.0480 0.1639
23 23 7 -0.4035 -0.1497
23 23 8 -1.0451 -0.1934
23 23 9 -2.7059 -0.2794
23 24 1 1.1633 0.2089
23 24 2 4.6753 0.1232
23 24 3 -1.2122 -0.0349
23 24 4 -0.3132 -0.0383
23 24 5 -2.4378 -0.0693
23 24 6 -0.2335 -0.0948
23 24 7 -0.9221 0.0089
23 25 0 4.1706 -0.0573
23 25 1 4.7148 -0.1038
23 25 2 -0.8593 -0.1634
23 25 3 -0.6200 -0.2752
23 25 4 -0.5135 -0.0287
23 25 5 0.8065 0.4983
23 25 6 -0.3363 0.1715
23 26 1 1.6873 0.1476
23 26 2 1.9741 0.1218
23 26 3 4.7245 0.0541
24 0 0 1.7354 -0.3959
24 0 1 -2.9537 1.1343
24 0 2 2.7168 0.0482
24 0 3 -3.1645 2.1331
24 0 4 6.2929 -0.9234
24 0 5 1.1202 -0.1872
24 0 6 0.7696 -2.0814
24 0 7 -7.3362 1.6064
24 0 8 2.5141 0.3789
24 0 9 0.6134 1.3321
24 0 10 -1.2050 -1.4208
24 0 11 -4.5075 -0.3348
24 0 12 -2.4116 -0.9563
24 0 13 -5.5435 1.3314
24 0 14 -1.6436 0.1456
24 0 15 0.4251 0.4400
24 0 16 3.3189 -1.1514
24 0 17 -1.8562 0.0315
24 1 1 12.1364 2.6455
24 1 2 7.2622 0.0791
24 1 3 -5.7830 -0.2579
24 1 4 -14.1043 -1.0353
24 1 5 -8.0102 -1.0268
24 1 6 3.6335 1.1497
24 1 7 6.5292 1.1703
24 1 8 4.6381 -0.2839
24 1 9 -2.2588 -0.6817
24 1 10 0.2309 -0.6382
24 1 11 -0.6505 0.1715
24 1 12 0.2791 0.7035
24 1 13 -0.4446 0.3727
24 1 14 0.5760 -0.2358
24 1 15 1.1527 -0.6662
24 1 16 -0.6596 -0.1151
24 1 17 -0.8040 0.3774
24 2 0 3.5152 -0.0237
24 2 1 -4.7093 0.1532
24 2 2 0.9529 0.2423
24 2 3 -0.1910 0.0725
24 2 4 2.1990 -0.2201
24 2 5 0.4028 0.4059
24 2 6 2.1675 0.2057
24 2 7 8.1518 -0.0807
24 2 8 1.6360 -0.3040
24 2 9 2.3163 0.1856
24 2 10 0.5932 -0.0137
24 2 11 0.9754 0.2613
24 2 12 -2.2327 -0.1524
24 2 13 -0.6045 -0.1842
24 2 14 0.5009 -0.2679
24 2 15 -1.3219 0.1670
24 2 16 -3.1544 0.2102
24 2 17 -4.4182 0.1103
24 3 1 11.3780 0.5621
24 3 2 16.5884 0.5727
24 3 3 4.3974 -0.0314
24 3 4 -4.5266 -0.5050
24 3 5 -8.8486 0.1169
24 3 6 -5.1290 -0.1348
24 3 7 6.1203 0.0555
24 3 8 4.2391 0.3188
24 3 9 7.3943 -0.1425
24 3 10 -7.7396 0.0299
24 3 11 -1.8501 0.0456
24 3 12 -3.1469 -0.0927
24 3 13 2.9670 -0.0255
24 3 14 2.3860 0.0807
24 3 15 -2.0027 -0.0120
24 3 16 -0.3459 -0.0200
24 3 17 -3.2307 -0.0382
24 4 0 9.5808 -0.0800
24 4 1 2.5905 -0.2162
24 4 2 0.0632 0.0494
24 4 3 -2.4765 -0.6949
24 4 4 6.3978 0.4989
24 4 5 5.9801 0.2292
24 4 6 1.5751 0.6826
24 4 7 -3.4000 -0.4259
24 4 8 -2.7043 -0.2061
24 4 9 -0.5868 -0.4437
24 4 10 -1.4715 0.5952
24 4 11 -1.3517 0.1362
24 4 12 2.4339 0.1745
24 4 13 -2.7379 -0.5248
24 4 14 -1.2613 -0.1720
24 4 15 -2.3997 -0.0686
24 4 16 0.0404 0.4719
24 4 17 -0.2474 0.1166
24 5 1 6.1493 -0.1534
24 5 2 1.5779 0.2859
24 5 3 -1.6799 0.1472
24 5 4 -4.0954 0.2244
24 5 5 -2.3660 -0.1592
24 5 6 0.8256 -0.2437
24 5 7 -1.1744 -0.1093
24 5 8 2.8223 0.0466
24 5 9 -3.4323 0.2908
24 5 10 0.7194 0.2003
24 5 11 -4.5094 -0.1683
24 5 12 -0.2608 -0.1658
24 5 13 -4.0054 -0.1778
24 5 14 -0.1700 0.1460
24 5 15 1.9938 0.2079
24 5 16 1.8534 -0.0200
24 5 17 -1.1510 -0.1126
24 6 0 14.5430 -0.1507
24 6 1 4.6272 0.0211
24 6 2 6.9504 -0.2153
24 6 3 -5.1515 -0.3054
24 6 4 0.2695 0.0996
24 6 5 1.1135 0.1496
24 6 6 6.7785 0.4086
24 6 7 1.3665 -0.1189
24 6 8 0.9428 -0.1533
24 6 9 0.1110 -0.1525
24 6 10 -1.4160 0.1037
24 6 11 -2.7666 0.2445
24 6 12 -5.4738 0.0491
24 6 13 -0.2366 -0.2144
24 6 14 -1.3528 -0.1648
24 6 15 -1.8854 0.0268
24 6 16 2.4925 0.1717
24 6 17 2.2747 0.1319
24 7 1 1.6874 -0.0644
24 7 2 2.5545 -0.0486
24 7 3 -3.0672 0.1271
24 7 4 0.3256 0.1983
24 7 5 -0.9869 -0.0807
24 7 6 4.0971 -0.1166
24 7 7 5.4453 -0.0542
24 7 8 7.4959 -0.0268
24 7 9 2.2680 0.0899
24 7 10 -1.8268 0.0627
24 7 11 -1.0481 -0.0090
24 7 12 -0.0108 -0.0824
24 7 13 2.9816 -0.0848
24 7 14 -1.3432 0.0516
24 7 15 0.6882 0.0119
24 7 16 1.4742 0.0604
24 7 17 -0.5164 0.0115
24 8 0 -3.6954 -0.0849
24 8 1 -1.8597 0.2060
24 8 2 0.7397 -0.2006
24 8 3 0.0253 0.2390
24 8 4 -0.5652 -0.2998
24 8 5 0.1505 0.0947
24 8 6 -1.5402 -0.2502
24 8 7 -0.7082 0.3833
24 8 8 -3.4424 -0.1008
24 8 9 0.2675 0.1822
24 8 10 4.4066 -0.2549
24 8 11 8.6104 0.1402
24 8 12 10.8287 -0.1523
24 8 13 2.8621 0.2856
24 8 14 -0.3599 -0.2188
24 8 15 1.5682 0.1324
24 8 16 -0.2800 -0.0652
24 9 1 3.3026 0.1941
24 9 2 -0.3016 -0.0837
24 9 3 0.0295 0.0536
24 9 4 -4.2523 -0.0065
24 9 5 2.6783 -0.0223
24 9 6 1.4423 -0.0228
24 9 7 0.7036 0.0238
24 9 8 -3.2717 0.0117
24 9 9 -1.8838 -0.1124
24 9 10 -2.9717 -0.0661
24 9 11 1.3242 0.0611
24 9 12 0.8724 0.0782
24 9 13 -0.3679 0.0162
24 9 14 1.3214 0.0157
24 9 15 -0.6648 -0.1730
24 9 16 -1.2794 -0.0489
24 10 0 2.9581 0.1443
24 10 1 -6.3394 0.1845
24 10 2 -5.2516 0.0340
24 10 3 -7.9771 0.2469
24 10 4 -0.6713 -0.2521
24 10 5 -1.2961 -0.0610
24 10 6 -0.9561 -0.2005
24 10 7 -3.9345 0.1684
24 10 8 -5.1505 0.0381
24 10 9 -1.3074 0.1985
24 10 10 0.1349 -0.2389
24 10 11 3.7671 0.1117
24 10 12 0.2533 -0.1114
24 10 13 1.3960 0.1134
24 10 14 1.3922 -0.0145
24 10 15 -0.8705 0.1437
24 10 16 2.1204 -0.1108
24 11 1 -8.2849 0.0017
24 11 2 -6.2834 0.1013
24 11 3 -0.5157 0.0593
24 11 4 4.3300 -0.0830
24 11 5 -2.4398 0.0127
24 11 6 -3.0184 -0.0950
24 11 7 -0.8245 -0.0033
24 11 8 3.8554 -0.0098
24 11 9 -1.3446 0.0058
24 11 10 -0.6177 -0.0051
24 11 11 -2.0876 -0.0705
24 11 12 4.8245 0.1005
24 11 13 2.5150 0.0419
24 11 14 -1.6888 0.0676
24 11 15 -3.7181 -0.0506
24 11 16 -0.3507 -0.1753
24 12 0 10.6519 0.1256
24 12 1 7.3812 0.2510
24 12 2 1.8921 0.3651
24 12 3 -3.8294 -0.2129
24 12 4 -0.6711 0.0401
24 12 5 0.4178 -0.1903
24 12 6 3.0395 0.0309
24 12 7 -0.9860 -0.0291
24 12 8 -3.4745 0.0439
24 12 9 -5.6731 -0.0483
24 12 10 -2.5674 0.1245
24 12 11 3.0919 -0.0705
24 12 12 4.4233 0.0028
24 12 13 0.5834 -0.0248
24 12 14 -1.1845 0.0507
24 12 15 1.7071 0.0103
24 13 1 -5.6990 -0.1581
24 13 2 -6.5551 0.0590
24 13 3 -2.9781 0.0278
24 13 4 -0.8277 0.0237
24 13 5 0.1028 -0.0113
24 13 6 0.5837 -0.1141
24 13 7 -0.1689 -0.0563
24 13 8 -0.2268 -0.0492
24 13 9 0.4497 0.0755
24 13 10 -0.7160 0.0362
24 13 11 0.3422 0.0207
24 13 12 -3.3835 -0.0773
24 13 13 -1.2680 0.0196
24 13 14 -3.9387 0.0475
24 13 15 -0.8561 0.0722
24 14 0 3.7729 0.0750
24 14 1 2.5109 0.1697
24 14 2 0.0814 0.3278
24 14 3 -1.2608 -0.1833
24 14 4 -6.8080 0.0137
24 14 5 -3.8119 -0.2421
24 14 6 -3.7035 0.3353
24 14 7 6.9457 -0.3234
24 14 8 3.7002 0.0702
24 14 9 1.4236 -0.1706
24 14 10 -2.0253 0.2780
24 14 11 -1.6595 -0.0638
24 14 12 1.8972 0.0927
24 14 13 0.7657 -0.2748
24 14 14 -1.8243 0.1140
24 15 1 5.2982 -0.3861
24 15 2 9.3590 0.0278
24 15 3 18.4870 0.0321
24 15 4 9.5236 0.0950
24 15 5 4.5023 -0.1197
24 15 6 -5.5755 -0.1237
24 15 7 -1.6025 0.0815
24 15 8 1.6418 -0.0885
24 15 9 -0.5699 0.1186
24 15 10 -2.6547 -0.0666
24 15 11 -0.4963 -0.0861
24 15 12 0.7390 -0.0698
24 15 13 -2.4230 -0.0314
24 15 14 -1.6837 0.1060
24 16 0 3.6663 0.1103
24 16 1 2.1276 0.2411
24 16 2 0.4579 0.1788
24 16 3 -3.9511 -0.1112
24 16 4 -1.0373 -0.0542
24 16 5 0.5450 -0.1529
24 16 6 6.8920 0.1478
24 16 7 0.4075 -0.2030
24 16 8 1.2363 -0.0410
24 16 9 -0.9312 -0.0690
24 16 10 -2.0896 0.2260
24 16 11 -1.2745 0.0417
24 16 12 -1.1886 -0.0071
24 16 13 -0.3281 -0.0770
24 17 1 -2.4718 -0.2216
24 17 2 -5.1349 0.0233
24 17 3 -2.6910 -0.0226
24 17 4 2.6106 -0.0780
24 17 5 3.0148 -0.1037
24 17 6 -0.5566 0.0581
24 17 7 0.8262 0.0859
24 17 8 0.9952 0.0190
24 17 9 1.8590 -0.1261
24 17 10 -1.6446 -0.1195
24 17 11 -4.6700 0.0443
24 17 12 -3.2928 -0.2296
24 17 13 -1.0703 -0.0582
24 18 0 1.5623 0.2481
24 18 1 3.5438 0.2280
24 18 2 -0.4786 0.2053
24 18 3 -0.8396 0.0830
24 18 4 -1.0936 -0.2359
24 18 5 1.6610 -0.1502
24 18 6 0.2016 -0.1702
24 18 7 2.4067 0.0761
24 18 8 -2.4271 -0.0388
24 18 9 -0.1458 0.1069
24 18 10 -0.2959 0.0991
24 18 11 1.2276 0.0537
24 18 12 0.2270 -0.2230
24 19 1 -3.5771 -0.0957
24 19 2 -3.8520 0.0833
24 19 3 2.7957 -0.0986
24 19 4 0.3155 -0.1611
24 19 5 2.2005 -0.1190
24 19 6 -0.6114 0.1448
24 19 7 1.2429 0.2606
24 19 8 1.5052 -0.0542
24 19 9 1.0576 -0.1895
24 19 10 -1.9738 -0.2532
24 19 11 -0.8509 0.0487
24 19 12 -0.1471 0.0750
24 20 0 0.6880 0.2792
24 20 1 -2.6924 0.2464
24 20 2 1.8969 0.2630
24 20 3 1.1233 -0.1182
24 20 4 -1.1274 -0.1077
24 20 5 -0.8245 -0.2435
24 20 6 -0.4942 0.1139
24 20 7 -0.6630 -0.0170
24 20 8 -2.2362 -0.0288
24 20 9 -3.8991 -0.0278
24 20 10 0.3883 0.2070
24 20 11 0.7052 0.1449
24 21 1 -2.6981 0.0767
24 21 2 -2.0796 0.0991
24 21 3 0.2089 -0.1214
24 21 4 2.0411 -0.2655
24 21 5 1.5320 0.0179
24 21 6 0.8117 0.0683
24 21 7 0.1549 0.2789
24 21 8 2.1475 0.0373
24 21 9 -0.2810 -0.1262
24 21 10 3.7045 -0.2552
24 22 0 -3.5872 0.0648
24 22 1 -1.5125 -0.0969
24 22 2 -0.3340 0.1220
24 22 3 2.4323 -0.0614
24 22 4 5.1172 0.0344
24 22 5 1.3898 -0.1291
24 22 6 -0.5029 0.2083
24 22 7 0.1740 -0.0001
24 22 8 -0.0013 0.1292
24 22 9 2.8770 -0.1816
24 23 1 1.7728 0.2242
24 23 2 -1.4676 -0.0463
24 23 3 0.7710 -0.1082
24 23 4 0.2787 -0.0620
24 23 5 1.2839 0.0280
24 23 6 -1.4067 -0.0174
24 23 7 -1.4895 0.0066
24 23 8 0.1649 0.0950
24 24 0 4.7216 -0.2294
24 24 1 3.3465 -0.1366
24 24 2 1.3715 0.0380
24 24 3 -1.3982 -0.1686
24 24 4 -2.8890 0.1593
24 24 5 -1.5885 0.0064
24 24 6 -1.3586 0.1663
24 25 1 -0.8610 0.0737
24 25 2 0.6198 0.2219
24 25 3 0.6660 -0.0115
24 25 4 -0.7930 -0.1207
25 1 0 7.1676 -0.5147
25 1 1 -2.1075 0.2907
25 1 2 3.1544 -0.3512
25 1 3 -6.9147 0.3395
25 1 4 0.8521 -0.1302
25 1 5 -7.7159 0.2560
25 1 6 2.5544 -0.2814
25 1 7 -2.4312 0.2706
25 1 8 1.7481 -0.3329
25 1 9 -3.1251 0.3079
25 1 10 2.5773 -0.1640
25 1 11 0.0840 0.2853
25 1 12 2.0913 -0.0707
25 1 13 -2.1414 0.0692
25 1 14 1.5110 -0.3357
25 1 15 -0.7494 0.0681
25 1 16 3.1702 0.0077
25 1 17 3.7184 0.2561
25 2 1 2.2664 -0.3082
25 2 2 4.0994 -0.8318
25 2 3 7.3540 -0.2577
25 2 4 -1.9402 0.7543
25 2 5 -6.0349 0.4412
25 2 6 -0.5071 -0.1908
25 2 7 3.2580 -0.4616
25 2 8 2.8576 -0.0305
25 2 9 -0.1475 0.4770
25 2 10 0.2379 0.1923
25 2 11 1.7694 -0.1997
25 2 12 -0.0688 -0.3205
25 2 13 -1.1811 -0.1375
25 2 14 1.2996 0.4126
25 2 15 5.5129 0.2048
25 2 16 4.2641 -0.2355
25 2 17 2.7702 -0.3440
25 3 0 -6.9939 -0.0590
25 3 1 5.3755 0.2612
25 3 2 -3.1879 -0.4496
25 3 3 3.7461 0.1787
25 3 4 -4.5229 -0.1393
25 3 5 7.7077 0.3775
25 3 6 -1.3617 -0.1806
25 3 7 -1.0219 0.0770
25 3 8 -6.9205 -0.2070
25 3 9 -0.3045 0.0504
25 3 10 -1.7928 -0.0750
25 3 11 0.2774 0.4870
25 3 12 -0.9208 -0.2012
25 3 13 3.7093 -0.0446
25 3 14 -2.3121 -0.1929
25 3 15 -0.5973 -0.0233
25 3 16 -1.3188 0.0736
25 3 17 0.8614 0.1242
25 4 1 4.1757 -0.4127
25 4 2 2.3610 -0.4392
25 4 3 -7.9468 0.2248
25 4 4 -1.6238 0.1994
25 4 5 4.0476 0.2040
25 4 6 0.9067 -0.1265
25 4 7 0.0468 -0.2979
25 4 8 -4.3824 0.1164
25 4 9 -0.6381 0.2387
25 4 10 1.3117 0.2577
25 4 11 3.4162 -0.1461
25 4 12 1.3427 -0.3239
25 4 13 2.7662 -0.0915
25 4 14 1.6161 0.2327
25 4 15 0.3203 0.2036
25 4 16 -1.3411 0.0401
25 5 0 13.5689 0.0626
25 5 1 -6.6915 -0.3264
25 5 2 7.6021 0.0858
25 5 3 -5.5762 -0.1944
25 5 4 6.5095 0.0430
25 5 5 -3.6472 0.1531
25 5 6 5.2324 0.0876
25 5 7 -0.8239 -0.0811
25 5 8 2.3460 -0.1285
25 5 9 -2.0965 -0.0112
25 5 10 0.9539 0.0948
25 5 11 -3.2136 -0.0271
25 5 12 0.0977 0.1399
25 5 13 -3.9533 -0.1020
25 5 14 3.2446 -0.1182
25 5 15 -3.4317 0.0153
25 5 16 -3.0438 -0.0269
25 6 1 4.4673 -0.0092
25 6 2 8.1650 0.2442
25 6 3 15.9546 0.1338
25 6 4 1.2625 -0.1145
25 6 5 -2.2833 -0.2527
25 6 6 -7.3589 -0.0191
25 6 7 -4.9979 0.2480
25 6 8 -6.3772 0.1185
25 6 9 -1.1496 -0.0421
25 6 10 -3.2767 -0.0618
25 6 11 0.1474 0.0396
25 6 12 1.3085 0.0226
25 6 13 -0.5164 0.0325
25 6 14 -0.0584 -0.0396
25 6 15 -2.4644 0.0548
25 6 16 0.8113 -0.0109
25 7 0 -8.9109 0.0339
25 7 1 8.2179 0.0191
25 7 2 -8.2454 -0.0726
25 7 3 0.7278 -0.2161
25 7 4 -8.3166 0.0592
25 7 5 4.1361 0.0797
25 7 6 -0.1557 0.2232
25 7 7 5.6070 0.0470
25 7 8 -0.7955 -0.2809
25 7 9 3.5762 -0.0464
25 7 10 -0.3647 0.0698
25 7 11 1.2553 0.1383
25 7 12 -4.3922 -0.0519
25 7 13 -1.6062 -0.1435
25 7 14 -2.3452 -0.1121
25 7 15 1.0689 0.0371
25 7 16 2.0748 0.1283
25 8 1 4.6192 0.2067
25 8 2 3.1331 0.3702
25 8 3 -12.2382 -0.0051
25 8 4 -7.3594 -0.1186
25 8 5 -10.4525 -0.1842
25 8 6 -0.5814 0.0732
25 8 7 4.4720 0.1580
25 8 8 7.5641 0.0711
25 8 9 4.7469 -0.1110
25 8 10 1.3817 -0.0879
25 8 11 0.0658 0.1965
25 8 12 -0.8236 0.1599
25 8 13 1.6577 0.0226
25 8 14 0.4289 -0.1138
25 8 15 0.0664 -0.0273
25 8 16 -1.4207 -0.0439
25 9 0 4.8330 -0.0674
25 9 1 -9.7837 0.2563
25 9 2 1.9885 -0.1574
25 9 3 -7.7432 0.0869
25 9 4 1.0282 -0.1435
25 9 5 -5.6628 0.2280
25 9 6 0.8884 -0.0265
25 9 7 -3.6855 0.1951
25 9 8 2.4082 -0.1985
25 9 9 -3.8819 0.0593
25 9 10 -1.4333 -0.1303
25 9 11 -8.5038 0.2184
25 9 12 -2.7032 -0.2245
25 9 13 -1.1717 -0.0291
25 9 14 4.8075 -0.1314
25 9 15 4.7250 0.1361
25 9 16 -0.2216 -0.0029
25 10 1 3.0693 0.2004
25 10 2 -0.9702 0.1247
25 10 3 -0.8793 0.1210
25 10 4 -7.6586 0.1314
25 10 5 0.1500 -0.0424
25 10 6 -2.7707 -0.0110
25 10 7 0.3512 -0.1593
25 10 8 0.0053 0.0571
25 10 9 1.0895 0.0545
25 10 10 -2.7211 0.0959
25 10 11 -4.4169 0.0692
25 10 12 -2.4649 0.0814
25 10 13 0.2270 -0.0007
25 10 14 0.8076 0.0117
25 10 15 0.8815 -0.0214
25 11 0 2.0977 -0.0906
25 11 1 -1.2048 0.2508
25 11 2 -2.2361 -0.0785
25 11 3 -1.0201 0.2213
25 11 4 0.4039 -0.2383
25 11 5 0.3708 0.2203
25 11 6 -3.8280 -0.1102
25 11 7 0.1779 0.2380
25 11 8 -0.3692 -0.1670
25 11 9 5.2883 0.1283
25 11 10 -0.8983 -0.1551
25 11 11 0.1625 0.1581
25 11 12 -3.6527 -0.1799
25 11 13 -0.3530 0.0117
25 11 14 0.3788 -0.0802
25 11 15 -0.6293 0.0206
25 12 1 1.5616 0.0260
25 12 2 1.4879 0.0331
25 12 3 -1.6440 0.2854
25 12 4 -1.6572 0.2277
25 12 5 -0.9463 -0.0329
25 12 6 1.8331 -0.1535
25 12 7 1.8499 -0.1533
25 12 8 0.8962 0.0802
25 12 9 1.4493 0.0659
25 12 10 -0.4878 0.1940
25 12 11 -0.7463 -0.0814
25 12 12 0.6245 -0.0192
25 12 13 2.9150 -0.0228
25 12 14 5.0343 0.1246
25 12 15 -0.6846 0.0453
25 13 0 5.7624 -0.0720
25 13 1 3.5446 0.0466
25 13 2 -3.7193 0.1687
25 13 3 -7.0758 0.0488
25 13 4 1.4812 -0.1608
25 13 5 1.8799 0.0536
25 13 6 2.6857 -0.0695
25 13 7 -4.8955 0.1906
25 13 8 -2.0071 -0.1363
25 13 9 -1.0817 0.1213
25 13 10 1.4143 -0.0578
25 13 11 0.0583 0.0563
25 13 12 -1.8675 -0.0068
25 13 13 -2.3892 0.0364
25 13 14 -4.5945 -0.1750
25 14 1 0.7295 -0.0003
25 14 2 0.3758 0.0821
25 14 3 -1.3519 0.2237
25 14 4 0.4915 -0.0330
25 14 5 -1.7632 -0.0051
25 14 6 -0.8303 -0.0563
25 14 7 0.9453 0.0742
25 14 8 0.5805 0.0408
25 14 9 1.6471 -0.1380
25 14 10 0.3333 -0.0610
25 14 11 1.0225 0.1177
25 14 12 -0.9636 0.1195
25 14 13 -4.0057 -0.1071
25 14 14 -2.3977 -0.1109
25 15 0 4.1058 -0.1038
25 15 1 2.7083 -0.0807
25 15 2 3.5493 0.1013
25 15 3 -1.1259 0.0747
25 15 4 -4.5895 -0.0382
25 15 5 2.1686 -0.1748
25 15 6 1.4736 -0.0691
25 15 7 -1.4075 0.0562
25 15 8 -5.8132 0.0461
25 15 9 -2.8869 0.0586
25 15 10 -1.2077 0.0757
25 15 11 0.0238 -0.0038
25 15 12 7.5285 0.0114
25 15 13 6.4198 0.0011
25 16 1 2.7571 -0.1012
25 16 2 4.8438 0.0043
25 16 3 3.7263 0.0126
25 16 4 0.9563 -0.0063
25 16 5 1.6581 -0.0538
25 16 6 -2.0520 0.0192
25 16 7 0.2239 0.1503
25 16 8 3.4807 -0.0041
25 16 9 2.8627 -0.1390
25 16 10 1.7973 -0.2545
25 16 11 -0.1442 0.0943
25 16 12 -0.6159 0.2882
25 16 13 1.6902 -0.0159
25 17 0 3.4280 -0.1416
25 17 1 -3.3730 -0.1014
25 17 2 -3.7278 -0.0087
25 17 3 -4.0382 0.0512
25 17 4 3.8169 0.0627
25 17 5 -1.8973 -0.1823
25 17 6 -1.1209 -0.0475
25 17 7 -1.7396 -0.1229
25 17 8 3.0475 0.0872
25 17 9 -0.3725 0.0421
25 17 10 1.9347 0.1801
25 17 11 3.4336 0.1017
25 17 12 -0.1110 -0.0211
25 18 1 1.8837 -0.0418
25 18 2 -1.5550 -0.0528
25 18 3 2.2752 -0.0814
25 18 4 -1.1821 0.0649
25 18 5 -1.8170 -0.0334
25 18 6 -1.3606 -0.0119
25 18 7 -2.0165 -0.0015
25 18 8 -2.6627 0.0019
25 18 9 0.1342 -0.1131
25 18 10 -0.5318 -0.0947
25 18 11 0.3691 0.0453
25 19 0 0.1212 -0.0781
25 19 1 5.5949 -0.1668
25 19 2 1.5998 -0.0456
25 19 3 2.0843 0.1541
25 19 4 -1.8583 -0.0750
25 19 5 2.5534 0.0156
25 19 6 6.4858 -0.1621
25 19 7 8.9579 0.0487
25 19 8 3.5800 -0.1255
25 19 9 2.9938 0.1578
25 19 10 -2.1978 0.0477
25 19 11 -2.5273 0.1354
25 20 1 1.7223 -0.0388
25 20 2 1.3145 -0.0307
25 20 3 -1.7454 -0.0659
25 20 4 0.4852 0.1488
25 20 5 8.9657 0.0311
25 20 6 0.7553 -0.0607
25 20 7 -0.1058 -0.2232
25 20 8 -4.9623 -0.0225
25 20 9 0.8980 0.0342
25 20 10 0.9580 -0.0664
25 21 0 -1.1886 0.0853
25 21 1 -2.8302 -0.2453
25 21 2 -2.0522 0.0321
25 21 3 -3.7911 0.1067
25 21 4 -0.0639 0.0775
25 21 5 -0.0728 -0.1269
25 21 6 1.7873 -0.1576
25 21 7 -3.2238 0.0256
25 21 8 1.4503 0.2132
25 21 9 -0.9243 -0.1316
25 22 1 0.2888 0.0965
25 22 2 -2.6239 -0.0696
25 22 3 2.6943 -0.0547
25 22 4 2.9907 -0.0491
25 22 5 1.9225 0.0696
25 22 6 0.5887 -0.0570
25 22 7 0.7846 0.1099
25 22 8 2.9099 -0.0033
25 23 0 1.8827 0.1307
25 23 1 1.1497 -0.0699
25 23 2 2.5195 0.0236
25 23 3 0.3694 0.0117
25 23 4 -2.4761 0.1428
25 23 5 -0.9398 -0.3043
25 23 6 -0.6805 0.1503
25 24 1 -6.5870 0.2695
25 24 2 -2.3853 0.2293
25 24 3 1.4608 -0.1025
25 24 4 0.7975 -0.5172
25 24 5 -1.0389 -0.2668
25 25 0 6.5349 0.1717
25 25 1 5.2112 -0.2110
26 0 0 11.9566 1.3011
26 0 1 30.5826 0.7171
26 0 2 4.1750 0.7671
26 0 3 13.3951 1.0529
26 0 4 -6.4601 -0.2489
26 0 5 7.9121 -0.7857
26 0 6 -1.4642 -1.3039
26 0 7 2.1591 0.8961
26 0 8 -2.2974 0.8726
26 0 9 2.2083 0.6128
26 0 10 -6.1023 -0.7444
26 0 11 1.9344 -0.7694
26 0 12 -0.8922 -0.4258
26 0 13 1.1252 0.8979
26 0 14 -4.8696 0.5030
26 0 15 -1.9911 0.0091
26 0 16 0.6780 -0.7278
26 1 1 -5.0774 -0.3926
26 1 2 -5.8856 -1.1531
26 1 3 -1.2124 0.2827
26 1 4 -1.0180 1.1768
26 1 5 2.6109 0.0731
26 1 6 3.7357 -0.3806
26 1 7 2.6377 -0.6717
26 1 8 -1.6403 -0.3995
26 1 9 -4.0143 0.5957
26 1 10 1.8993 0.4965
26 1 11 -0.4415 0.0313
26 1 12 -0.5021 -0.6276
26 1 13 -3.6375 -0.1781
26 1 14 0.8564 0.1316
26 1 15 2.3941 0.4259
26 1 16 -0.1184 -0.0744
26 2 0 2.3119 -0.6172
26 2 1 -11.1464 0.3641
26 2 2 1.5292 0.4112
26 2 3 -9.4971 0.0066
26 2 4 5.7080 0.0757
26 2 5 -1.9924 0.0288
26 2 6 7.3789 -0.2566
26 2 7 -1.1298 0.0212
26 2 8 1.7935 0.0039
26 2 9 -5.0799 0.1243
26 2 10 2.6309 -0.0698
26 2 11 -1.7612 -0.0281
26 2 12 2.2787 0.0401
26 2 13 1.8783 -0.1855
26 2 14 1.2653 -0.0357
26 2 15 0.2672 0.1172
26 2 16 -0.3731 -0.0551
26 3 1 -7.4069 -0.3736
26 3 2 -9.5707 -0.1338
26 3 3 -5.0066 -0.2994
26 3 4 2.2614 0.0202
26 3 5 6.1173 0.3292
26 3 6 1.8258 -0.0639
26 3 7 -1.8188 -0.1659
26 3 8 -4.4544 -0.0264
26 3 9 1.1213 -0.0654
26 3 10 1.4769 -0.0622
26 3 11 6.8256 0.1246
26 3 12 0.9345 0.0083
26 3 13 2.1964 0.0966
26 3 14 1.1929 0.0346
26 3 15 2.6803 -0.0673
26 3 16 0.9907 -0.2799
26 4 0 -15.4072 -0.2501
26 4 1 8.5124 -0.3060
26 4 2 -17.9099 -0.0445
26 4 3 8.4282 0.0746
26 4 4 -8.3167 0.0632
26 4 5 9.3215 0.1962
26 4 6 -6.7703 0.4604
26 4 7 2.3599 -0.5090
26 4 8 -5.1508 -0.2956
26 4 9 3.5754 -0.2260
26 4 10 -2.7724 0.3918
26 4 11 1.9034 0.2256
26 4 12 -0.7963 0.0975
26 4 13 3.8056 -0.4658
26 4 14 1.6495 -0.2077
26 4 15 1.7427 -0.0985
26 4 16 -4.8280 0.3663
26 5 1 -7.3094 0.0474
26 5 2 -4.3444 0.0116
26 5 3 3.1928 -0.2189
26 5 4 3.8409 -0.2201
26 5 5 0.8571 -0.0518
26 5 6 -0.0911 0.1555
26 5 7 -4.0899 0.1481
26 5 8 -4.8397 -0.0603
26 5 9 -5.7818 -0.1676
26 5 10 2.0580 -0.0579
26 5 11 -0.0852 -0.0005
26 5 12 3.3757 0.1840
26 5 13 0.2500 0.0516
26 5 14 -0.9890 -0.0344
26 5 15 -0.1116 -0.0590
26 5 16 -2.3649 -0.0880
26 6 0 11.1147 -0.0921
26 6 1 -9.6300 -0.2189
26 6 2 10.1706 0.0734
26 6 3 -12.2123 -0.0915
26 6 4 3.8019 0.2957
26 6 5 -10.5655 0.0616
26 6 6 5.2380 0.1868
26 6 7 -9.1742 -0.2458
26 6 8 1.2052 -0.0907
26 6 9 -6.2406 -0.3794
26 6 10 5.2867 0.3933
26 6 11 -0.2705 0.0132
26 6 12 1.0791 0.1565
26 6 13 0.5688 -0.3181
26 6 14 1.3468 -0.0627
26 6 15 -0.8956 -0.2193
26 6 16 1.1832 0.2124
26 7 1 -0.8353 0.1822
26 7 2 -3.7927 0.1138
26 7 3 -0.4564 0.0604
26 7 4 0.8207 -0.1670
26 7 5 5.9217 -0.1813
26 7 6 -2.8573 -0.0264
26 7 7 -3.0848 0.1276
26 7 8 -5.3358 0.0633
26 7 9 2.4501 0.0350
26 7 10 4.4775 -0.0360
26 7 11 2.8343 -0.0174
26 7 12 -1.0622 -0.1470
26 7 13 -2.6717 -0.0007
26 7 14 0.2499 0.1475
26 7 15 -1.5593 0.1132
26 8 0 -10.8894 -0.0391
26 8 1 15.2669 0.0075
26 8 2 -5.8902 0.2035
26 8 3 12.2059 0.1236
26 8 4 -9.4458 0.1489
26 8 5 6.6463 -0.0596
26 8 6 -9.0493 -0.1410
26 8 7 3.5116 0.0741
26 8 8 -4.3320 0.0591
26 8 9 6.3458 -0.0755
26 8 10 -3.3098 -0.0752
26 8 11 0.2794 -0.0459
26 8 12 -1.8236 0.1357
26 8 13 -0.9752 -0.0926
26 8 14 -1.6030 -0.0418
26 8 15 -1.3891 0.0168
26 9 1 -0.4242 0.1202
26 9 2 2.4209 0.1006
26 9 3 4.2258 0.1165
26 9 4 3.7609 -0.0312
26 9 5 0.5894 -0.1753
26 9 6 0.1459 -0.0325
26 9 7 -2.6918 0.0774
26 9 8 -1.5921 0.0358
26 9 9 3.3137 0.1129
26 9 10 2.9508 0.0123
26 9 11 2.4205 0.0187
26 9 12 -5.0742 -0.2527
26 9 13 -2.6958 0.0088
26 9 14 -1.1539 -0.0202
26 9 15 1.4578 0.2306
26 10 0 12.1992 0.0944
26 10 1 0.4218 0.0923
26 10 2 -0.3125 0.1757
26 10 3 -6.0938 0.3554
26 10 4 3.2890 -0.0786
26 10 5 -4.5206 -0.0972
26 10 6 4.4960 -0.2184
26 10 7 -2.9590 0.1684
26 10 8 4.2912 0.1542
26 10 9 -4.1062 0.0597
26 10 10 4.6927 -0.2235
26 10 11 -3.2571 -0.0730
26 10 12 -0.9312 0.0030
26 10 13 -3.2546 0.0748
26 10 14 -1.9506 0.0069
26 10 15 -0.1975 0.1200
26 11 1 2.1896 -0.0501
26 11 2 2.5939 0.0946
26 11 3 -2.9548 0.0881
26 11 4 -1.5145 -0.0221
26 11 5 0.2936 -0.1433
26 11 6 -0.2605 0.0397
26 11 7 -0.7115 0.0854
26 11 8 -1.9062 0.0852
26 11 9 0.0063 -0.0292
26 11 10 -0.5944 -0.0232
26 11 11 -6.2009 0.0941
26 11 12 -2.3440 -0.0637
26 11 13 -1.9171 -0.0459
26 11 14 -1.0610 -0.1400
26 12 0 -6.0838 0.2406
26 12 1 2.6820 0.1937
26 12 2 13.7161 0.0339
26 12 3 13.5276 0.1402
26 12 4 2.8390 -0.0526
26 12 5 3.4579 -0.0081
26 12 6 -2.7790 -0.1152
26 12 7 -1.3178 0.0931
26 12 8 -3.3418 0.0777
26 12 9 1.8017 0.0576
26 12 10 -1.8216 -0.0979
26 12 11 2.0607 -0.0275
26 12 12 0.3831 0.0062
26 12 13 0.9369 -0.0970
26 12 14 -1.4936 -0.0323
26 13 1 -1.7832 -0.1958
26 13 2 -2.3227 0.0974
26 13 3 0.6241 0.0287
26 13 4 2.4124 -0.0104
26 13 5 -1.5213 -0.0908
26 13 6 -0.3445 0.0559
26 13 7 -1.1000 0.0586
26 13 8 2.7543 0.1227
26 13 9 0.3860 -0.1686
26 13 10 0.0075 0.0489
26 13 11 -0.6699 0.0978
26 13 12 -2.2529 0.1221
26 13 13 -2.2366 -0.1909
26 13 14 -0.1062 -0.1079
26 14 0 -0.8092 0.1521
26 14 1 -0.1096 0.0414
26 14 2 -1.1591 -0.0698
26 14 3 -1.4338 -0.0333
26 14 4 -0.2552 0.0297
26 14 5 -3.4786 0.1176
26 14 6 -1.0832 -0.0392
26 14 7 0.0932 -0.0494
26 14 8 1.6904 -0.0297
26 14 9 -0.0495 0.0579
26 14 10 -0.0547 0.1550
26 14 11 -1.1610 -0.0665
26 14 12 0.7414 0.0042
26 14 13 1.2620 -0.0968
26 15 1 3.0763 0.0153
26 15 2 9.3904 -0.1047
26 15 3 7.4658 0.0980
26 15 4 1.9062 -0.0043
26 15 5 -1.4602 -0.1299
26 15 6 -3.1795 0.1218
26 15 7 -2.3667 0.0751
26 15 8 -3.8271 0.0298
26 15 9 -1.3609 -0.2107
26 15 10 -1.1122 0.0349
26 15 11 -0.3652 0.1424
26 15 12 -0.9640 0.2482
26 15 13 -1.8044 -0.0886
26 16 0 6.9824 0.0444
26 16 1 4.1014 0.0287
26 16 2 -4.6211 -0.0893
26 16 3 -1.5344 0.0122
26 16 4 -2.1111 -0.0462
26 16 5 -0.7608 0.1089
26 16 6 -1.5626 -0.0551
26 16 7 -0.4844 -0.0341
26 16 8 0.8626 -0.0286
26 16 9 -1.3729 0.0781
26 16 10 0.0765 0.1116
26 16 11 -0.4650 0.0878
26 16 12 -0.6724 -0.0830
26 17 1 3.8412 0.0580
26 17 2 3.6751 -0.1172
26 17 3 -2.9453 0.1418
26 17 4 2.2349 0.0821
26 17 5 -4.0325 0.0341
26 17 6 -0.8201 -0.1175
26 17 7 0.2349 0.0169
26 17 8 3.1412 0.1009
26 17 9 -0.4913 -0.1086
26 17 10 -4.2255 -0.0783
26 17 11 -2.7566 0.1043
26 18 0 -3.7425 0.1096
26 18 1 -2.9237 0.0708
26 18 2 3.5750 -0.0771
26 18 3 -2.3764 0.2477
26 18 4 -3.1706 -0.0397
26 18 5 -4.3465 -0.1022
26 18 6 0.5695 -0.3124
26 18 7 2.0031 0.1480
26 18 8 1.7674 0.0829
26 18 9 -0.2503 0.2161
26 18 10 -0.8264 -0.0838
26 18 11 1.5759 -0.0023
26 19 1 1.4894 0.0870
26 19 2 5.4930 -0.0227
26 19 3 2.2388 0.1044
26 19 4 -0.7407 0.1122
26 19 5 -3.8814 0.0014
26 19 6 0.9522 -0.0166
26 19 7 -0.8403 -0.0265
26 19 8 1.3628 0.0569
26 19 9 0.5117 0.0132
26 19 10 0.7777 -0.0978
26 20 0 -2.8416 0.1112
26 20 1 -2.2557 0.1516
26 20 2 2.2013 -0.0054
26 20 3 3.9535 0.2952
26 20 4 -0.2367 -0.1907
26 20 5 -1.3080 -0.0376
26 20 6 -2.3602 -0.3247
26 20 7 0.7755 0.1475
26 20 8 0.7886 -0.0815
26 20 9 0.8122 0.3368
26 21 1 2.1965 0.0637
26 21 2 1.4773 0.1174
26 21 3 0.5144 0.0373
26 21 4 1.4326 0.0367
26 21 5 1.3406 -0.1318
26 21 6 -1.2398 0.1001
26 21 7 0.7818 0.0204
26 21 8 1.1734 0.2508
26 22 0 1.2567 -0.0143
26 22 1 5.3192 0.1677
26 22 2 3.1181 0.0244
26 22 3 3.1585 0.0922
26 22 4 1.1752 -0.1885
26 22 5 -3.0805 -0.0287
26 22 6 0.6059 0.0096
26 22 7 0.6369 -0.0849
26 23 1 -5.8689 -0.0161
26 23 2 -2.0437 0.2207
26 23 3 1.4867 0.0279
26 23 4 0.3561 -0.1803
26 23 5 -3.5986 0.0069
26 24 0 -1.1287 -0.3287
26 24 1 -3.9232 -0.1901
26 24 2 -2.2489 0.1659
27 1 0 -10.1533 -0.5530
27 1 1 -0.7721 0.0012
27 1 2 -12.8196 -0.0929
27 1 3 0.1995 0.1797
27 1 4 -1.8002 -0.6040
27 1 5 2.0210 0.2561
27 1 6 -1.2495 -0.3968
27 1 7 4.2082 0.4274
27 1 8 -2.7428 0.0300
27 1 9 0.7357 0.3255
27 1 10 -0.5819 -0.5342
27 1 11 0.2959 0.0148
27 1 12 -2.1930 -0.1740
27 1 13 0.0306 0.3656
27 1 14 5.2404 -0.1437
27 1 15 -0.0926 0.4477
27 2 1 -0.9664 0.4021
27 2 2 -2.0841 -0.0459
27 2 3 0.9635 -0.1563
27 2 4 -1.7584 0.0187
27 2 5 -1.5752 0.0877
27 2 6 2.4086 0.1905
27 2 7 2.6047 -0.0729
27 2 8 4.0606 -0.0577
27 2 9 -0.3805 0.0112
27 2 10 2.0633 -0.2385
27 2 11 -2.6811 0.1230
27 2 12 -0.0740 0.2672
27 2 13 -4.4326 -0.2009
27 2 14 -0.7416 0.1206
27 2 15 -0.2500 0.0746
27 3 0 2.0499 0.1791
27 3 1 -7.1583 0.2766
27 3 2 3.5666 -0.4719
27 3 3 -7.0838 -0.0897
27 3 4 2.6638 -0.5152
27 3 5 -0.4273 0.5486
27 3 6 7.3661 -0.0925
27 3 7 -2.1127 0.3328
27 3 8 3.2595 -0.5156
27 3 9 -3.2666 0.1885
27 3 10 -0.2172 -0.0804
27 3 11 -3.9265 0.2483
27 3 12 -3.2752 -0.2627
27 3 13 0.9598 0.0066
27 3 14 1.2657 -0.1587
27 3 15 3.9470 0.3402
27 4 1 -5.0619 0.0676
27 4 2 -4.7677 -0.1494
27 4 3 -4.5325 0.0757
27 4 4 1.9577 -0.0703
27 4 5 2.0620 0.0824
27 4 6 -1.3916 0.1564
27 4 7 -0.1713 -0.0579
27 4 8 0.9444 -0.0352
27 4 9 2.6219 -0.0915
27 4 10 0.1472 -0.0627
27 4 11 1.2228 -0.0420
27 4 12 -3.0015 -0.0414
27 4 13 1.1711 0.1740
27 4 14 0.5565 -0.0095
27 4 15 1.4385 0.0243
27 5 0 3.2063 0.1076
27 5 1 10.8437 -0.1877
27 5 2 -5.3724 -0.0326
27 5 3 6.3129 -0.0340
27 5 4 -5.5500 0.2166
27 5 5 4.7825 -0.1635
27 5 6 -5.0753 0.0158
27 5 7 4.9315 -0.1223
27 5 8 -5.5395 0.2834
27 5 9 2.4520 -0.0579
27 5 10 -3.4941 0.0235
27 5 11 2.5276 -0.2304
27 5 12 0.6148 -0.0242
27 5 13 1.4822 -0.0423
27 5 14 0.4682 0.1828
27 5 15 -2.5037 0.0551
27 6 1 -7.4285 0.1458
27 6 2 -7.5266 0.1486
27 6 3 2.8806 -0.0162
27 6 4 3.6085 -0.1175
27 6 5 2.7646 0.0218
27 6 6 3.2983 -0.0183
27 6 7 -0.2349 0.2279
27 6 8 0.8169 -0.0349
27 6 9 -3.9393 -0.1896
27 6 10 -2.1806 -0.0934
27 6 11 -2.9335 -0.1079
27 6 12 1.9457 0.0913
27 6 13 -1.8014 0.0913
27 6 14 -2.1289 0.0507
27 6 15 1.8628 -0.0099
27 7 0 -11.6006 -0.0944
27 7 1 -12.8047 -0.3292
27 7 2 5.1651 0.2424
27 7 3 -3.1658 -0.0301
27 7 4 6.9720 0.3938
27 7 5 -3.4980 -0.3339
27 7 6 6.7715 0.0894
27 7 7 -4.3135 -0.2616
27 7 8 3.7977 0.5759
27 7 9 -4.9846 -0.1220
27 7 10 0.5454 0.0391
27 7 11 -3.5111 -0.5762
27 7 12 -0.9279 0.1417
27 7 13 0.0364 0.0624
27 7 14 -1.3605 0.4266
27 7 15 0.9437 -0.2110
27 8 1 0.9342 0.2148
27 8 2 5.5982 0.2945
27 8 3 1.0480 -0.0407
27 8 4 5.3363 -0.1221
27 8 5 0.4649 -0.0855
27 8 6 3.3872 0.0341
27 8 7 1.9802 0.2022
27 8 8 2.2901 -0.0126
27 8 9 -0.8732 -0.1382
27 8 10 3.2932 -0.1531
27 8 11 3.6409 -0.0290
27 8 12 7.8468 0.1595
27 8 13 6.8320 0.0529
27 8 14 6.5049 0.0695
27 8 15 -2.3490 -0.0869
27 9 0 11.5221 -0.2367
27 9 1 11.2378 -0.0957
27 9 2 -8.7794 0.0302
27 9 3 -1.9890 -0.0056
27 9 4 -6.4521 0.1480
27 9 5 7.2677 -0.0577
27 9 6 -2.0903 0.1737
27 9 7 3.7337 -0.0513
27 9 8 -3.7388 0.1814
27 9 9 3.7390 -0.1388
27 9 10 -1.7987 0.0348
27 9 11 0.0735 -0.2594
27 9 12 -3.4360 0.0558
27 9 13 -0.7743 0.0501
27 9 14 -0.1208 0.1563
27 10 1 7.2751 0.2338
27 10 2 -0.6719 0.1279
27 10 3 2.3220 0.0289
27 10 4 -5.3656 -0.0999
27 10 5 3.2720 -0.0671
27 10 6 -2.4839 0.0438
27 10 7 -2.9288 0.0874
27 10 8 -1.4907 -0.0263
27 10 9 1.1409 -0.0583
27 10 10 0.8777 -0.1653
27 10 11 1.0791 0.1387
27 10 12 0.8799 0.1296
27 10 13 5.3450 0.0428
27 10 14 0.0078 -0.0440
27 11 0 -1.2972 -0.2550
27 11 1 4.0731 -0.0185
27 11 2 6.5835 -0.2133
27 11 3 2.9455 -0.0785
27 11 4 2.3224 -0.0341
27 11 5 2.7473 0.3699
27 11 6 5.5451 0.1418
27 11 7 -3.4513 -0.0459
27 11 8 -0.9880 -0.2138
27 11 9 -0.7507 -0.0354
27 11 10 3.1366 0.0694
27 11 11 -1.8621 0.1444
27 11 12 1.5954 -0.0896
27 11 13 2.4964 -0.1230
27 11 14 2.7938 -0.1316
27 12 1 -3.6743 0.1011
27 12 2 1.8669 0.0259
27 12 3 0.7937 0.1237
27 12 4 4.5524 0.0197
27 12 5 -1.0992 -0.1030
27 12 6 -1.3246 -0.1352
27 12 7 0.2804 0.0892
27 12 8 1.3412 0.0317
27 12 9 1.7568 -0.0215
27 12 10 1.8808 -0.1251
27 12 11 3.2682 0.0813
27 12 12 3.6737 0.0501
27 12 13 -0.8868 0.2127
27 13 0 3.8664 -0.0034
27 13 1 1.2228 -0.1028
27 13 2 -6.1004 -0.1599
27 13 3 -2.6109 -0.1750
27 13 4 0.3803 0.0654
27 13 5 1.5957 0.2671
27 13 6 -1.3193 0.0503
27 13 7 0.2592 -0.1243
27 13 8 -1.3282 -0.0899
27 13 9 -2.0238 -0.0023
27 13 10 -0.8204 0.0303
27 13 11 2.2458 0.0598
27 13 12 -0.8824 0.0004
27 13 13 -1.8696 -0.0646
27 14 1 3.1501 -0.1870
27 14 2 0.6467 0.0900
27 14 3 -0.4539 0.2213
27 14 4 1.2708 0.0557
27 14 5 -0.9106 -0.0893
27 14 6 -0.5076 -0.2475
27 14 7 -6.7692 0.0439
27 14 8 -2.5771 0.0572
27 14 9 -0.2732 0.0004
27 14 10 5.1098 -0.0525
27 14 11 1.3371 -0.0013
27 14 12 1.4287 0.0867
27 15 0 -7.5460 0.0390
27 15 1 -6.5676 -0.0297
27 15 2 -0.0080 0.0861
27 15 3 0.9463 -0.1403
27 15 4 0.0894 0.0971
27 15 5 2.1664 -0.1121
27 15 6 0.3160 0.0423
27 15 7 1.2918 -0.1401
27 15 8 -0.8784 0.1398
27 15 9 2.3730 0.0163
27 15 10 0.5949 0.0159
27 15 11 1.0487 -0.2895
27 15 12 2.3452 0.1355
27 16 1 -1.5392 0.0079
27 16 2 -2.1789 0.1000
27 16 3 -0.9972 0.0234
27 16 4 -2.0020 0.0798
27 16 5 1.7298 -0.1416
27 16 6 -1.9038 -0.0306
27 16 7 1.5397 0.0276
27 16 8 1.8514 0.0643
27 16 9 -2.7376 -0.1445
27 16 10 -2.3230 -0.0788
27 16 11 0.3492 0.1043
27 17 0 2.2596 0.1449
27 17 1 5.1637 0.1646
27 17 2 0.5577 0.1483
27 17 3 -1.4391 -0.0197
27 17 4 -4.5645 0.0227
27 17 5 -0.1566 -0.2908
27 17 6 4.5806 0.1012
27 17 7 1.3002 -0.1038
27 17 8 -2.4240 0.2807
27 17 9 -7.1588 -0.1980
27 17 10 -0.2315 0.0373
27 17 11 2.8752 -0.1460
27 18 1 1.8272 0.0769
27 18 2 2.1192 -0.0444
27 18 3 2.9838 0.0175
27 18 4 1.9221 -0.0325
27 18 5 -2.6158 -0.0577
27 18 6 1.2215 0.0358
27 18 7 -2.2773 0.1160
27 18 8 -2.2389 -0.0038
27 18 9 0.5267 -0.1257
27 18 10 0.4926 -0.0283
27 19 0 2.6760 0.2026
27 19 1 1.8054 0.2000
27 19 2 -2.1295 0.1790
27 19 3 -2.0754 0.1118
27 19 4 -2.7104 -0.1153
27 19 5 -2.9635 -0.1697
27 19 6 -3.3852 -0.0317
27 19 7 2.6450 0.1329
27 19 8 1.6397 0.0362
27 19 9 2.8761 0.1981
27 20 1 2.4502 -0.0830
27 20 2 7.4930 -0.1629
27 20 3 -0.4248 0.0258
27 20 4 2.6139 0.0102
27 20 5 -0.4349 0.0929
27 20 6 -0.1772 -0.0394
27 20 7 -0.3041 -0.0744
27 20 8 1.4393 0.0607
27 21 0 17.7134 0.1629
27 21 1 7.3201 0.5449
27 21 2 0.2886 0.1728
27 21 3 -9.5345 0.1892
27 21 4 -6.8151 -0.4379
27 21 5 -2.5853 0.1215
27 21 6 -0.1609 -0.3630
27 21 7 0.1620 0.3452
27 22 1 0.0052 -0.2112
27 22 2 -1.2607 -0.1111
27 22 3 2.6194 0.0129
27 22 4 0.0065 0.0288
27 22 5 -4.2872 -0.0626
27 23 0 2.1048 0.1148
27 23 1 3.4179 0.3297
27 23 2 3.3997 0.1410
27 23 3 6.1118 0.3956
28 0 0 1.9869 0.5602
28 0 1 -6.0859 -0.7856
28 0 2 -8.0852 0.2400
28 0 3 0.3105 -1.4976
28 0 4 1.8188 0.6323
28 0 5 -0.4451 -0.1270
28 0 6 -4.8194 1.5913
28 0 7 -0.5250 -1.0463
28 0 8 2.2562 -0.1262
28 0 9 2.8574 -1.1836
28 0 10 -0.1088 1.0641
28 0 11 3.6147 0.2761
28 0 12 -0.5969 0.7776
28 0 13 -1.4306 -1.0927
28 0 14 -3.3338 -0.1521
28 0 15 0.2250 -0.2234
28 1 1 8.9151 -1.8962
28 1 2 9.7296 -0.2072
28 1 3 -1.3669 0.2001
28 1 4 -9.6960 0.8550
28 1 5 -12.5088 0.6537
28 1 6 -3.2096 -0.7721
28 1 7 4.3071 -0.8563
28 1 8 4.2865 -0.0916
28 1 9 2.0339 0.5968
28 1 10 -0.4011 0.6300
28 1 11 1.3857 0.0519
28 1 12 -1.0741 -0.7708
28 1 13 -2.3460 -0.4004
28 1 14 -0.8658 0.1899
28 1 15 1.5331 0.6997
28 2 0 9.2790 -0.0685
28 2 1 4.9591 0.0243
28 2 2 7.7740 -0.1662
28 2 3 -2.9141 -0.1274
28 2 4 2.2292 0.2719
28 2 5 -1.1599 -0.3327
28 2 6 -0.2626 -0.1910
28 2 7 -1.0967 0.2177
28 2 8 -0.4398 0.2194
28 2 9 -0.5608 -0.0424
28 2 10 1.1832 -0.1951
28 2 11 -1.3901 -0.0501
28 2 12 2.6260 0.0176
28 2 13 -2.3677 0.1723
28 2 14 1.6255 -0.0124
28 2 15 0.3321 0.1213
28 3 1 11.2229 -0.2299
28 3 2 7.7611 -0.4768
28 3 3 -6.0876 -0.1369
28 3 4 -7.2370 0.2223
28 3 5 -2.0154 0.1098
28 3 6 4.4265 0.1120
28 3 7 2.3816 -0.1025
28 3 8 3.5050 -0.1860
28 3 9 -1.6218 0.0163
28 3 10 -3.8788 0.0313
28 3 11 -2.7580 -0.1659
28 3 12 0.7547 0.1815
28 3 13 2.3582 0.0442
28 3 14 0.0073 0.0794
28 3 15 -0.4575 -0.0101
28 4 0 5.1567 0.0086
28 4 1 5.3391 0.2583
28 4 2 2.6195 -0.2009
28 4 3 5.1297 0.7089
28 4 4 1.8855 -0.5103
28 4 5 0.0994 -0.0738
28 4 6 -1.0685 -0.5879
28 4 7 -2.0881 0.5121
28 4 8 0.3382 0.1609
28 4 9 0.6365 0.4634
28 4 10 1.3536 -0.6678
28 4 11 1.1341 0.0771
28 4 12 0.1288 -0.1779
28 4 13 -1.5904 0.3618
28 4 14 -3.5986 -0.1452
28 4 15 -0.7247 0.2230
28 5 1 2.7013 0.0877
28 5 2 4.7946 -0.2370
28 5 3 1.4078 -0.1670
28 5 4 -2.3987 -0.1706
28 5 5 -6.1928 -0.0160
28 5 6 1.2246 0.3603
28 5 7 3.2231 0.1223
28 5 8 -0.7550 -0.0011
28 5 9 -3.6883 -0.3557
28 5 10 -3.5126 -0.1088
28 5 11 -0.2666 0.0468
28 5 12 -0.7784 0.1620
28 5 13 0.9970 0.1783
28 5 14 -0.4276 0.1960
28 6 0 -7.0153 -0.0314
28 6 1 -14.6339 0.0640
28 6 2 -2.1199 0.1221
28 6 3 -4.1038 0.2905
28 6 4 3.9488 -0.1029
28 6 5 0.4995 -0.0930
28 6 6 0.7260 -0.3322
28 6 7 1.3748 0.1708
28 6 8 0.7861 0.1433
28 6 9 2.6699 0.2407
28 6 10 1.4665 -0.1766
28 6 11 2.0466 0.0532
28 6 12 1.1138 -0.0979
28 6 13 0.7383 0.1427
28 6 14 0.8975 -0.2419
28 7 1 -1.6859 0.1278
28 7 2 -0.0546 -0.1392
28 7 3 3.0782 -0.1171
28 7 4 -0.4030 -0.2076
28 7 5 2.4849 0.1264
28 7 6 1.5282 0.0903
28 7 7 2.0720 0.1081
28 7 8 -0.2784 0.0552
28 7 9 -0.0981 -0.1011
28 7 10 -0.0299 -0.0396
28 7 11 -1.7184 -0.0951
28 7 12 -2.9947 0.1320
28 7 13 -3.1302 0.1096
28 7 14 -0.0430 0.1918
28 8 0 5.4182 0.0293
28 8 1 7.8596 0.1056
28 8 2 3.9173 0.2072
28 8 3 -2.6266 -0.3555
28 8 4 -4.0676 0.2550
28 8 5 1.3358 -0.0519
28 8 6 4.0171 0.1493
28 8 7 1.9740 -0.2468
28 8 8 1.2760 0.0186
28 8 9 1.5467 0.0446
28 8 10 -0.0597 0.1932
28 8 11 0.9719 0.1116
28 8 12 0.9042 0.0588
28 8 13 0.9277 -0.1525
28 8 14 -1.0553 -0.1924
28 9 1 -3.8831 -0.0718
28 9 2 -8.9021 -0.0471
28 9 3 -17.2980 -0.0665
28 9 4 -2.3083 0.0540
28 9 5 -2.0940 0.0716
28 9 6 4.8856 -0.1506
28 9 7 -2.4792 -0.0117
28 9 8 2.6265 0.0772
28 9 9 0.2368 0.1513
28 9 10 0.8117 0.0820
28 9 11 -0.1801 -0.1416
28 9 12 1.7034 0.0120
28 9 13 0.6276 0.0490
28 9 14 -0.8858 0.0552
28 10 0 14.1808 -0.0548
28 10 1 6.2065 0.1202
28 10 2 0.7892 0.0260
28 10 3 -3.0743 -0.2747
28 10 4 -0.4158 0.0707
28 10 5 -0.5169 0.0103
28 10 6 3.4494 0.1532
28 10 7 4.5726 -0.1381
28 10 8 1.3595 0.0468
28 10 9 0.0619 -0.0013
28 10 10 -0.7859 0.0559
28 10 11 -3.6621 0.0705
28 10 12 -3.7605 0.1426
28 10 13 -3.0598 0.0307
28 11 1 3.3788 -0.2047
28 11 2 3.7786 -0.0456
28 11 3 8.4505 0.1217
28 11 4 -1.7780 0.1861
28 11 5 0.1150 -0.0829
28 11 6 -4.3416 -0.1484
28 11 7 2.6966 -0.1143
28 11 8 1.9910 0.0073
28 11 9 1.4712 0.1835
28 11 10 0.0383 0.1527
28 11 11 3.1239 0.0401
28 11 12 1.9545 -0.0713
28 11 13 1.3000 -0.0996
28 12 0 -3.4482 -0.1208
28 12 1 -6.0666 0.1047
28 12 2 -6.2327 -0.2114
28 12 3 -4.0642 -0.0718
28 12 4 0.1096 -0.1201
28 12 5 2.7659 0.1104
28 12 6 0.0997 0.0610
28 12 7 -1.3810 0.0211
28 12 8 -2.3296 0.0339
28 12 9 -5.2090 0.1111
28 12 10 -5.4650 -0.1993
28 12 11 0.5993 0.0809
28 12 12 1.0266 0.0969
28 13 1 6.7232 -0.1612
28 13 2 4.5105 -0.0261
28 13 3 2.9621 0.1311
28 13 4 -0.0285 0.1561
28 13 5 -0.5827 -0.0260
28 13 6 -0.6624 -0.1914
28 13 7 0.0046 -0.0721
28 13 8 0.4911 -0.0304
28 13 9 -0.1286 0.0972
28 13 10 -1.5593 0.0862
28 13 11 -0.0469 0.0966
28 13 12 2.8024 -0.0147
28 14 0 -0.0918 0.0059
28 14 1 1.4422 -0.0115
28 14 2 -3.4680 -0.1586
28 14 3 -5.6586 -0.1223
28 14 4 -2.1984 -0.0683
28 14 5 -0.5841 0.0907
28 14 6 1.9540 0.0725
28 14 7 0.6588 0.2086
28 14 8 1.1893 0.0120
28 14 9 1.9899 0.0503
28 14 10 1.0199 -0.1559
28 14 11 0.7403 -0.1717
28 14 12 3.2607 0.0379
28 15 1 -12.1360 -0.0002
28 15 2 -7.3414 -0.0473
28 15 3 0.6296 0.1752
28 15 4 3.2488 0.0864
28 15 5 0.0052 0.0445
28 15 6 -3.1641 -0.2066
28 15 7 0.1536 -0.0633
28 15 8 1.9879 -0.0012
28 15 9 1.5530 -0.0013
28 15 10 0.1154 0.0547
28 15 11 -0.4107 0.1397
28 16 0 4.4040 0.0665
28 16 1 -1.1428 -0.2288
28 16 2 -2.4981 0.0793
28 16 3 -0.6282 -0.1789
28 16 4 1.3361 0.0683
28 16 5 2.7413 0.0142
28 16 6 0.5517 0.1946
28 16 7 -0.8862 0.0874
28 16 8 -4.5443 0.1427
28 16 9 -2.5331 0.0788
28 16 10 -0.1146 -0.0290
28 17 1 7.5502 -0.0900
28 17 2 2.9193 0.0696
28 17 3 4.9387 0.1172
28 17 4 1.0144 0.1825
28 17 5 1.7744 0.1244
28 17 6 -3.4048 -0.2003
28 17 7 -1.5571 -0.0715
28 17 8 0.1855 -0.2248
28 17 9 0.6886 0.1266
28 17 10 0.5001 0.2006
28 18 0 -0.1869 -0.1063
28 18 1 1.4501 -0.0400
28 18 2 -0.8805 0.1339
28 18 3 -1.1532 -0.1223
28 18 4 -0.6483 0.1603
28 18 5 0.3199 -0.1515
28 18 6 1.3142 0.2969
28 18 7 1.0846 0.0023
28 18 8 1.3771 0.1625
28 18 9 -2.2807 -0.1209
28 19 1 1.0365 -0.0767
28 19 2 2.5533 -0.0054
28 19 3 3.8646 0.1211
28 19 4 0.1679 0.2781
28 19 5 2.7908 0.0545
28 19 6 3.1671 -0.1368
28 19 7 2.6373 -0.0663
28 19 8 1.0645 -0.0057
28 20 0 1.8623 -0.0932
28 20 1 2.3426 -0.1957
28 20 2 -1.8138 0.2621
28 20 3 -2.2597 -0.0432
28 20 4 -2.6220 0.2293
28 20 5 0.8047 -0.2174
28 20 6 -0.0979 0.1938
28 20 7 -0.1923 -0.1594
28 21 1 2.8776 -0.0448
28 21 2 -1.0007 0.0788
28 21 3 -0.5523 0.2001
28 21 4 0.5818 0.0994
28 21 5 2.0885 -0.0671
28 22 0 1.6531 -0.0447
28 22 1 0.0871 -0.1427
28 22 2 -0.2569 -0.0912
28 22 3 -1.4256 0.4521
29 1 0 -7.5675 0.3517
29 1 1 -0.6947 -0.3330
29 1 2 -2.9915 0.1921
29 1 3 6.3794 -0.3858
29 1 4 4.5627 0.1407
29 1 5 6.1447 -0.2697
29 1 6 -1.6624 0.2231
29 1 7 2.8023 -0.2290
29 1 8 -3.7895 0.3549
29 1 9 -1.9495 -0.2293
29 1 10 -6.3008 0.1841
29 1 11 -2.0954 -0.1693
29 1 12 -2.2014 0.1220
29 1 13 -1.9660 -0.1657
29 1 14 -1.8035 0.0572
29 2 1 -2.4123 0.3203
29 2 2 -2.5081 0.5263
29 2 3 0.1605 -0.0686
29 2 4 3.3812 -0.5268
29 2 5 4.3466 -0.2191
29 2 6 -0.0439 0.1806
29 2 7 -4.8085 0.3730
29 2 8 -7.0729 -0.0092
29 2 9 -1.3750 -0.1163
29 2 10 0.5405 -0.4302
29 2 11 -0.8370 0.1817
29 2 12 0.4906 0.2620
29 2 13 -0.9442 0.2815
29 2 14 3.4325 -0.2787
29 3 0 0.4434 0.0819
29 3 1 -5.7948 -0.2403
29 3 2 3.3605 0.2827
29 3 3 -4.2223 -0.3372
29 3 4 2.2111 0.0865
29 3 5 -0.0273 -0.1940
29 3 6 5.3984 0.0843
29 3 7 -0.8530 -0.0569
29 3 8 2.2533 0.0226
29 3 9 -1.9137 0.1191
29 3 10 1.6651 0.0520
29 3 11 -2.2788 -0.1501
29 3 12 -1.0278 0.0416
29 3 13 -2.1307 -0.0694
29 3 14 -1.9163 -0.0309
29 4 1 4.4484 0.2620
29 4 2 5.0733 0.2186
29 4 3 -0.3509 -0.2084
29 4 4 -5.1555 -0.2489
29 4 5 -4.0429 -0.1348
29 4 6 -0.0888 0.2170
29 4 7 2.9500 0.1720
29 4 8 -0.7472 -0.0797
29 4 9 -1.5738 -0.1005
29 4 10 0.1261 -0.1407
29 4 11 2.4391 0.0987
29 4 12 -4.4901 0.0785
29 4 13 -0.8600 0.1834
29 4 14 -0.3314 -0.1787
29 5 0 -3.3842 0.0860
29 5 1 4.3414 0.4708
29 5 2 -5.3205 -0.2679
29 5 3 6.5465 0.0097
29 5 4 -1.8741 -0.0653
29 5 5 2.8469 0.0131
29 5 6 -1.8109 -0.1467
29 5 7 2.5296 0.0519
29 5 8 -3.3174 -0.0867
29 5 9 -0.5101 0.2409
29 5 10 -2.8566 -0.1078
29 5 11 0.0116 0.1198
29 5 12 -0.1768 -0.1839
29 5 13 -0.3010 0.0185
29 5 14 1.2896 -0.0303
29 6 1 1.8513 -0.1218
29 6 2 1.1776 -0.2759
29 6 3 -2.9972 -0.2172
29 6 4 -5.5498 0.2068
29 6 5 -3.9241 0.1835
29 6 6 2.3802 -0.0487
29 6 7 2.6891 -0.2801
29 6 8 1.3267 -0.0287
29 6 9 2.4711 0.1138
29 6 10 0.4861 0.1849
29 6 11 0.6507 -0.0157
29 6 12 -0.1733 -0.1480
29 6 13 0.8271 -0.0943
29 6 14 0.2273 -0.0656
29 7 0 3.9299 0.0382
29 7 1 -3.8869 0.1404
29 7 2 4.7554 -0.0053
29 7 3 -12.1545 0.0885
29 7 4 -2.9325 -0.1229
29 7 5 -4.8821 0.0599
29 7 6 1.6210 -0.2897
29 7 7 -5.2125 0.0410
29 7 8 0.7562 0.1445
29 7 9 -0.4242 0.1254
29 7 10 6.4936 -0.1463
29 7 11 1.7502 0.0678
29 7 12 3.8921 -0.0771
29 7 13 0.3119 0.0528
29 8 1 1.1063 -0.1922
29 8 2 -3.7400 -0.4211
29 8 3 -10.7385 -0.0713
29 8 4 -8.7480 0.2387
29 8 5 -2.9498 0.1634
29 8 6 -2.0494 -0.1102
29 8 7 3.8769 -0.3434
29 8 8 3.2428 -0.0074
29 8 9 3.6855 0.2048
29 8 10 -1.0974 0.1960
29 8 11 0.3333 -0.1418
29 8 12 -0.6477 -0.0822
29 8 13 -3.9168 -0.1175
29 9 0 3.4179 0.1245
29 9 1 1.3127 -0.0359
29 9 2 -5.8536 0.1566
29 9 3 -0.0552 -0.1585
29 9 4 -2.5536 0.0670
29 9 5 0.5970 -0.1761
29 9 6 -4.2028 0.0363
29 9 7 -1.0723 -0.0420
29 9 8 -2.4519 0.0706
29 9 9 4.0926 0.0990
29 9 10 -0.9905 0.0480
29 9 11 -0.0153 -0.1121
29 9 12 -3.1734 0.0372
29 9 13 3.1688 0.0306
29 10 1 -3.9943 -0.1771
29 10 2 -7.6527 -0.1941
29 10 3 -6.3873 -0.0367
29 10 4 -3.5859 0.0421
29 10 5 -2.2546 0.0541
29 10 6 1.9348 -0.0665
29 10 7 2.6306 -0.1267
29 10 8 4.4025 -0.0046
29 10 9 0.2948 -0.0000
29 10 10 -1.4210 0.0824
29 10 11 -2.3129 -0.0247
29 10 12 0.2377 -0.0278
29 11 0 0.1988 0.0492
29 11 1 0.9532 -0.0219
29 11 2 5.1832 0.0410
29 11 3 1.2175 -0.1095
29 11 4 3.9323 0.0541
29 11 5 -1.3812 -0.0747
29 11 6 -0.9108 0.0046
29 11 7 -3.3088 0.0384
29 11 8 1.0956 0.0195
29 11 9 0.8298 0.1633
29 11 10 0.1509 -0.0650
29 11 11 -3.6017 0.0208
29 11 12 1.0240 -0.0482
29 12 1 -1.2896 -0.1029
29 12 2 2.7953 -0.0774
29 12 3 -0.8071 -0.0184
29 12 4 1.4175 -0.0220
29 12 5 -0.6123 -0.0514
29 12 6 -2.5870 0.0395
29 12 7 -1.7244 -0.0355
29 12 8 -2.8106 -0.0625
29 12 9 2.2867 -0.0892
29 12 10 -1.9969 0.0130
29 12 11 1.9412 0.1784
29 12 12 -0.9507 -0.0218
29 13 0 6.1562 -0.0819
29 13 1 2.1581 0.1099
29 13 2 -0.0498 -0.1342
29 13 3 0.3804 0.0302
29 13 4 1.9347 -0.0190
29 13 5 3.0243 0.1998
29 13 6 -1.0725 -0.0697
29 13 7 -2.3168 0.0426
29 13 8 0.7101 -0.0970
29 13 9 2.8571 0.1453
29 13 10 3.6001 0.0434
29 13 11 1.4823 0.1173
29 14 1 8.1933 -0.1335
29 14 2 6.5305 -0.0834
29 14 3 4.5018 -0.0532
29 14 4 -2.5348 0.1486
29 14 5 -2.6842 -0.0327
29 14 6 1.7974 -0.0754
29 14 7 1.0574 -0.0242
29 14 8 1.6390 -0.0375
29 14 9 1.1201 0.0414
29 14 10 1.7335 0.0509
29 14 11 -2.1530 0.0533
29 15 0 9.1846 -0.0965
29 15 1 4.8423 -0.0123
29 15 2 0.9739 -0.0256
29 15 3 -5.7866 0.2175
29 15 4 -3.3491 0.0239
29 15 5 -2.2339 0.0563
29 15 6 1.6429 -0.0604
29 15 7 1.8523 0.0731
29 15 8 0.2879 -0.0576
29 15 9 2.5737 0.0618
29 15 10 0.7869 0.0157
29 16 1 2.9586 0.0670
29 16 2 1.8760 -0.1155
29 16 3 -3.2282 0.0593
29 16 4 2.6406 0.0979
29 16 5 6.7289 -0.0839
29 16 6 0.0894 -0.1038
29 16 7 1.2880 -0.0863
29 16 8 0.1992 0.3695
29 16 9 1.1624 0.0101
29 17 0 -2.4558 -0.0443
29 17 1 -2.9654 -0.0281
29 17 2 -4.6048 0.1602
29 17 3 -5.3887 0.1272
29 17 4 -2.2074 0.1584
29 17 5 0.0756 -0.0606
29 17 6 2.9274 -0.1064
29 17 7 -0.1878 -0.0475
29 17 8 3.0846 0.1693
29 18 1 -1.4793 -0.0822
29 18 2 -1.2912 -0.0255
29 18 3 4.9710 0.1126
29 18 4 -3.1323 0.0960
29 18 5 -4.8355 -0.0972
29 18 6 -1.7321 -0.2366
29 18 7 -0.5549 0.1298
29 19 0 -3.4905 -0.0874
29 19 1 1.4554 -0.2582
29 19 2 1.1650 0.2732
29 19 3 1.2033 0.1768
29 19 4 -2.3387 0.0144
29 19 5 -0.9674 -0.0652
29 19 6 -1.8217 0.0154
29 20 1 1.5980 -0.4318
29 20 2 2.0204 0.0125
29 20 3 -4.4473 0.2320
29 20 4 1.1313 0.0876
29 20 5 0.0362 0.1059
29 21 0 -3.1704 -0.1449
29 21 1 -5.1546 -0.2345
29 21 2 -1.8599 -0.0178
29 21 3 -0.7661 0.1934
30 0 0 6.4603 -0.7746
30 0 1 -0.8231 -0.5813
30 0 2 -5.7432 -0.6231
30 0 3 -2.1545 -0.9029
30 0 4 1.0595 0.2076
30 0 5 -0.6342 0.6932
30 0 6 1.3067 1.1242
30 0 7 1.0277 -0.7230
30 0 8 5.2836 -0.8180
30 0 9 0.6493 -0.6387
30 0 10 0.6896 0.5976
30 0 11 -0.0919 0.8070
30 0 12 -3.7130 0.4137
30 0 13 -1.0162 -0.9888
30 1 1 -0.3882 -0.1202
30 1 2 -1.3885 1.0031
30 1 3 3.4380 -0.2310
30 1 4 2.0595 -0.8175
30 1 5 3.7881 -0.0990
30 1 6 0.6449 0.2299
30 1 7 -2.1470 0.4837
30 1 8 -5.6646 0.2665
30 1 9 -4.0034 -0.3347
30 1 10 -1.0438 -0.2664
30 1 11 0.1024 -0.1302
30 1 12 -0.7801 0.3340
30 1 13 0.2763 0.2329
30 2 0 1.6787 0.3988
30 2 1 9.0911 -0.1505
30 2 2 2.8599 -0.2525
30 2 3 -0.2189 -0.0411
30 2 4 -4.7216 0.0475
30 2 5 1.1343 -0.0397
30 2 6 0.3033 0.1444
30 2 7 0.9261 -0.0656
30 2 8 -4.4913 0.1643
30 2 9 -0.1966 -0.2240
30 2 10 -1.8795 0.0792
30 2 11 0.0422 -0.1571
30 2 12 -0.1935 0.0601
30 2 13 1.6029 -0.0950
30 3 1 -2.3540 0.1331
30 3 2 1.6645 0.1218
30 3 3 1.7818 0.2107
30 3 4 1.4944 -0.0388
30 3 5 1.8898 -0.2343
30 3 6 -1.5990 -0.0433
30 3 7 -4.1741 0.1468
30 3 8 -4.0717 -0.0277
30 3 9 -0.5386 0.1777
30 3 10 4.5940 0.0583
30 3 11 -0.8408 -0.0805
30 3 12 -0.6952 -0.1500
30 3 13 -4.1611 -0.0719
30 4 0 8.4293 0.3085
30 4 1 -0.4319 0.2968
30 4 2 -4.5411 0.1829
30 4 3 -5.8785 -0.0044
30 4 4 2.4999 -0.0806
30 4 5 4.3177 -0.1423
30 4 6 2.3451 -0.3774
30 4 7 -4.1007 0.3615
30 4 8 0.1474 0.3426
30 4 9 -1.0255 0.1666
30 4 10 1.6989 -0.2091
30 4 11 -1.2561 -0.3491
30 4 12 0.9060 -0.1727
30 4 13 1.5991 0.0519
30 5 1 0.9821 -0.0092
30 5 2 -6.6127 -0.1323
30 5 3 -1.2868 0.1256
30 5 4 -1.9774 0.2415
30 5 5 3.9161 0.0401
30 5 6 2.2690 -0.1084
30 5 7 4.9480 -0.1472
30 5 8 0.1685 -0.0447
30 5 9 -0.0516 0.1814
30 5 10 -1.0041 0.0607
30 5 11 0.4304 0.1562
30 5 12 -0.8082 -0.2752
30 5 13 2.1690 -0.0251
30 6 0 -12.2761 0.2025
30 6 1 -0.1986 0.3245
30 6 2 -5.6141 0.1208
30 6 3 4.2226 0.0656
30 6 4 -2.6712 -0.2970
30 6 5 -0.3117 -0.0049
30 6 6 -3.8144 -0.1583
30 6 7 0.2050 0.1903
30 6 8 -1.1730 0.2068
30 6 9 4.1111 0.2329
30 6 10 -2.3712 -0.1716
30 6 11 -1.1882 -0.1074
30 6 12 -2.9578 -0.0150
30 6 13 -0.1079 -0.2593
30 7 1 -6.1168 -0.2135
30 7 2 -2.3109 -0.0071
30 7 3 -0.4338 -0.0125
30 7 4 -1.2739 0.1197
30 7 5 1.3528 0.0909
30 7 6 0.0242 0.0635
30 7 7 -2.4403 -0.0311
30 7 8 -3.2971 -0.1601
30 7 9 -0.2729 0.0069
30 7 10 1.1947 -0.0094
30 7 11 1.6152 0.1199
30 7 12 1.0992 -0.0608
30 7 13 1.3703 0.2044
30 8 0 -1.1560 0.2023
30 8 1 -5.6625 0.1317
30 8 2 0.2080 -0.0925
30 8 3 -3.2161 -0.1305
30 8 4 2.2861 -0.1431
30 8 5 1.4198 0.0706
30 8 6 1.2774 0.1335
30 8 7 -2.4024 -0.0386
30 8 8 2.7962 0.0220
30 8 9 -2.6999 -0.0212
30 8 10 0.7686 0.2425
30 8 11 -2.8501 -0.0100
30 8 12 3.6696 -0.0179
30 9 1 -0.6504 -0.2513
30 9 2 -1.9404 0.0696
30 9 3 -3.0244 -0.0238
30 9 4 3.3459 0.0429
30 9 5 -0.0302 0.1498
30 9 6 0.5926 -0.0129
30 9 7 -0.7954 -0.0378
30 9 8 -1.2903 -0.0891
30 9 9 -1.2724 -0.0445
30 9 10 -0.4917 0.0101
30 9 11 -2.5239 -0.0286
30 9 12 -1.4306 -0.0567
30 10 0 -4.3296 0.2707
30 10 1 1.9534 -0.1534
30 10 2 -0.0691 -0.2129
30 10 3 6.9293 -0.4030
30 10 4 1.4474 0.1133
30 10 5 1.4928 0.1513
30 10 6 -1.5344 0.2010
30 10 7 1.2289 -0.1568
30 10 8 -2.7804 0.0036
30 10 9 0.3793 -0.2440
30 10 10 -1.6831 0.2704
30 10 11 -0.5294 -0.0010
30 10 12 -2.0692 0.2640
30 11 1 -1.6953 -0.0466
30 11 2 -1.5443 -0.0850
30 11 3 3.9913 0.0315
30 11 4 -1.7592 0.1584
30 11 5 2.7561 0.0001
30 11 6 -0.4332 0.0587
30 11 7 -0.1569 -0.1591
30 11 8 -2.6366 -0.1294
30 11 9 -4.1646 -0.0157
30 11 10 -2.1064 0.1284
30 11 11 -2.1890 -0.0531
30 12 0 4.8794 -0.0853
30 12 1 1.5908 -0.3006
30 12 2 3.6003 -0.2924
30 12 3 1.3000 -0.1773
30 12 4 3.4472 0.1184
30 12 5 2.1168 0.1093
30 12 6 2.5465 0.0636
30 12 7 -0.7930 -0.0733
30 12 8 -0.7308 0.0542
30 12 9 -2.3854 -0.1391
30 12 10 -0.5224 -0.1553
30 12 11 1.5223 0.0304
30 13 1 -1.3995 0.2027
30 13 2 0.1576 -0.0511
30 13 3 -2.8939 0.0838
30 13 4 0.4294 0.0251
30 13 5 -1.9510 -0.0450
30 13 6 1.2836 0.0269
30 13 7 0.5739 -0.0742
30 13 8 -1.0540 -0.1096
30 13 9 3.0645 -0.0425
30 13 10 0.0065 0.0874
30 14 0 2.0366 -0.3405
30 14 1 9.3748 -0.2634
30 14 2 6.4711 -0.3194
30 14 3 6.5884 0.1743
30 14 4 -0.9741 -0.0410
30 14 5 -1.4188 0.0780
30 14 6 -1.8094 -0.1764
30 14 7 1.1500 0.2774
30 14 8 2.0810 -0.0517
30 14 9 -0.6177 -0.0519
30 14 10 0.0212 -0.2593
30 15 1 1.1365 -0.0536
30 15 2 3.1750 0.0798
30 15 3 -0.4819 0.1082
30 15 4 3.8474 0.0752
30 15 5 -1.1369 -0.0871
30 15 6 -0.2681 -0.0978
30 15 7 -1.7549 -0.0424
30 15 8 3.7254 -0.0427
30 15 9 1.1842 -0.0291
30 16 0 3.6593 -0.2452
30 16 1 -1.3140 -0.3049
30 16 2 6.5557 -0.1716
30 16 3 2.3018 0.2176
30 16 4 0.9869 -0.1008
30 16 5 0.0459 0.0747
30 16 6 1.1694 -0.1714
30 16 7 2.3339 0.1695
30 16 8 -0.8261 0.2236
30 17 1 -0.1822 -0.1586
30 17 2 -0.3837 0.0267
30 17 3 -2.3314 0.1520
30 17 4 -3.6224 0.1271
30 17 5 -3.1050 -0.1151
30 17 6 -0.5427 -0.1309
30 17 7 -0.0413 -0.0957
30 18 0 -8.0881 -0.3151
30 18 1 -7.9018 0.0088
30 18 2 -5.3959 -0.1500
30 18 3 -3.2075 -0.0079
30 18 4 0.7251 0.1540
30 18 5 -1.5357 -0.0465
30 18 6 -1.7211 -0.0925
30 19 1 0.3760 -0.0990
30 19 2 -0.6922 -0.1200
30 19 3 -2.3554 0.0255
30 19 4 -1.6972 0.2539
30 20 0 -0.3889 0.0128
30 20 1 3.2324 -0.2240
30 20 2 -2.6558 0.0099
31 1 0 4.4359 0.6383
31 1 1 4.3986 0.1300
31 1 2 9.1570 0.1079
31 1 3 5.6455 -0.3465
31 1 4 2.5068 0.3996
31 1 5 -0.8019 -0.1059
31 1 6 -0.7770 0.4331
31 1 7 0.2887 -0.3208
31 1 8 1.2824 0.0993
31 1 9 0.4155 -0.4207
31 1 10 -0.6534 0.2925
31 1 11 -0.7141 -0.1739
31 1 12 5.0871 0.1870
31 1 13 3.3571 -0.2776
31 2 1 2.4238 -0.1740
31 2 2 2.9269 0.1037
31 2 3 2.9664 0.0998
31 2 4 -0.3536 -0.0892
31 2 5 -0.2731 -0.0059
31 2 6 -0.8644 -0.1228
31 2 7 -3.9332 0.0489
31 2 8 -3.6952 -0.0045
31 2 9 -0.2155 -0.0268
31 2 10 1.2432 0.1530
31 2 11 3.0225 -0.1693
31 2 12 2.6326 -0.0694
31 3 0 7.6130 -0.0695
31 3 1 6.8507 -0.0901
31 3 2 -1.2811 0.3747
31 3 3 -4.1924 0.0430
31 3 4 -0.1781 0.3050
31 3 5 2.9023 -0.2459
31 3 6 -2.8512 0.0447
31 3 7 -7.2157 -0.2524
31 3 8 -6.3797 0.4163
31 3 9 0.0600 -0.1521
31 3 10 1.3456 0.0045
31 3 11 4.6319 -0.4041
31 3 12 0.6484 0.1273
31 4 1 2.6715 0.0735
31 4 2 1.9028 0.1613
31 4 3 -3.6608 -0.1266
31 4 4 -0.2508 -0.0789
31 4 5 -2.3124 -0.0656
31 4 6 0.4723 0.0315
31 4 7 0.8808 0.1056
31 4 8 1.8517 -0.0199
31 4 9 -3.5992 -0.0716
31 4 10 3.4501 0.0311
31 4 11 3.4434 0.0693
31 4 12 1.4027 0.1362
31 5 0 12.9563 0.0897
31 5 1 3.9541 0.3399
31 5 2 1.2288 -0.1331
31 5 3 4.5189 0.0880
31 5 4 3.6145 -0.2013
31 5 5 -3.8525 0.2319
31 5 6 -7.2865 0.0370
31 5 7 -6.5422 0.0830
31 5 8 -0.1888 -0.2492
31 5 9 2.0460 -0.0286
31 5 10 2.5934 -0.1367
31 5 11 -1.7236 0.0066
31 5 12 1.2021 0.0298
31 6 1 -5.0464 -0.0220
31 6 2 -6.1482 -0.1303
31 6 3 0.1289 -0.0172
31 6 4 -3.8670 -0.0685
31 6 5 0.2243 0.0799
31 6 6 0.2501 0.0579
31 6 7 0.8065 -0.0673
31 6 8 0.4101 -0.0573
31 6 9 2.3894 -0.0185
31 6 10 -0.3036 0.1315
31 6 11 -3.9444 0.0683
31 6 12 -0.1622 0.0865
31 7 0 -10.5512 0.3054
31 7 1 -1.6996 0.3909
31 7 2 -7.8634 -0.3617
31 7 3 -9.2052 -0.0313
31 7 4 -5.1939 -0.3415
31 7 5 2.5177 0.5462
31 7 6 1.7741 -0.0862
31 7 7 0.5344 0.1311
31 7 8 -2.0522 -0.4246
31 7 9 -0.4025 -0.0593
31 7 10 -3.7468 -0.0956
31 7 11 -1.7124 0.0824
31 7 12 -4.7512 -0.0811
31 8 1 -0.5654 -0.1593
31 8 2 -2.4217 -0.1860
31 8 3 0.1819 -0.0695
31 8 4 1.5613 0.0626
31 8 5 3.9416 0.0820
31 8 6 0.9220 0.0885
31 8 7 0.8121 -0.1487
31 8 8 0.3977 -0.1256
31 8 9 -1.5722 0.0489
31 8 10 0.1158 0.0067
31 8 11 4.1074 0.1191
31 9 0 -4.0777 0.3657
31 9 1 -8.5193 0.1148
31 9 2 2.6780 -0.1639
31 9 3 5.9807 -0.0307
31 9 4 4.7506 -0.0731
31 9 5 1.7588 0.1973
31 9 6 3.4197 -0.1156
31 9 7 0.6175 -0.0844
31 9 8 -0.1569 -0.0345
31 9 9 -2.2010 -0.0312
31 9 10 1.9978 -0.0694
31 9 11 -0.4270 -0.1126
31 10 1 0.4254 -0.2760
31 10 2 2.2535 -0.0904
31 10 3 -0.7697 0.0759
31 10 4 1.7797 0.0624
31 10 5 -3.4741 0.0786
31 10 6 1.7131 -0.1838
31 10 7 0.1471 0.0686
31 10 8 1.3186 -0.0749
31 10 9 -2.1592 -0.0708
31 10 10 3.6507 -0.0626
31 10 11 0.6815 -0.0155
31 11 0 -9.2186 0.2883
31 11 1 0.9828 0.0953
31 11 2 -2.8793 0.0791
31 11 3 0.1631 -0.1157
31 11 4 -3.1834 0.1409
31 11 5 0.6128 -0.0781
31 11 6 0.5994 -0.0462
31 11 7 3.1663 -0.2158
31 11 8 -0.2534 0.2403
31 11 9 -0.0210 0.0681
31 11 10 -1.8468 -0.1035
31 12 1 -1.1602 -0.2824
31 12 2 -2.3838 -0.0244
31 12 3 0.2443 0.0601
31 12 4 -4.1418 0.0635
31 12 5 2.2701 0.0327
31 12 6 -0.2787 -0.0544
31 12 7 -1.5803 0.0504
31 12 8 -2.5275 -0.0971
31 12 9 -0.5444 -0.1665
31 12 10 0.8541 -0.0636
31 13 0 3.9729 0.1528
31 13 1 -1.2275 0.2192
31 13 2 0.7186 0.0894
31 13 3 -4.3018 -0.0745
31 13 4 -2.2542 0.0603
31 13 5 1.0721 -0.0040
31 13 6 2.9310 -0.0255
31 13 7 -0.2095 -0.1684
31 13 8 0.4698 0.2179
31 13 9 0.3001 0.1272
31 14 1 1.5345 0.0459
31 14 2 -3.8646 -0.0956
31 14 3 -2.0517 -0.1263
31 14 4 0.3600 0.1407
31 14 5 3.2344 0.0484
31 14 6 -0.2946 0.0656
31 14 7 -3.5584 -0.0230
31 14 8 -3.3200 -0.0542
31 15 0 5.1525 0.0323
31 15 1 11.0496 0.2774
31 15 2 0.0436 -0.0129
31 15 3 0.6348 -0.0285
31 15 4 -2.7887 -0.1053
31 15 5 2.8065 0.2405
31 15 6 2.0890 -0.0666
31 15 7 1.0795 -0.1307
31 15 8 -0.6533 -0.0415
31 16 1 2.9094 -0.0670
31 16 2 5.9290 -0.2890
31 16 3 -1.3930 0.0879
31 16 4 0.4617 0.1385
31 16 5 -3.3545 0.0872
31 16 6 -2.5509 -0.0802
31 16 7 -1.6520 -0.0691
31 17 0 -1.9773 -0.2068
31 17 1 -7.6948 0.1578
31 17 2 -2.5962 -0.3100
31 17 3 0.6756 -0.0859
31 17 4 5.3558 0.0579
31 17 5 0.5004 0.4111
31 18 1 -2.2212 -0.2284
31 18 2 -0.8657 -0.1062
31 18 3 7.1488 0.0582
31 18 4 3.4439 0.1693
31 19 0 -7.0064 -0.2087
31 19 1 -6.7040 -0.6332
32 0 0 17.4925 -0.8374
32 0 1 16.4555 0.5385
32 0 2 5.9619 -0.3323
32 0 3 2.6849 1.2397
32 0 4 -0.7539 -0.5973
32 0 5 0.4132 0.1592
32 0 6 2.5851 -1.1712
32 0 7 3.4823 0.9102
32 0 8 1.1860 0.0200
32 0 9 -1.5339 0.7764
32 0 10 -1.2740 -1.1219
32 0 11 3.9375 0.0847
32 0 12 1.6244 -0.3606
32 1 1 11.5359 1.4717
32 1 2 9.3771 0.3042
32 1 3 -0.3105 -0.2353
32 1 4 -4.1099 -0.7732
32 1 5 -2.2122 -0.5763
32 1 6 1.5358 0.7804
32 1 7 0.1335 0.7836
32 1 8 -0.0648 -0.0202
32 1 9 0.8976 -0.6240
32 1 10 -0.5048 -0.4472
32 1 11 0.2341 -0.0692
32 1 12 1.0330 0.7998
32 2 0 -4.0159 0.1192
32 2 1 -5.6695 -0.1992
32 2 2 -0.8214 0.0727
32 2 3 -2.5162 0.1247
32 2 4 0.9777 -0.1313
32 2 5 1.0213 0.0359
32 2 6 2.4425 0.2400
32 2 7 1.1654 -0.0348
32 2 8 2.9319 -0.0746
32 2 9 0.1961 -0.3540
32 2 10 -0.1121 -0.1431
32 2 11 -3.4417 0.0472
32 2 12 1.8616 0.0392
32 3 1 6.5926 0.2910
32 3 2 12.3686 0.2513
32 3 3 0.6367 0.0887
32 3 4 -2.5772 -0.1561
32 3 5 -6.2043 -0.0024
32 3 6 -0.2896 -0.1134
32 3 7 -0.6831 -0.0390
32 3 8 -2.2094 0.1958
32 3 9 -3.6980 -0.0741
32 3 10 -1.5253 0.0287
32 3 11 0.8201 0.0699
32 4 0 0.5996 -0.0122
32 4 1 -3.7083 -0.2628
32 4 2 -2.9705 0.2281
32 4 3 0.7221 -0.5856
32 4 4 1.9869 0.4437
32 4 5 -2.9220 -0.1878
32 4 6 -7.1127 0.4595
32 4 7 -0.0716 -0.1805
32 4 8 1.8977 -0.0371
32 4 9 1.3967 -0.5795
32 4 10 -2.4055 -0.0292
32 4 11 -1.1323 -0.0766
32 5 1 4.0957 -0.1252
32 5 2 -0.8252 0.0306
32 5 3 -0.2647 0.2328
32 5 4 1.2538 0.2873
32 5 5 -1.0055 -0.0140
32 5 6 -0.3944 -0.3365
32 5 7 -1.8963 -0.2537
32 5 8 1.3668 0.0367
32 5 9 -1.4012 0.2385
32 5 10 -3.5072 0.1129
32 5 11 -3.3725 -0.0214
32 6 0 -2.4653 -0.3132
32 6 1 -3.7409 -0.0365
32 6 2 -3.6868 -0.0425
32 6 3 -1.6573 -0.1889
32 6 4 4.4354 0.0756
32 6 5 5.0405 -0.0796
32 6 6 5.9234 0.1312
32 6 7 0.9240 0.0823
32 6 8 0.0963 -0.0321
32 6 9 -1.4208 -0.2279
32 6 10 -1.2253 -0.4146
32 6 11 -0.8168 0.1299
32 7 1 -3.5664 -0.1194
32 7 2 4.1703 -0.1449
32 7 3 -0.2858 0.1484
32 7 4 -1.7229 0.2359
32 7 5 -2.2936 0.0499
32 7 6 2.6710 -0.1804
32 7 7 2.5348 -0.2698
32 7 8 -0.2448 -0.0537
32 7 9 0.0603 0.1137
32 7 10 1.8437 0.1487
32 7 11 3.7045 -0.1331
32 8 0 4.1534 -0.2013
32 8 1 3.5268 0.0848
32 8 2 0.6430 -0.1675
32 8 3 -2.0961 0.2760
32 8 4 -4.1871 -0.2000
32 8 5 -3.4269 -0.0677
32 8 6 -2.7880 -0.2067
32 8 7 -0.7815 0.1987
32 8 8 -0.9838 0.1327
32 8 9 -0.4634 0.0912
32 8 10 -0.9915 -0.4631
32 9 1 2.6021 0.1519
32 9 2 -5.0650 -0.0371
32 9 3 -2.7318 -0.1179
32 9 4 -3.7226 -0.0283
32 9 5 -0.6890 0.0216
32 9 6 0.4883 0.0574
32 9 7 3.5116 -0.0945
32 9 8 2.0074 0.0258
32 9 9 0.3267 -0.1868
32 9 10 0.3473 -0.0283
32 10 0 6.7260 0.0639
32 10 1 1.9308 0.2098
32 10 2 3.4178 0.0856
32 10 3 -3.8401 0.0533
32 10 4 -1.9630 -0.0859
32 10 5 -2.4210 -0.0536
32 10 6 0.1061 -0.2879
32 10 7 -1.5881 0.1139
32 10 8 -1.2115 0.1768
32 10 9 -1.3898 0.1660
32 10 10 2.9227 -0.2109
32 11 1 -8.5084 0.2967
32 11 2 -8.0378 -0.1438
32 11 3 -10.7067 -0.1331
32 11 4 -6.0136 -0.1002
32 11 5 -2.5287 -0.0039
32 11 6 2.4286 0.0035
32 11 7 -1.3562 -0.0133
32 11 8 -0.2551 0.0309
32 11 9 -0.5333 0.0743
32 12 0 2.8535 0.2369
32 12 1 5.8420 0.1460
32 12 2 4.5779 0.1968
32 12 3 4.7242 -0.1392
32 12 4 -0.3230 0.1394
32 12 5 -1.4931 -0.1244
32 12 6 -0.6300 -0.0990
32 12 7 -0.1227 -0.2133
32 12 8 -0.3822 0.1929
32 13 1 12.5351 0.0815
32 13 2 6.7444 -0.1587
32 13 3 -3.4882 -0.2367
32 13 4 -7.4410 -0.1314
32 13 5 -0.7209 0.2513
32 13 6 0.2892 -0.1662
32 13 7 1.2543 -0.0943
32 13 8 0.1207 -0.0541
32 14 0 0.9590 0.2200
32 14 1 -1.9958 0.2208
32 14 2 -2.5916 -0.0137
32 14 3 -4.0557 -0.2184
32 14 4 1.8453 0.1925
32 14 5 1.5913 0.0075
32 14 6 0.5934 -0.0794
32 14 7 -1.4837 -0.1892
32 15 1 7.1747 -0.0593
32 15 2 1.8681 -0.2667
32 15 3 -0.6655 -0.2226
32 15 4 -3.2643 0.1308
32 15 5 0.1905 0.0061
32 15 6 -0.6819 -0.0347
32 16 0 1.5076 0.4917
32 16 1 1.1469 0.1314
32 16 2 -4.5366 -0.1869
32 16 3 4.7532 -0.2504
32 16 4 5.2788 -0.0153
32 16 5 3.4470 0.3231
32 17 1 -13.0094 -0.2809
32 17 2 -10.5787 -0.2784
32 17 3 -0.7892 0.0067
33 1 0 4.3207 -0.3377
33 1 1 3.1835 0.1808
33 1 2 -5.8342 -0.0858
33 1 3 -4.9485 0.2558
33 1 4 -2.6963 0.1022
33 1 5 0.3157 0.0385
33 1 6 1.1290 -0.1625
33 1 7 -0.5565 0.1613
33 1 8 -0.8686 -0.2177
33 1 9 6.0878 0.0668
33 1 10 3.5851 -0.2635
33 1 11 -0.1200 -0.0053
33 2 1 1.7935 -0.2633
33 2 2 2.6419 -0.4207
33 2 3 7.6687 -0.0788
33 2 4 3.0236 0.3797
33 2 5 5.1841 0.2622
33 2 6 1.3173 -0.1983
33 2 7 -1.4148 -0.2488
33 2 8 -2.9817 -0.0389
33 2 9 2.0599 0.3548
33 2 10 1.1715 0.2789
33 2 11 -0.0747 -0.1639
33 3 0 2.1255 -0.0488
33 3 1 0.9722 0.0859
33 3 2 -2.4055 0.0313
33 3 3 -5.6815 0.2025
33 3 4 -0.5012 0.0512
33 3 5 0.4763 -0.0984
33 3 6 -0.2585 -0.0473
33 3 7 -1.2060 0.0134
33 3 8 2.5144 0.1898
33 3 9 -0.4524 -0.0500
33 3 10 3.1391 -0.1042
33 4 1 1.1915 -0.1200
33 4 2 -1.1053 -0.0403
33 4 3 -10.3322 -0.0281
33 4 4 1.1017 0.1863
33 4 5 -1.3032 0.1453
33 4 6 -2.1354 -0.1516
33 4 7 -2.1997 -0.2890
33 4 8 1.4389 0.0667
33 4 9 0.9463 0.4128
33 4 10 -0.3957 0.1850
33 5 0 4.5216 -0.0085
33 5 1 -1.7053 -0.3562
33 5 2 -2.8707 0.4131
33 5 3 0.2440 -0.2095
33 5 4 -3.2651 0.2616
33 5 5 -0.8681 -0.2840
33 5 6 -0.1665 0.1756
33 5 7 2.0892 -0.1525
33 5 8 0.4314 0.3657
33 5 9 2.1337 0.0606
33 5 10 0.6007 0.0814
33 6 1 2.1628 0.1554
33 6 2 8.2496 0.2069
33 6 3 17.3592 0.1348
33 6 4 4.7351 -0.2192
33 6 5 1.1383 -0.0772
33 6 6 -1.2084 -0.0001
33 6 7 -0.7008 0.0123
33 6 8 -3.7390 0.0259
33 6 9 -0.7567 0.2038
33 6 10 -1.3469 0.1720
33 7 0 -7.0814 -0.0022
33 7 1 0.1763 -0.0099
33 7 2 0.9173 0.1156
33 7 3 -2.3127 -0.3321
33 7 4 0.4394 0.2241
33 7 5 -1.8022 -0.1552
33 7 6 -1.8760 0.1974
33 7 7 -1.4674 0.0244
33 7 8 0.9420 0.1077
33 7 9 0.6510 0.1947
33 7 10 -1.8173 0.0499
33 8 1 -0.5628 0.3608
33 8 2 1.4671 0.1786
33 8 3 -5.0059 -0.0665
33 8 4 -1.9266 -0.0927
33 8 5 -3.8581 -0.0195
33 8 6 -0.0251 0.0093
33 8 7 1.6856 -0.0750
33 8 8 0.5528 -0.0007
33 8 9 -0.7508 0.2336
33 9 0 -1.0724 0.0257
33 9 1 -3.3410 0.1187
33 9 2 -0.2333 0.0556
33 9 3 0.2202 -0.2044
33 9 4 -3.3332 -0.0392
33 9 5 -0.7483 0.1058
33 9 6 -1.0160 0.0599
33 9 7 -2.3876 -0.0322
33 9 8 -2.1147 0.1783
33 9 9 0.3962 0.1648
33 10 1 2.5288 0.1177
33 10 2 -2.1917 0.0616
33 10 3 -7.8817 0.0407
33 10 4 -7.7726 0.1256
33 10 5 -4.2773 -0.0460
33 10 6 -0.8370 -0.0440
33 10 7 0.0639 -0.1640
33 10 8 -2.1521 -0.0024
33 11 0 -0.8499 0.1395
33 11 1 -0.6710 0.0551
33 11 2 -0.5873 -0.0519
33 11 3 -2.5718 -0.0674
33 11 4 -0.3300 0.1163
33 11 5 -1.6033 -0.1672
33 11 6 -1.0972 0.0154
33 11 7 -2.1571 0.0726
33 11 8 0.2895 0.2033
33 12 1 4.3765 -0.0471
33 12 2 5.1084 -0.0420
33 12 3 4.6099 0.1410
33 12 4 5.1336 0.1927
33 12 5 6.1764 0.0789
33 12 6 1.5559 -0.1411
33 12 7 -3.2229 -0.2041
33 13 0 1.7144 0.2694
33 13 1 -1.7447 -0.0558
33 13 2 -1.8817 0.0718
33 13 3 -1.8174 -0.1711
33 13 4 0.0434 0.1202
33 13 5 -1.2196 -0.1673
33 13 6 -4.8146 0.0235
33 14 1 1.9484 0.0959
33 14 2 1.0887 -0.0171
33 14 3 -2.5535 -0.0312
33 14 4 -0.7106 0.1488
33 14 5 -1.2014 0.1412
33 15 0 9.4819 0.1880
33 15 1 8.0574 -0.0073
33 15 2 3.9372 0.2041
33 15 3 0.7892 -0.2884
33 15 4 3.3960 -0.0159
33 16 1 -3.3641 0.1465
34 0 0 -0.9063 0.1500
34 0 1 1.0741 0.4755
34 0 2 1.5582 0.4850
34 0 3 3.4125 0.9977
34 0 4 1.7226 -0.2643
34 0 5 5.8308 -0.6272
34 0 6 5.6119 -1.1346
34 0 7 4.4952 0.8150
34 0 8 0.1443 0.8790
34 0 9 -3.1833 0.6600
34 1 1 2.2207 0.4517
34 1 2 0.6897 -0.8236
34 1 3 0.5177 0.2039
34 1 4 -0.8523 0.5844
34 1 5 2.0816 -0.1630
34 1 6 -0.0305 -0.1317
34 1 7 -1.4777 -0.2293
34 1 8 -2.5351 -0.1947
34 1 9 0.9547 0.4338
34 2 0 -1.2245 -0.0941
34 2 1 0.4229 0.2746
34 2 2 2.2497 0.0251
34 2 3 1.8968 0.0121
34 2 4 2.6800 -0.2111
34 2 5 2.2249 0.1990
34 2 6 2.0651 -0.0778
34 2 7 0.3848 0.2195
34 2 8 0.3082 0.0604
34 2 9 1.0220 0.2572
34 3 1 -1.5939 -0.0762
34 3 2 -3.0327 0.2263
34 3 3 0.4631 -0.1762
34 3 4 0.3528 -0.1622
34 3 5 4.4394 0.1764
34 3 6 -0.6644 -0.0697
34 3 7 -0.3516 -0.1417
34 3 8 -0.4356 0.1919
34 3 9 -0.8373 0.0429
34 4 0 -2.8311 -0.2109
34 4 1 -4.7600 -0.1328
34 4 2 -4.9703 -0.1869
34 4 3 -3.4721 -0.2818
34 4 4 -1.9859 -0.0593
34 4 5 -3.5588 0.3813
34 4 6 -1.6332 0.4342
34 4 7 3.2134 -0.1477
34 4 8 4.3184 -0.1684
34 4 9 3.1248 -0.0720
34 5 1 -4.6771 0.0763
34 5 2 -4.3601 0.4008
34 5 3 -0.3939 -0.1029
34 5 4 0.3278 -0.2349
34 5 5 -2.5261 -0.1231
34 5 6 1.6459 0.0957
34 5 7 0.4243 0.1147
34 5 8 -0.9835 -0.1746
34 5 9 -0.2672 0.1600
34 6 0 -4.4335 -0.2621
34 6 1 -4.1206 -0.0807
34 6 2 -5.0790 -0.1686
34 6 3 -1.6411 -0.3401
34 6 4 0.6156 0.0782
34 6 5 4.9158 0.3286
34 6 6 1.7943 0.2294
34 6 7 -0.7197 -0.0338
34 6 8 -0.2218 -0.0980
34 6 9 -1.3640 -0.2492
34 7 1 -3.6424 0.1741
34 7 2 -0.3075 0.2787
34 7 3 1.0985 0.0244
34 7 4 -2.3621 -0.1320
34 7 5 1.5048 -0.0290
34 7 6 -0.8148 -0.0623
34 7 7 2.5433 -0.0488
34 7 8 0.2891 -0.0146
34 8 0 -0.3223 0.0911
34 8 1 3.9889 0.1554
34 8 2 2.7266 -0.0590
34 8 3 3.8126 -0.0657
34 8 4 0.1022 -0.1463
34 8 5 -1.6933 0.1333
34 8 6 -0.9564 0.1109
34 8 7 -0.7535 0.0712
34 8 8 -1.9664 -0.0211
34 9 1 5.4562 0.1607
34 9 2 -1.0417 -0.0587
34 9 3 0.3376 0.0874
34 9 4 -0.0023 0.0764
34 9 5 1.3135 0.0256
34 9 6 -1.4736 0.0038
34 9 7 -1.7266 -0.1342
34 10 0 10.4712 0.2686
34 10 1 10.9633 0.1866
34 10 2 14.2583 0.0252
34 10 3 7.3762 0.1050
34 10 4 1.3881 -0.0352
34 10 5 -0.5167 0.0746
34 10 6 -2.6393 -0.3020
34 10 7 -1.3370 0.1505
34 11 1 -0.9663 -0.0949
34 11 2 3.9803 0.0741
34 11 3 -2.8001 0.0539
34 11 4 0.1787 0.1180
34 11 5 -2.0649 -0.0564
34 11 6 1.2801 0.0940
34 12 0 11.3708 0.4641
34 12 1 8.1731 0.1068
34 12 2 -2.5063 -0.0012
34 12 3 -1.7934 0.0478
34 12 4 -1.9810 -0.0467
34 12 5 -0.7420 0.0816
34 13 1 0.7621 -0.1692
34 13 2 -2.4484 0.1356
34 13 3 -0.9939 -0.0106
34 13 4 -1.9686 -0.1767
34 14 0 -6.3611 0.3478
34 14 1 -8.5794 0.3778
34 14 2 -6.6769 -0.1348
35 1 0 -3.2893 -0.5710
35 1 1 -1.9676 0.2751
35 1 2 -12.3455 -0.4192
35 1 3 -2.8032 0.1448
35 1 4 1.5588 -0.6054
35 1 5 6.8380 0.5867
35 1 6 2.6654 -0.1397
35 1 7 0.2515 0.3927
35 1 8 -1.0592 -0.3086
35 2 1 0.0507 0.0730
35 2 2 -1.9655 -0.1681
35 2 3 -0.5827 -0.0034
35 2 4 -0.6777 0.0860
35 2 5 3.1074 0.1579
35 2 6 -1.8206 0.1677
35 2 7 -3.4108 -0.2948
35 2 8 -4.4412 -0.1144
35 3 0 -4.8032 -0.0857
35 3 1 -6.1959 0.1901
35 3 2 -2.6467 -0.6362
35 3 3 -3.0363 -0.0565
35 3 4 3.1991 -0.4843
35 3 5 -0.4134 0.6761
35 3 6 -1.1180 0.0242
35 3 7 0.0472 0.2488
35 3 8 2.8793 -0.4363
35 4 1 1.2563 -0.1484
35 4 2 0.9215 -0.0468
35 4 3 -0.4795 0.1712
35 4 4 2.5357 0.1723
35 4 5 2.6514 0.0744
35 4 6 2.2204 0.0125
35 4 7 -0.7645 -0.3038
35 4 8 0.1180 -0.0747
35 5 0 7.4705 -0.3714
35 5 1 2.1942 -0.3331
35 5 2 0.8820 -0.1990
35 5 3 4.8551 -0.0632
35 5 4 4.4907 -0.0639
35 5 5 3.5225 0.2884
35 5 6 -0.6298 0.0166
35 5 7 -1.0684 -0.0097
35 6 1 -0.2107 -0.0492
35 6 2 -1.0165 0.1414
35 6 3 2.0553 0.1295
35 6 4 0.7514 0.1363
35 6 5 -0.0976 0.0423
35 6 6 -0.2239 -0.1531
35 6 7 -4.1248 -0.1635
35 7 0 -14.5946 -0.4429
35 7 1 -10.7301 -0.2216
35 7 2 -3.2565 -0.2459
35 7 3 -4.7080 0.0506
35 7 4 1.1281 0.1321
35 7 5 2.1835 0.0870
35 7 6 3.5814 0.0318
35 7 7 0.8007 -0.0094
35 8 1 1.2143 0.0524
35 8 2 4.5875 0.2181
35 8 3 1.7115 0.0939
35 8 4 1.3830 0.1076
35 8 5 0.8666 -0.0475
35 8 6 1.2030 -0.2266
35 9 0 -12.6141 -0.4084
35 9 1 -6.0927 0.0356
35 9 2 -6.1306 -0.1767
35 9 3 1.8130 -0.0039
35 9 4 -1.3370 -0.2665
35 9 5 1.8647 0.4967
35 10 1 -1.3181 0.1600
35 10 2 -4.6513 0.0994
35 10 3 1.8682 0.1558
35 10 4 -1.1343 0.0287
35 10 5 0.5814 -0.0551
35 11 0 8.3602 -0.3255
35 11 1 1.7115 0.2963
35 11 2 3.4466 -0.3754
35 11 3 -1.2380 -0.1245
35 11 4 0.9754 -0.2723
35 12 1 1.1448 -0.0576
35 12 2 0.2150 -0.0403
36 0 0 13.2162 0.8050
36 0 1 3.1092 -0.3073
36 0 2 4.2141 0.4087
36 0 3 -2.3820 -1.0663
36 0 4 1.2399 0.6123
36 0 5 -0.5769 -0.3004
36 0 6 -1.0587 0.8385
36 1 1 8.1256 -1.1896
36 1 2 5.9412 -0.4533
36 1 3 -5.6986 0.3165
36 1 4 -8.0274 0.7867
36 1 5 -7.4647 0.3656
36 1 6 1.0234 -0.6776
36 2 0 -2.6110 -0.1350
36 2 1 4.3530 0.1782
36 2 2 -0.0831 -0.0221
36 2 3 4.3607 0.0010
36 2 4 -1.0716 0.0501
36 2 5 -0.0671 -0.1592
36 2 6 0.2529 0.0255
36 3 1 4.5657 -0.2883
36 3 2 4.4388 -0.3063
36 3 3 -1.5844 0.0335
36 3 4 -3.3381 0.1895
36 3 5 0.6714 0.0515
36 3 6 -0.2066 -0.1012
36 4 0 8.9478 0.0104
36 4 1 3.3606 0.1958
36 4 2 2.5404 0.0616
36 4 3 -0.3563 0.1896
36 4 4 4.7466 -0.2566
36 4 5 0.8631 -0.0710
36 4 6 0.4418 0.0618
36 5 1 -2.0653 -0.0719
36 5 2 -3.5502 -0.1566
36 5 3 -0.2758 -0.0458
36 5 4 3.1374 -0.0321
36 5 5 -0.0406 0.0267
36 6 0 -4.8459 -0.0529
36 6 1 -2.0645 -0.0572
36 6 2 -3.3865 0.1411
36 6 3 1.1769 0.0938
36 6 4 -0.9261 0.1083
36 6 5 0.8214 -0.1274
36 7 1 -1.7483 0.0596
36 7 2 2.0443 -0.0442
36 7 3 -0.6206 -0.0423
36 7 4 -1.2401 -0.0095
36 8 0 -0.3485 -0.3600
36 8 1 -8.4424 -0.0879
36 8 2 -4.4411 0.2084
36 8 3 -6.5499 -0.0983
36 8 4 1.4669 0.2435
36 9 1 6.8882 0.0154
36 9 2 0.7647 -0.0113
36 9 3 -4.0542 0.0300
36 10 0 -3.3256 -0.5487
37 1 0 -4.1168 0.1064
37 1 1 -2.9309 -0.2013
37 1 2 1.1101 0.1585
37 1 3 2.9440 -0.3086
37 1 4 -0.2759 0.0210
37 2 1 -3.0443 0.1616
37 2 2 -3.3777 0.3942
37 2 3 -4.0575 0.0884
37 2 4 -0.2330 -0.2839
37 3 0 -4.8980 0.0268
37 3 1 -0.8541 -0.1886
37 3 2 -1.9091 0.0843
37 3 3 1.1432 -0.2490
37 4 1 -0.6263 0.2119
37 4 2 1.7688 0.0886
37 4 3 5.2219 -0.0155
37 5 0 -0.9212 0.1327
37 5 1 -4.1363 -0.0792
37 5 2 -0.1672 0.0017
37 6 1 1.9397 0.1634
0 0 0 0.0 0.0
;
_shelx_fab_checksum              90354
_olex2_submission_special_instructions 'No special instructions were received'
_oxdiff_exptl_absorpt_empirical_details
;
Empirical correction (ABSPACK) includes:
- Absorption correction using spherical harmonics
- Frame scaling
;
_oxdiff_exptl_absorpt_empirical_full_max 1.522
_oxdiff_exptl_absorpt_empirical_full_min 0.527
loop_
_space_group_symop_operation_xyz
'x, y, z'
'-x+1/2, -y+1/2, z'
'x, -y+1/2, -z'
'-x+1/2, y, -z'
'-x, -y, -z'
'x-1/2, y-1/2, -z'
'-x, y-1/2, z'
'x-1/2, -y, z'
loop_
_atom_site_label
_atom_site_type_symbol
_atom_site_fract_x
_atom_site_fract_y
_atom_site_fract_z
_atom_site_U_iso_or_equiv
_atom_site_adp_type
_atom_site_occupancy
_atom_site_site_symmetry_order
_atom_site_calc_flag
_atom_site_refinement_flags_posn
_atom_site_refinement_flags_adp
Zn1 Zn 0.12303(3) 0.52909(3) 0.50081(5) 0.0405(4) Uani 1 1 d . .
Zn2 Zn 0.11250(3) 0.49782(2) 0.34529(5) 0.0377(4) Uani 1 1 d . .
Zn3 Zn 0.11988(3) 0.46523(3) 0.18592(5) 0.0434(4) Uani 1 1 d . .
O1 O 0.11541(14) 0.46972(16) 0.4474(3) 0.0462(12) Uani 1 1 d . .
O2 O 0.06446(16) 0.45413(17) 0.3174(3) 0.0523(12) Uani 1 1 d . .
O3 O 0.06829(17) 0.43025(19) 0.2073(3) 0.0594(14) Uani 1 1 d . .
O4 O 0.17574(17) 0.45784(18) 0.5036(3) 0.0589(14) Uani 1 1 d . .
O5 O -0.33799(16) 0.45768(17) 0.3660(3) 0.0516(12) Uani 1 1 d . .
O6 O -0.11245(17) 0.02546(16) 0.2366(3) 0.0532(13) Uani 1 1 d . .
O7 O -0.06696(16) 0.04348(18) 0.3768(3) 0.0519(12) Uani 1 1 d . .
O8 O 0.33962(16) 0.04696(18) 0.3155(3) 0.0557(13) Uani 1 1 d . .
O9 O 0.33491(16) 0.07708(18) 0.2108(3) 0.0547(13) Uani 1 1 d . .
O10 O -0.33484(16) 0.42618(16) 0.4708(3) 0.0518(12) Uani 1 1 d . .
O11 O -0.06861(15) 0.06143(17) 0.4890(3) 0.0509(12) Uani 1 1 d . .
O12 O -0.17100(19) 0.03726(17) 0.1787(3) 0.0636(15) Uani 1 1 d . .
N1 N 0.12486(18) 0.5172(2) 0.6029(4) 0.0531(16) Uani 1 1 d . .
N2 N 0.1172(3) 0.4679(3) 1.0828(5) 0.080(2) Uani 1 1 d . U
C1 C 0.0129(2) 0.4012(2) 0.2771(4) 0.0466(16) Uani 1 1 d . .
C2 C 0.1456(2) 0.3916(2) 0.4469(4) 0.0487(17) Uani 1 1 d . .
C3 C 0.2834(2) 0.0983(2) 0.2940(5) 0.0530(18) Uani 1 1 d . .
C4 C -0.1419(2) 0.1991(2) 0.2777(4) 0.0490(17) Uani 1 1 d . .
C5 C 0.1475(2) 0.4426(2) 0.4661(3) 0.0431(15) Uani 1 1 d . .
C6 C 0.3219(2) 0.0727(2) 0.2717(4) 0.0426(15) Uani 1 1 d . .
C7 C 0.0517(2) 0.4307(2) 0.2648(4) 0.0471(16) Uani 1 1 d . .
C8 C -0.1383(2) 0.3466(2) 0.3224(4) 0.0491(17) Uani 1 1 d . .
H8 H -0.1374 0.3788 0.3321 0.059 Uiso 1 1 calc R .
C9 C -0.1428(2) 0.0522(2) 0.2170(3) 0.0439(15) Uani 1 1 d . .
C10 C 0.1779(2) 0.3155(2) 0.4433(4) 0.0507(17) Uani 1 1 d . .
H10 H 0.2012 0.2966 0.4521 0.061 Uiso 1 1 calc R .
C11 C 0.1419(2) 0.2957(2) 0.4138(4) 0.0503(17) Uani 1 1 d . .
C12 C -0.2247(2) 0.3909(2) 0.3151(4) 0.0531(17) Uani 1 1 d . .
H12 H -0.2076 0.4020 0.2796 0.064 Uiso 1 1 calc R .
C13 C -0.1761(2) 0.1791(2) 0.2416(5) 0.0551(18) Uani 1 1 d . .
H13 H -0.1989 0.1981 0.2299 0.066 Uiso 1 1 calc R .
C14 C -0.3225(2) 0.4303(2) 0.4102(4) 0.0419(15) Uani 1 1 d . .
C15 C 0.1790(2) 0.3627(2) 0.4595(4) 0.0492(17) Uani 1 1 d . .
H15 H 0.2031 0.3753 0.4796 0.059 Uiso 1 1 calc R .
C16 C 0.0341(2) 0.1514(2) 0.4584(4) 0.0526(18) Uani 1 1 d . .
H16 H 0.0409 0.1748 0.4904 0.063 Uiso 1 1 calc R .
C17 C -0.1425(2) 0.1027(2) 0.2382(4) 0.0502(17) Uani 1 1 d . .
C18 C 0.0605(2) 0.1444(2) 0.4030(5) 0.0529(18) Uani 1 1 d . .
C19 C -0.0136(2) 0.0915(2) 0.4206(4) 0.0473(16) Uani 1 1 d . .
C20 C -0.1013(2) 0.3231(2) 0.3015(4) 0.0495(17) Uani 1 1 d . .
C21 C -0.1084(2) 0.1218(2) 0.2745(4) 0.0483(16) Uani 1 1 d . .
H21 H -0.0859 0.1026 0.2865 0.058 Uiso 1 1 calc R .
C22 C 0.1746(2) 0.2205(2) 0.3732(4) 0.0485(16) Uani 1 1 d . .
H22 H 0.1993 0.2372 0.3650 0.058 Uiso 1 1 calc R .
C23 C -0.1760(2) 0.3224(2) 0.3287(4) 0.0488(16) Uani 1 1 d . .
C24 C -0.1030(2) 0.2747(2) 0.2871(5) 0.0539(19) Uani 1 1 d . .
H24 H -0.0788 0.2591 0.2728 0.065 Uiso 1 1 calc R .
C25 C 0.1369(2) 0.1483(2) 0.3715(4) 0.0501(17) Uani 1 1 d . .
H25 H 0.1363 0.1158 0.3645 0.060 Uiso 1 1 calc R .
C26 C 0.1005(2) 0.1710(2) 0.3927(4) 0.0471(16) Uani 1 1 d . .
C27 C 0.1326(4) 0.4898(5) 0.8211(7) 0.096(3) Uani 1 1 d . U
H27 H 0.1593 0.4932 0.8399 0.115 Uiso 1 1 calc R .
C28 C 0.1097(2) 0.3730(2) 0.4165(5) 0.0520(19) Uani 1 1 d . .
H28 H 0.0868 0.3923 0.4070 0.062 Uiso 1 1 calc R .
C29 C -0.2849(2) 0.4011(2) 0.3883(4) 0.0433(15) Uani 1 1 d . .
C30 C -0.0103(2) 0.4053(3) 0.3369(4) 0.0508(17) Uani 1 1 d . .
H30 H -0.0008 0.4248 0.3723 0.061 Uiso 1 1 calc R .
C31 C -0.1763(2) 0.2743(2) 0.3147(4) 0.0520(18) Uani 1 1 d . .
H31 H -0.2014 0.2577 0.3192 0.062 Uiso 1 1 calc R .
C32 C 0.1398(2) 0.2443(2) 0.3979(5) 0.056(2) Uani 1 1 d . .
C33 C -0.0529(2) 0.0636(2) 0.4310(3) 0.0419(15) Uani 1 1 d . .
C34 C 0.1029(2) 0.2191(2) 0.4084(4) 0.0503(17) Uani 1 1 d . .
H34 H 0.0794 0.2345 0.4261 0.060 Uiso 1 1 calc R .
C35 C -0.2756(3) 0.3592(3) 0.4209(5) 0.062(2) Uani 1 1 d . .
H35 H -0.2921 0.3490 0.4577 0.075 Uiso 1 1 calc R .
C36 C 0.2218(2) 0.1023(2) 0.3652(5) 0.0558(19) Uani 1 1 d . .
H36 H 0.2043 0.0884 0.3978 0.067 Uiso 1 1 calc R .
C37 C -0.0019(2) 0.1253(2) 0.4683(5) 0.0565(19) Uani 1 1 d . .
H37 H -0.0184 0.1305 0.5072 0.068 Uiso 1 1 calc R .
C38 C -0.2588(2) 0.4165(2) 0.3339(4) 0.0529(18) Uani 1 1 d . .
H38 H -0.2649 0.4445 0.3108 0.063 Uiso 1 1 calc R .
C39 C -0.1766(2) 0.1322(2) 0.2236(4) 0.0517(17) Uani 1 1 d . .
H39 H -0.2000 0.1198 0.2014 0.062 Uiso 1 1 calc R .
C40 C -0.0611(2) 0.3490(2) 0.2926(4) 0.0471(15) Uani 1 1 d . .
C41 C 0.1736(2) 0.1725(2) 0.3603(4) 0.0456(15) Uani 1 1 d . .
C42 C 0.1084(2) 0.3253(2) 0.4006(5) 0.059(2) Uani 1 1 d . .
H42 H 0.0843 0.3129 0.3805 0.071 Uiso 1 1 calc R .
C43 C 0.2580(2) 0.0799(2) 0.3441(4) 0.0457(16) Uani 1 1 d . .
H43 H 0.2654 0.0514 0.3646 0.055 Uiso 1 1 calc R .
C44 C 0.2735(3) 0.1417(3) 0.2643(5) 0.0585(19) Uani 1 1 d . .
H44 H 0.2904 0.1540 0.2294 0.070 Uiso 1 1 calc R .
C45 C 0.0475(3) 0.1105(3) 0.3550(5) 0.064(2) Uani 1 1 d . .
H45 H 0.0643 0.1051 0.3165 0.077 Uiso 1 1 calc R .
C46 C -0.1404(2) 0.2498(2) 0.2941(4) 0.0481(17) Uani 1 1 d . .
C47 C -0.0471(2) 0.3808(3) 0.3449(4) 0.0516(17) Uani 1 1 d . .
H47 H -0.0631 0.3851 0.3846 0.062 Uiso 1 1 calc R .
C48 C -0.2420(2) 0.3323(3) 0.3991(5) 0.065(2) Uani 1 1 d . .
H48 H -0.2376 0.3029 0.4192 0.078 Uiso 1 1 calc R .
C49 C 0.2118(2) 0.1464(2) 0.3367(4) 0.0521(18) Uani 1 1 d . .
C50 C -0.2143(2) 0.3481(2) 0.3474(4) 0.0478(17) Uani 1 1 d . .
C51 C 0.0119(2) 0.0855(3) 0.3617(4) 0.059(2) Uani 1 1 d . .
H51 H 0.0040 0.0643 0.3273 0.071 Uiso 1 1 calc R .
C52 C -0.1081(2) 0.1692(2) 0.2926(5) 0.0539(18) Uani 1 1 d . .
H52 H -0.0848 0.1814 0.3153 0.065 Uiso 1 1 calc R .
C53 C -0.0365(3) 0.3443(3) 0.2346(5) 0.075(3) Uani 1 1 d . .
H53 H -0.0449 0.3237 0.1998 0.090 Uiso 1 1 calc R .
C54 C 0.0003(3) 0.3692(3) 0.2269(6) 0.078(3) Uani 1 1 d . .
H54 H 0.0168 0.3646 0.1877 0.094 Uiso 1 1 calc R .
C55 C 0.2389(3) 0.1663(3) 0.2864(5) 0.068(2) Uani 1 1 d . .
H55 H 0.2332 0.1961 0.2684 0.081 Uiso 1 1 calc R .
C56 C 0.1615(3) 0.5135(3) 0.6380(4) 0.0558(18) Uani 1 1 d . .
H56 H 0.1861 0.5173 0.6129 0.067 Uiso 1 1 calc R .
C57 C 0.0903(3) 0.5098(3) 0.6395(5) 0.062(2) Uani 1 1 d . .
H57 H 0.0645 0.5108 0.6171 0.074 Uiso 1 1 calc R .
C58 C 0.0913(4) 0.5007(4) 0.7100(5) 0.080(3) Uani 1 1 d . .
H58 H 0.0663 0.4965 0.7340 0.096 Uiso 1 1 calc R .
C59 C 0.1652(3) 0.5049(3) 0.7051(5) 0.068(2) Uani 1 1 d . .
H59 H 0.1913 0.5034 0.7264 0.082 Uiso 1 1 calc R .
C60 C 0.1275(4) 0.4981(3) 0.7433(6) 0.082(3) Uani 1 1 d . U
C61 C 0.1100(4) 0.4725(4) 0.9382(7) 0.106(3) Uani 1 1 d . U
C62 C 0.1021(4) 0.4782(5) 0.8630(7) 0.101(3) Uani 1 1 d . U
H62 H 0.0752 0.4734 0.8455 0.121 Uiso 1 1 calc R .
C63 C 0.1502(4) 0.4801(3) 1.0432(6) 0.093(2) Uani 1 1 d . U
H63 H 0.1755 0.4869 1.0650 0.112 Uiso 1 1 calc R .
C64 C 0.1487(4) 0.4830(4) 0.9759(6) 0.102(3) Uani 1 1 d . U
H64 H 0.1726 0.4918 0.9515 0.122 Uiso 1 1 calc R .
C65 C 0.0791(5) 0.4607(4) 0.9774(7) 0.118(3) Uani 1 1 d . U
H65 H 0.0534 0.4535 0.9574 0.141 Uiso 1 1 calc R .
C66 C 0.0831(4) 0.4585(4) 1.0447(7) 0.110(3) Uani 1 1 d . U
H66 H 0.0592 0.4492 1.0691 0.133 Uiso 1 1 calc R .
loop_
_atom_site_aniso_label
_atom_site_aniso_U_11
_atom_site_aniso_U_22
_atom_site_aniso_U_33
_atom_site_aniso_U_23
_atom_site_aniso_U_13
_atom_site_aniso_U_12
Zn1 0.0348(6) 0.0269(5) 0.0598(7) 0.0012(3) -0.0011(3) -0.0015(3)
Zn2 0.0302(6) 0.0227(5) 0.0601(7) -0.0020(3) -0.0001(3) -0.0006(3)
Zn3 0.0439(6) 0.0313(6) 0.0551(7) -0.0003(3) 0.0002(4) -0.0017(3)
O1 0.032(2) 0.033(2) 0.074(4) -0.002(2) 0.001(2) 0.0037(17)
O2 0.046(3) 0.040(2) 0.071(3) -0.005(2) -0.002(2) -0.009(2)
O3 0.051(3) 0.054(3) 0.074(4) -0.013(3) 0.002(3) -0.019(2)
O4 0.048(3) 0.032(2) 0.097(4) -0.001(2) -0.015(3) 0.001(2)
O5 0.051(3) 0.040(3) 0.064(3) -0.004(2) -0.001(2) 0.011(2)
O6 0.056(3) 0.027(2) 0.077(4) 0.000(2) 0.004(2) 0.006(2)
O7 0.053(3) 0.046(3) 0.056(3) 0.009(2) -0.002(2) -0.012(2)
O8 0.049(3) 0.044(3) 0.073(4) -0.005(2) -0.005(2) 0.015(2)
O9 0.052(3) 0.047(3) 0.065(4) 0.006(2) 0.002(2) 0.008(2)
O10 0.051(3) 0.033(2) 0.071(4) 0.001(2) 0.003(2) 0.012(2)
O11 0.041(3) 0.041(3) 0.071(4) -0.009(2) -0.002(2) -0.015(2)
O12 0.073(4) 0.035(3) 0.084(4) -0.002(2) -0.016(3) 0.004(2)
N1 0.037(3) 0.032(3) 0.091(5) 0.000(3) -0.003(3) -0.008(2)
N2 0.092(4) 0.090(5) 0.056(4) 0.001(3) 0.001(3) -0.017(3)
C1 0.035(3) 0.035(3) 0.070(5) -0.010(3) -0.001(3) -0.004(3)
C2 0.042(4) 0.031(3) 0.072(5) 0.010(3) 0.002(3) 0.001(3)
C3 0.038(4) 0.036(3) 0.085(6) 0.001(3) -0.003(3) 0.005(3)
C4 0.050(4) 0.026(3) 0.070(5) -0.001(3) 0.004(3) 0.002(3)
C5 0.059(4) 0.047(4) 0.023(3) 0.007(3) -0.003(3) -0.007(3)
C6 0.046(4) 0.036(3) 0.046(4) -0.005(3) -0.001(3) 0.004(3)
C7 0.041(4) 0.030(3) 0.071(5) -0.005(3) 0.001(3) 0.005(3)
C8 0.034(4) 0.034(3) 0.080(5) -0.006(3) -0.001(3) -0.003(3)
C9 0.060(4) 0.044(4) 0.028(3) 0.007(3) 0.003(3) -0.002(3)
C10 0.037(3) 0.027(3) 0.088(5) 0.006(3) 0.000(3) 0.003(3)
C11 0.041(4) 0.029(3) 0.081(5) 0.002(3) 0.007(3) 0.001(3)
C12 0.052(4) 0.040(4) 0.067(5) 0.003(3) 0.007(3) 0.002(3)
C13 0.047(4) 0.031(3) 0.088(6) -0.004(3) -0.005(3) 0.003(3)
C14 0.036(3) 0.027(3) 0.062(5) 0.003(3) -0.004(3) 0.007(2)
C15 0.031(3) 0.031(3) 0.085(5) -0.001(3) 0.000(3) -0.008(3)
C16 0.041(4) 0.034(3) 0.083(5) -0.009(3) 0.001(3) -0.011(3)
C17 0.041(4) 0.033(3) 0.077(5) 0.003(3) 0.005(3) -0.007(3)
C18 0.033(3) 0.031(3) 0.096(6) 0.000(3) 0.004(3) -0.005(3)
C19 0.040(4) 0.038(3) 0.064(4) -0.003(3) -0.002(3) 0.002(3)
C20 0.039(4) 0.033(3) 0.077(5) -0.008(3) 0.002(3) 0.000(3)
C21 0.047(4) 0.034(3) 0.063(5) 0.005(3) -0.001(3) 0.006(3)
C22 0.039(3) 0.035(3) 0.071(5) 0.002(3) 0.009(3) -0.003(3)
C23 0.041(4) 0.034(3) 0.072(5) -0.001(3) 0.001(3) 0.007(3)
C24 0.033(3) 0.032(3) 0.097(6) -0.008(3) 0.001(3) 0.002(3)
C25 0.043(4) 0.033(3) 0.074(5) 0.003(3) -0.001(3) 0.002(3)
C26 0.034(3) 0.033(3) 0.074(5) 0.007(3) -0.002(3) 0.001(3)
C27 0.104(5) 0.096(5) 0.087(4) 0.014(4) 0.003(4) -0.012(5)
C28 0.029(3) 0.029(3) 0.097(6) 0.004(3) -0.002(3) 0.000(3)
C29 0.038(3) 0.034(3) 0.057(4) -0.006(3) -0.001(3) 0.002(3)
C30 0.042(4) 0.048(4) 0.062(4) -0.012(3) -0.004(3) -0.008(3)
C31 0.039(4) 0.027(3) 0.089(6) -0.002(3) 0.006(3) 0.000(3)
C32 0.036(4) 0.030(3) 0.101(6) -0.001(3) 0.000(4) 0.007(3)
C33 0.048(4) 0.032(3) 0.045(4) -0.003(3) -0.006(3) 0.010(3)
C34 0.033(3) 0.033(3) 0.085(5) -0.003(3) 0.004(3) 0.004(3)
C35 0.055(4) 0.044(4) 0.089(6) 0.010(4) 0.011(4) 0.008(3)
C36 0.043(4) 0.032(3) 0.092(6) 0.004(3) 0.009(4) 0.008(3)
C37 0.044(4) 0.039(4) 0.086(6) -0.013(3) 0.006(4) -0.001(3)
C38 0.046(4) 0.030(3) 0.083(5) 0.006(3) 0.004(3) 0.008(3)
C39 0.054(4) 0.028(3) 0.073(5) -0.001(3) -0.008(3) -0.003(3)
C40 0.046(4) 0.039(3) 0.057(4) -0.011(3) -0.001(3) -0.003(3)
C41 0.042(4) 0.029(3) 0.066(5) 0.006(3) 0.000(3) 0.005(3)
C42 0.035(3) 0.025(3) 0.116(7) 0.004(4) 0.005(4) -0.002(3)
C43 0.048(4) 0.031(3) 0.059(4) 0.002(3) 0.004(3) 0.000(3)
C44 0.058(5) 0.041(4) 0.077(5) 0.013(3) 0.008(4) 0.001(3)
C45 0.053(5) 0.056(5) 0.084(6) -0.014(4) 0.015(4) -0.010(4)
C46 0.035(3) 0.031(3) 0.078(5) -0.007(3) 0.002(3) -0.002(2)
C47 0.046(4) 0.043(4) 0.066(5) -0.001(3) 0.000(3) -0.003(3)
C48 0.050(4) 0.032(3) 0.112(7) 0.011(4) 0.016(4) 0.010(3)
C49 0.039(4) 0.031(3) 0.086(5) 0.006(3) 0.009(3) -0.002(3)
C50 0.032(3) 0.031(3) 0.080(5) -0.001(3) -0.002(3) -0.003(3)
C51 0.048(4) 0.060(5) 0.069(5) -0.026(4) 0.010(3) -0.019(4)
C52 0.046(4) 0.033(4) 0.083(6) -0.006(3) -0.002(3) -0.007(3)
C53 0.066(5) 0.071(5) 0.089(7) -0.030(5) 0.020(4) -0.026(4)
C54 0.062(5) 0.078(6) 0.095(7) -0.033(5) 0.023(5) -0.021(4)
C55 0.057(5) 0.036(4) 0.111(7) 0.023(4) 0.018(4) 0.012(3)
C56 0.067(5) 0.067(5) 0.033(4) 0.007(3) 0.000(3) 0.006(4)
C57 0.046(4) 0.062(5) 0.078(6) 0.002(4) 0.001(4) -0.011(4)
C58 0.080(7) 0.108(8) 0.052(5) 0.007(5) 0.006(4) -0.015(5)
C59 0.075(6) 0.065(5) 0.066(6) 0.000(4) -0.010(4) -0.003(4)
C60 0.102(6) 0.064(5) 0.078(5) 0.011(4) -0.003(4) -0.013(4)
C61 0.115(5) 0.118(5) 0.084(4) 0.003(4) -0.004(4) -0.044(4)
C62 0.096(5) 0.117(5) 0.090(4) 0.007(5) -0.007(4) -0.030(5)
C63 0.102(5) 0.113(5) 0.064(4) 0.010(4) 0.006(4) -0.015(5)
C64 0.116(5) 0.118(5) 0.072(4) 0.013(4) 0.000(4) -0.026(5)
C65 0.117(5) 0.147(6) 0.089(4) 0.000(5) -0.009(4) -0.036(5)
C66 0.112(5) 0.139(6) 0.080(4) 0.000(5) -0.009(4) -0.031(5)
loop_
_atom_type_symbol
_atom_type_description
_atom_type_scat_dispersion_real
_atom_type_scat_dispersion_imag
_atom_type_scat_source
C C 0.0181 0.0091 'International Tables Vol C Tables 4.2.6.8 and 6.1.1.4'
H H 0.0000 0.0000 'International Tables Vol C Tables 4.2.6.8 and 6.1.1.4'
N N 0.0311 0.0180 'International Tables Vol C Tables 4.2.6.8 and 6.1.1.4'
O O 0.0492 0.0322 'International Tables Vol C Tables 4.2.6.8 and 6.1.1.4'
Zn Zn -1.5491 0.6778 'International Tables Vol C Tables 4.2.6.8 and 6.1.1.4'
loop_
_geom_angle_atom_site_label_1
_geom_angle_atom_site_label_2
_geom_angle_atom_site_label_3
_geom_angle
_geom_angle_site_symmetry_1
_geom_angle_site_symmetry_3
O1 Zn1 Zn2 41.77(16) . .
O1 Zn1 N1 111.9(2) . .
O10 Zn1 Zn2 88.39(17) 8_665 .
O10 Zn1 O1 118.9(2) 8_665 .
O10 Zn1 O11 105.7(2) 8_665 7_565
O10 Zn1 N1 112.7(2) 8_665 .
O11 Zn1 Zn2 85.77(16) 7_565 .
O11 Zn1 O1 103.0(2) 7_565 .
O11 Zn1 N1 102.6(2) 7_565 .
N1 Zn1 Zn2 153.60(17) . .
O1 Zn2 Zn1 38.39(13) . .
O1 Zn2 O6 177.1(2) . 7_565
O2 Zn2 Zn1 120.16(16) . .
O2 Zn2 O1 93.0(2) . .
O2 Zn2 O5 175.9(2) . 8_665
O2 Zn2 O6 87.9(2) . 7_565
O2 Zn2 O8 96.2(2) . 2
O5 Zn2 Zn1 63.96(15) 8_665 .
O5 Zn2 O1 90.86(19) 8_665 .
O5 Zn2 O6 88.2(2) 8_665 7_565
O5 Zn2 O8 82.2(2) 8_665 2
O6 Zn2 Zn1 142.75(13) 7_565 .
O7 Zn2 Zn1 67.16(15) 7_565 .
O7 Zn2 O1 89.46(19) 7_565 .
O7 Zn2 O2 86.0(2) 7_565 .
O7 Zn2 O5 95.7(2) 7_565 8_665
O7 Zn2 O6 93.35(19) 7_565 7_565
O7 Zn2 O8 177.8(2) 7_565 2
O8 Zn2 Zn1 111.10(16) 2 .
O8 Zn2 O1 89.8(2) 2 .
O8 Zn2 O6 87.3(2) 2 7_565
O3 Zn3 O6 103.3(2) . 7_565
O3 Zn3 N2 101.2(3) . 1_554
O6 Zn3 N2 117.2(3) 7_565 1_554
O9 Zn3 O3 105.0(3) 2 .
O9 Zn3 O6 119.9(2) 2 7_565
O9 Zn3 N2 107.6(3) 2 1_554
Zn1 O1 Zn2 99.8(2) . .
C5 O1 Zn1 104.8(4) . .
C5 O1 Zn2 120.1(4) . .
C7 O2 Zn2 139.7(5) . .
C7 O3 Zn3 123.0(5) . .
C14 O5 Zn2 144.3(5) . 8_565
Zn3 O6 Zn2 99.4(2) 7 7
C9 O6 Zn2 118.8(4) . 7
C9 O6 Zn3 105.7(5) . 7
C33 O7 Zn2 141.4(5) . 7
C6 O8 Zn2 151.5(5) . 2
C6 O9 Zn3 114.6(4) . 2
C14 O10 Zn1 116.2(4) . 8_565
C33 O11 Zn1 119.1(4) . 7
C56 N1 Zn1 122.2(5) . .
C57 N1 Zn1 121.9(6) . .
C57 N1 C56 115.8(8) . .
C63 N2 Zn3 123.1(8) . 1_556
C66 N2 Zn3 125.1(8) . 1_556
C66 N2 C63 111.8(11) . .
C30 C1 C7 121.6(6) . .
C30 C1 C54 119.3(7) . .
C54 C1 C7 119.1(7) . .
C15 C2 C5 120.4(7) . .
C15 C2 C28 119.3(6) . .
C28 C2 C5 120.3(6) . .
C43 C3 C6 120.4(6) . .
C43 C3 C44 119.8(7) . .
C44 C3 C6 119.8(7) . .
C13 C4 C46 121.6(6) . .
C52 C4 C13 116.8(6) . .
C52 C4 C46 121.5(6) . .
O1 C5 C2 117.6(6) . .
O4 C5 O1 121.1(6) . .
O4 C5 C2 120.9(6) . .
O8 C6 O9 123.0(6) . .
O8 C6 C3 117.4(6) . .
O9 C6 C3 119.6(6) . .
O2 C7 C1 114.9(7) . .
O3 C7 O2 125.9(6) . .
O3 C7 C1 119.2(6) . .
C23 C8 C20 120.9(6) . .
O6 C9 C17 118.7(6) . .
O12 C9 O6 121.4(6) . .
O12 C9 C17 119.8(6) . .
C15 C10 C11 120.3(6) . .
C10 C11 C32 120.9(6) . .
C42 C11 C10 117.7(6) . .
C42 C11 C32 121.4(7) . .
C38 C12 C50 122.2(7) . .
C39 C13 C4 121.5(7) . .
O5 C14 C29 117.3(6) . .
O10 C14 O5 125.2(6) . .
O10 C14 C29 117.5(6) . .
C2 C15 C10 121.6(7) . .
C18 C16 C37 122.6(7) . .
C21 C17 C9 120.9(6) . .
C39 C17 C9 120.9(6) . .
C39 C17 C21 118.2(6) . .
C16 C18 C26 123.4(7) . .
C16 C18 C45 115.8(6) . .
C45 C18 C26 120.8(7) . .
C37 C19 C33 120.2(7) . .
C37 C19 C51 117.9(7) . .
C51 C19 C33 121.9(6) . .
C8 C20 C40 121.3(6) . .
C24 C20 C8 119.1(6) . .
C24 C20 C40 119.6(6) . .
C52 C21 C17 120.4(7) . .
C41 C22 C32 121.5(6) . .
C8 C23 C31 118.4(6) . .
C8 C23 C50 119.7(6) . .
C31 C23 C50 122.0(6) . .
C46 C24 C20 120.7(6) . .
C41 C25 C26 121.7(6) . .
C25 C26 C18 121.1(6) . .
C25 C26 C34 118.1(6) . .
C34 C26 C18 120.7(6) . .
C62 C27 C60 124.8(13) . .
C42 C28 C2 119.2(6) . .
C35 C29 C14 120.9(7) . .
C35 C29 C38 118.8(6) . .
C38 C29 C14 120.3(6) . .
C47 C30 C1 120.7(7) . .
C23 C31 C46 122.4(6) . .
C22 C32 C11 120.7(6) . .
C22 C32 C34 118.7(6) . .
C34 C32 C11 120.7(6) . .
O7 C33 C19 114.9(6) . .
O11 C33 O7 125.7(6) . .
O11 C33 C19 119.4(6) . .
C32 C34 C26 121.0(6) . .
C29 C35 C48 120.2(8) . .
C43 C36 C49 119.0(7) . .
C16 C37 C19 120.3(7) . .
C12 C38 C29 120.4(6) . .
C13 C39 C17 121.1(7) . .
C47 C40 C20 120.0(7) . .
C53 C40 C20 122.5(7) . .
C53 C40 C47 117.5(7) . .
C22 C41 C49 121.5(6) . .
C25 C41 C22 118.8(6) . .
C25 C41 C49 119.6(6) . .
C11 C42 C28 121.9(7) . .
C3 C43 C36 122.0(6) . .
C55 C44 C3 120.1(7) . .
C51 C45 C18 123.2(8) . .
C24 C46 C4 120.2(6) . .
C24 C46 C31 118.6(6) . .
C31 C46 C4 121.2(6) . .
C30 C47 C40 120.5(7) . .
C35 C48 C50 122.0(7) . .
C36 C49 C41 120.4(7) . .
C36 C49 C55 119.0(7) . .
C55 C49 C41 120.6(6) . .
C12 C50 C23 121.0(7) . .
C12 C50 C48 116.2(6) . .
C48 C50 C23 122.8(6) . .
C45 C51 C19 120.1(7) . .
C21 C52 C4 122.0(7) . .
C54 C53 C40 121.6(8) . .
C53 C54 C1 120.3(8) . .
C44 C55 C49 120.0(7) . .
C59 C56 N1 125.6(8) . .
N1 C57 C58 122.4(8) . .
C60 C58 C57 120.6(10) . .
C56 C59 C60 117.3(9) . .
C58 C60 C27 125.4(11) . .
C58 C60 C59 118.3(10) . .
C59 C60 C27 116.3(11) . .
C64 C61 C62 127.6(12) . .
C65 C61 C62 118.5(13) . .
C65 C61 C64 113.7(13) . .
C27 C62 C61 120.6(13) . .
C64 C63 N2 123.8(12) . .
C63 C64 C61 121.1(12) . .
C61 C65 C66 121.7(14) . .
C65 C66 N2 127.9(14) . .
loop_
_geom_bond_atom_site_label_1
_geom_bond_atom_site_label_2
_geom_bond_distance
_geom_bond_site_symmetry_2
Zn1 Zn2 3.1524(12) .
Zn1 O1 1.987(5) .
Zn1 O10 1.934(5) 8_665
Zn1 O11 1.973(5) 7_565
Zn1 N1 2.003(7) .
Zn2 O1 2.131(6) .
Zn2 O2 2.040(5) .
Zn2 O5 2.057(5) 8_665
Zn2 O6 2.242(6) 7_565
Zn2 O7 2.036(5) 7_565
Zn2 O8 2.065(5) 2
Zn3 O3 1.962(5) .
Zn3 O6 1.981(5) 7_565
Zn3 O9 1.933(5) 2
Zn3 N2 1.996(9) 1_554
O1 C5 1.327(9) .
O2 C7 1.280(9) .
O3 C7 1.232(9) .
O4 C5 1.235(9) .
O5 Zn2 2.057(5) 8_565
O5 C14 1.255(8) .
O6 Zn2 2.242(6) 7
O6 Zn3 1.981(5) 7
O6 C9 1.285(9) .
O7 Zn2 2.036(5) 7
O7 C33 1.274(8) .
O8 Zn2 2.065(5) 2
O8 C6 1.250(9) .
O9 Zn3 1.933(5) 2
O9 C6 1.255(9) .
O10 Zn1 1.934(5) 8_565
O10 C14 1.243(9) .
O11 Zn1 1.973(5) 7
O11 C33 1.230(8) .
O12 C9 1.239(9) .
N1 C56 1.352(10) .
N1 C57 1.324(11) .
N2 Zn3 1.997(9) 1_556
N2 C63 1.343(14) .
N2 C66 1.341(15) .
C1 C7 1.511(9) .
C1 C30 1.376(10) .
C1 C54 1.387(11) .
C2 C5 1.491(10) .
C2 C15 1.362(10) .
C2 C28 1.391(10) .
C3 C6 1.489(10) .
C3 C43 1.364(11) .
C3 C44 1.390(10) .
C4 C13 1.414(10) .
C4 C46 1.470(9) .
C4 C52 1.398(10) .
C8 C20 1.412(10) .
C8 C23 1.388(10) .
C9 C17 1.488(10) .
C10 C11 1.397(10) .
C10 C15 1.374(10) .
C11 C32 1.489(10) .
C11 C42 1.382(10) .
C12 C38 1.356(10) .
C12 C50 1.402(10) .
C13 C39 1.373(10) .
C14 C29 1.515(9) .
C16 C18 1.376(11) .
C16 C37 1.378(10) .
C17 C21 1.401(11) .
C17 C39 1.398(10) .
C18 C26 1.494(9) .
C18 C45 1.396(11) .
C19 C33 1.492(10) .
C19 C37 1.381(10) .
C19 C51 1.409(11) .
C20 C24 1.399(10) .
C20 C40 1.484(10) .
C21 C52 1.385(10) .
C22 C32 1.383(10) .
C22 C41 1.382(10) .
C23 C31 1.388(10) .
C23 C50 1.465(10) .
C24 C46 1.391(10) .
C25 C26 1.387(10) .
C25 C41 1.374(10) .
C26 C34 1.396(10) .
C27 C60 1.531(17) .
C27 C62 1.304(17) .
C28 C42 1.383(10) .
C29 C35 1.373(10) .
C29 C38 1.412(11) .
C30 C47 1.371(11) .
C31 C46 1.397(10) .
C32 C34 1.389(10) .
C35 C48 1.379(11) .
C36 C43 1.378(10) .
C36 C49 1.403(10) .
C40 C47 1.424(10) .
C40 C53 1.376(12) .
C41 C49 1.492(10) .
C44 C55 1.374(11) .
C45 C51 1.344(11) .
C48 C50 1.407(11) .
C49 C55 1.417(11) .
C53 C54 1.375(12) .
C56 C59 1.326(12) .
C57 C58 1.388(13) .
C58 C60 1.324(16) .
C59 C60 1.421(16) .
C61 C62 1.484(18) .
C61 C64 1.461(18) .
C61 C65 1.286(19) .
C63 C64 1.306(16) .
C65 C66 1.310(19) .
loop_
_smtbx_masks_void_nr
_smtbx_masks_void_average_x
_smtbx_masks_void_average_y
_smtbx_masks_void_average_z
_smtbx_masks_void_volume
_smtbx_masks_void_count_electrons
1 -0.081 -0.274 -0.299 8147.5 2329.1
2 0.000 0.000 0.500 20.1 0.0
3 0.000 0.500 0.500 20.1 0.0
4 0.250 0.518 0.500 23.8 1.0
5 0.250 0.982 0.500 23.8 1.4
6 0.500 0.000 0.500 20.1 0.0
7 0.500 0.500 0.500 20.1 0.0
8 0.750 0.018 0.500 23.8 0.8
9 0.750 0.482 0.500 23.8 1.2
