#------------------------------------------------------------------------------
#$Date: 2020-03-05 01:36:17 +0200 (Thu, 05 Mar 2020) $
#$Revision: 248822 $
#$URL: file:///home/coder/svn-repositories/cod/cif/7/12/58/7125851.cif $
#------------------------------------------------------------------------------
#
# This file is available in the Crystallography Open Database (COD),
# http://www.crystallography.net/
#
# All data on this site have been placed in the public domain by the
# contributors.
#
data_7125851
loop_
_publ_author_name
'Wang, Sa-Sa'
'Yang, Wen-Bin'
'Yang, Mingxue'
'Wu, Xiao-Yuan'
'Wu, Weiming'
'Wang, Song-Xia'
'Lin, Lang'
'Lu, Can-Zhong'
_publ_section_title
;
 A bi-polyoxometallate-based host-guest metal-organic framework.
;
_journal_issue                   16
_journal_name_full
'Chemical communications (Cambridge, England)'
_journal_page_first              2503
_journal_page_last               2506
_journal_paper_doi               10.1039/c9cc09008h
_journal_volume                  56
_journal_year                    2020
_chemical_formula_moiety
'2(H2 Na Ni0.99 O41 P W11.01), C84 H138 N24 Ni24 O190 P4 S6 W36, 2(C12 H40 N8 Ni2), 4(C6 H24 N4 Ni O2), 4(C5.5 H19.5 N4 Ni)'
_chemical_formula_sum            'C154 H396 N72 Na2 Ni37.99 O280 P6 S6 W58.01'
_chemical_formula_weight         21056.44
_space_group_crystal_system      monoclinic
_space_group_IT_number           12
_space_group_name_Hall           '-C 2y'
_space_group_name_H-M_alt        'C 1 2/m 1'
_atom_sites_solution_hydrogens   mixed
_audit_creation_date             2019-09-11
_audit_creation_method
;
Olex2 1.2
(compiled 2018.05.29 svn.r3508 for OlexSys, GUI svn.r5506)
;
_audit_update_record
;
2019-09-11 deposited with the CCDC.	2020-01-22 downloaded from the CCDC.
;
_cell_angle_alpha                90
_cell_angle_beta                 106.026(4)
_cell_angle_gamma                90
_cell_formula_units_Z            2
_cell_length_a                   23.311(3)
_cell_length_b                   39.040(4)
_cell_length_c                   27.663(5)
_cell_measurement_reflns_used    9351
_cell_measurement_temperature    200(2)
_cell_measurement_theta_max      26.00
_cell_measurement_theta_min      2.29
_cell_volume                     24197(6)
_computing_molecular_graphics    'Olex2 (Dolomanov et al., 2009)'
_computing_publication_material  'Olex2 (Dolomanov et al., 2009)'
_computing_structure_refinement  'ShelXL (Sheldrick, 2015)'
_computing_structure_solution    'ShelXT (Sheldrick, 2015)'
_diffrn_ambient_temperature      200.15
_diffrn_detector_area_resol_mean 7.9
_diffrn_detector_type            'CCD area detector'
_diffrn_measured_fraction_theta_full 0.998
_diffrn_measured_fraction_theta_max 0.998
_diffrn_measurement_device       'three-circle diffractometer'
_diffrn_measurement_device_type  'Bruker APEX-II CCD'
_diffrn_measurement_method       '\f and \w scans'
_diffrn_radiation_type           MoK\a
_diffrn_radiation_wavelength     0.71073
_diffrn_reflns_av_R_equivalents  0.0871
_diffrn_reflns_av_unetI/netI     0.0457
_diffrn_reflns_Laue_measured_fraction_full 0.998
_diffrn_reflns_Laue_measured_fraction_max 0.998
_diffrn_reflns_limit_h_max       28
_diffrn_reflns_limit_h_min       -24
_diffrn_reflns_limit_k_max       47
_diffrn_reflns_limit_k_min       -47
_diffrn_reflns_limit_l_max       33
_diffrn_reflns_limit_l_min       -33
_diffrn_reflns_number            177017
_diffrn_reflns_point_group_measured_fraction_full 0.998
_diffrn_reflns_point_group_measured_fraction_max 0.998
_diffrn_reflns_theta_full        25.242
_diffrn_reflns_theta_max         25.500
_diffrn_reflns_theta_min         2.223
_diffrn_source                   'microfocus sealed X-ray tube'
_diffrn_standards_number         0
_exptl_absorpt_coefficient_mu    15.302
_exptl_absorpt_correction_T_max  0.768
_exptl_absorpt_correction_T_min  0.426
_exptl_absorpt_correction_type   multi-scan
_exptl_absorpt_process_details   'SADABS; Bruker, 2000'
_exptl_crystal_colour            green
_exptl_crystal_colour_primary    green
_exptl_crystal_density_diffrn    2.890
_exptl_crystal_density_method    'not measured'
_exptl_crystal_description       block
_exptl_crystal_F_000             19250
_exptl_crystal_size_max          0.085
_exptl_crystal_size_mid          0.066
_exptl_crystal_size_min          0.027
_refine_diff_density_max         4.560
_refine_diff_density_min         -3.654
_refine_diff_density_rms         0.273
_refine_ls_extinction_method     none
_refine_ls_goodness_of_fit_ref   1.141
_refine_ls_hydrogen_treatment    constr
_refine_ls_matrix_type           full
_refine_ls_number_parameters     1494
_refine_ls_number_reflns         22879
_refine_ls_number_restraints     570
_refine_ls_restrained_S_all      1.145
_refine_ls_R_factor_all          0.0721
_refine_ls_R_factor_gt           0.0422
_refine_ls_shift/su_max          0.003
_refine_ls_shift/su_mean         0.000
_refine_ls_structure_factor_coef Fsqd
_refine_ls_weighting_details
'w=1/[\s^2^(Fo^2^)+(0.0404P)^2^+805.4865P] where P=(Fo^2^+2Fc^2^)/3'
_refine_ls_weighting_scheme      calc
_refine_ls_wR_factor_gt          0.0947
_refine_ls_wR_factor_ref         0.1196
_reflns_Friedel_coverage         0.000
_reflns_number_gt                16904
_reflns_number_total             22879
_reflns_threshold_expression     'I > 2\s(I)'
_cod_data_source_file            c9cc09008h2.cif
_cod_data_source_block           wss0412_0m-15a
_cod_depositor_comments
'Adding full bibliography for 7125851--7125854.cif.'
_cod_database_code               7125851
_shelx_shelxl_version_number     2017/1
_shelx_space_group_comment
;
The symmetry employed for this shelxl refinement is uniquely defined
by the following loop, which should always be used as a source of
symmetry information in preference to the above space-group names.
They are only intended as comments.
;
_olex2_refinement_description
;
1. Fixed Uiso
 At 1.2 times of:
  All C(H) groups, All C(H,H) groups, All N(H,H) groups
 At 1.5 times of:
  All C(H,H,H) groups, All O(H,H) groups
2. Restrained distances
 N8-N75
 2.8 with sigma of 0.02
 Ni7-C48_$1
 2.8 with sigma of 0.02
 Ni7-C49_$1
 2.8 with sigma of 0.02
 Ni7-C46_$1
 2.8 with sigma of 0.02
 Ni7-C45_$1
 2.8 with sigma of 0.02
 N74-N7
 2.8 with sigma of 0.02
 N74-C46 = C45-C46 = N7-C45 = N75-C48 = C49-C48 = N8-C49
 1.48 with sigma of 0.01
 Ni7-N7_$1 = Ni7-N74_$1 = Ni7-N75_$1 = Ni7-N8_$1
 2 with sigma of 0.02
 C36-C35 = N17-C35 = N18-C36
 1.48 with sigma of 0.02
 N19-C39 = C39-C38 = N20-C38
 1.48 with sigma of 0.02
 Ni10-N19_$1 = Ni10-N20_$1 = Ni10-N18_$1 = Ni10-N17_$1
 1.85 with sigma of 0.02
 Ni10-C39_$1 = Ni10-C35_$1
 2.8 with sigma of 0.02
 N17-N18
 2.8 with sigma of 0.02
 N20-N19
 2.8 with sigma of 0.02
 N19-C39 = C39-C38 = N20-C38 = N18-C36 = N17-C35 = C36-C35
 1.48 with sigma of 0.02
 Ni10-C36_$1
 2.8 with sigma of 0.02
 Ni10-C38_$1
 2.8 with sigma of 0.02
 N15-C29 = C30-C29 = N16-C30 = C31-C30
 1.5 with sigma of 0.01
 C34-C33 = C33-C32 = N13-C32 = N14-C33
 1.5 with sigma of 0.01
 C49-C50 = C46-C47
 1.48 with sigma of 0.01
 C48-C50 = C45-C47
 2.5 with sigma of 0.02
 C45-C47 = C47-N74
 2.6 with sigma of 0.02
 C37-C35 = C40-C39
 1.48 with sigma of 0.01
 C40-N19
 2.5 with sigma of 0.02
 C38-C40
 2.5 with sigma of 0.02
 N17-C37
 2.5 with sigma of 0.02
 C37-C36
 2.5 with sigma of 0.02
 C36-C37 = C37-N17
 2.6 with sigma of 0.02
 Na1-O25A = Na1-O25
 1.9 with sigma of 0.01
3. Restrained planarity
 Ni7, N7_$1, N8_$1, N74_$1, N75_$1
 with sigma of 0.01
 Ni10, N17_$1, N18_$1, N19_$1, N20_$1
 with sigma of 0.01
4. Uiso/Uaniso restraints and constraints
N7 \\sim N8 \\sim N74 \\sim N75 \\sim C50 \\sim C47 \\sim C46 \\sim C45 \\sim
C48 \\sim C49: within 2A with sigma of 0.01 and sigma for terminal atoms of 0.02
N19 \\sim N20 \\sim C38 \\sim C39 \\sim C40: within 2A with sigma of 0.01 and
sigma for terminal atoms of 0.02
N5 \\sim N6 \\sim C23 \\sim C24 \\sim C25: within 2A with sigma of 0.01 and
sigma for terminal atoms of 0.02
Ni2A \\sim W2: within 2A with sigma of 0.01 and sigma for terminal atoms of 0.02
Uanis(N74) \\sim Ueq, Uanis(N7) \\sim Ueq, Uanis(C46) \\sim Ueq, Uanis(C45)
\\sim Ueq, Uanis(C47) \\sim Ueq, Uanis(N75) \\sim Ueq, Uanis(N8) \\sim Ueq,
Uanis(C48) \\sim Ueq, Uanis(C49) \\sim Ueq, Uanis(C50) \\sim Ueq: with sigma of
0.01 and sigma for terminal atoms of 0.02
Uanis(C39) \\sim Ueq, Uanis(C38) \\sim Ueq, Uanis(N19) \\sim Ueq, Uanis(N20)
\\sim Ueq, Uanis(C40) \\sim Ueq: with sigma of 0.01 and sigma for terminal
atoms of 0.02
Uanis(N5) \\sim Ueq, Uanis(N6) \\sim Ueq, Uanis(C23) \\sim Ueq, Uanis(C24)
\\sim Ueq, Uanis(C25) \\sim Ueq: with sigma of 0.01 and sigma for terminal
atoms of 0.02
Uanis(O25A) \\sim Ueq, Uanis(O25) \\sim Ueq: with sigma of 0.005 and sigma for
terminal atoms of 0.01
Uanis(W2) \\sim Ueq, Uanis(Ni2A) \\sim Ueq: with sigma of 0.01 and sigma for
terminal atoms of 0.02
Uanis(N18) \\sim Ueq, Uanis(C36) \\sim Ueq, Uanis(C35) \\sim Ueq, Uanis(C37)
\\sim Ueq, Uanis(N17) \\sim Ueq: with sigma of 0.01 and sigma for terminal
atoms of 0.02
Uanis(N13) \\sim Ueq, Uanis(C32) \\sim Ueq, Uanis(C34) \\sim Ueq, Uanis(N14)
\\sim Ueq, Uanis(C33) \\sim Ueq, Uanis(N15) \\sim Ueq, Uanis(C29) \\sim Ueq,
Uanis(C30) \\sim Ueq, Uanis(C31) \\sim Ueq, Uanis(N16) \\sim Ueq: with sigma of
0.01 and sigma for terminal atoms of 0.02
Uanis(O25A) = Uanis(O25)
Uanis(Ni1A) = Uanis(W1)
Uanis(Ni2A) = Uanis(W2)
Uanis(Ni7) = Uanis(N8) = Uanis(N7) = Uanis(N74) = Uanis(N75)
5. Rigid body (RIGU) restrains
 N7, N8, N74, N75, C50, C47, C46, C45, C48, C49
 with sigma for 1-2 distances of 0.01 and sigma for 1-3 distances of 0.01
 N19, N20, C38, C39, C40
 with sigma for 1-2 distances of 0.01 and sigma for 1-3 distances of 0.01
 N5, N6, C23, C24, C25
 with sigma for 1-2 distances of 0.01 and sigma for 1-3 distances of 0.01
 W2
 with sigma for 1-2 distances of 0.01 and sigma for 1-3 distances of 0.01
 N17, C35, C37, C36, N18
 with sigma for 1-2 distances of 0.01 and sigma for 1-3 distances of 0.01
 C34, C33, C32, N13, N14, N15, C29, C30, C31, N16
 with sigma for 1-2 distances of 0.01 and sigma for 1-3 distances of 0.01
6. Others
 Sof(O25A)=Sof(H25F)=Sof(H25G)=0.5*(1-FVAR(2))
 Sof(O25)=Sof(H25D)=Sof(H25E)=0.5*FVAR(2)
 Sof(Ni2A)=1-FVAR(2)
 Sof(W2)=FVAR(2)
 Sof(Ni1A)=0.5*(1-FVAR(4))
 Sof(W1)=0.5*FVAR(4)
 Fixed Sof: N7(0.5) H7A(0.5) H7B(0.5) N8(0.5) H8A(0.5) H8B(0.5) N74(0.5)
 H74A(0.5) H74B(0.5) N75(0.5) H75A(0.5) H75B(0.5) C50(0.5) H50A(0.5) H50B(0.5)
 H50C(0.5) C47(0.5) H47A(0.5) H47B(0.5) H47C(0.5) C46(0.5) H46(0.5) C45(0.5)
 H45A(0.5) H45B(0.5) C48(0.5) H48A(0.5) H48B(0.5) C49(0.5) H49(0.5) C33(0.5)
 H33(0.5) N17(0.5) H17C(0.5) H17D(0.5) N18(0.5) H18A(0.5) H18B(0.5) N19(0.5)
 H19D(0.5) H19E(0.5) N20(0.5) H20C(0.5) H20D(0.5) C35(0.5) H35(0.5) C36(0.5)
 H36A(0.5) H36B(0.5) C37(0.5) H37A(0.5) H37B(0.5) H37C(0.5) C38(0.5) H38A(0.5)
 H38B(0.5) C39(0.5) H39(0.5) C40(0.5) H40A(0.5) H40B(0.5) H40C(0.5)
 Fixed U11: C48(0.206372)
 Fixed U12: C48(-0.000134)
 Fixed U13: C48(0.00134)
 Fixed U22: C48(0.20968)
 Fixed U23: C48(-0.0008)
 Fixed U33: C48(0.20843)
7.a Riding coordinates:
 O25(H25D,H25E), C25(H25A,H25B,H25C), O76(H76A,H76B), O77(H77A,H77B),
 O25A(H25F,H25G)
7.b Ternary CH refined with riding coordinates:
 C15(H15), C18(H18), C24(H24), C46(H46), C49(H49), C21(H21), C27(H27),
 C30(H30), C33(H33), C35(H35), C39(H39)
7.c Secondary CH2 refined with riding coordinates:
 N1(H1A,H1B), N2(H2A,H2B), N3(H3A,H3B), N4(H4A,H4B), N5(H5A,H5B), N6(H6A,H6B),
 C14(H14A,H14B), C17(H17A,H17B), C23(H23A,H23B), N7(H7A,H7B), N8(H8A,H8B),
 N74(H74A,H74B), N75(H75A,H75B), C45(H45A,H45B), C48(H48A,H48B), N9(H9A,H9B),
 N10(H10A,H10B), N11(H11A,H11B), N12(H12A,H12B), C20(H20A,H20B), C26(H26A,H26B),
  N13(H13A,H13B), N14(H14C,H14D), N15(H15A,H15B), N16(H16D,H16E), C29(H29A,
 H29B), C32(H32A,H32B), N17(H17C,H17D), N18(H18A,H18B), N19(H19D,H19E),
 N20(H20C,H20D), C36(H36A,H36B), C38(H38A,H38B)
7.d Me refined with riding coordinates:
 C16(H16A,H16B,H16C), C19(H19A,H19B,H19C), C50(H50A,H50B,H50C), C47(H47A,H47B,
 H47C), C22(H22A,H22B,H22C), C28(H28A,H28B,H28C), C31(H31A,H31B,H31C), C34(H34A,
 H34B,H34C), C37(H37A,H37B,H37C), C40(H40A,H40B,H40C)
7.e Aromatic/amide H refined with riding coordinates:
 C3(H3), C5(H5), C7(H7), C10(H10), C12(H12)
;
_shelx_res_file
;
TITL wss0412_0mC 1 2/m 1 R = 0.05
    wss0412_0m-15a.res
    created by SHELXL-2017/1 at 10:30:17 on 11-Sep-2019
CELL 0.71073 23.311 39.04 27.663 90 106.026 90
ZERR 2 0.003 0.004 0.005 0 0.004 0
LATT 7
SYMM -X,+Y,-Z
SFAC  C 2.310 20.844 1.02 10.208 1.589 0.569 0.865 51.651 0.216 0.003 0.002 =
 11.5 0.68 12.01
SFAC H
SFAC  N 12.213 0.006 3.132 9.893 2.013 28.998 1.166 0.583 -11.529 0.006 =
 0.003 19.6 0.68 14.01
SFAC  Na 4.763 3.285 3.174 8.842 1.267 0.314 1.113 129.424 0.676 0.036 =
 0.025 116 0.97 22.99
SFAC  Ni 12.838 3.878 7.292 0.257 4.444 12.176 2.38 66.342 1.034 0.339 =
 1.112 4570 1.5 58.69
SFAC  O 3.049 13.277 2.287 5.701 1.546 0.324 0.867 32.909 0.251 0.011 0.006 =
 32.5 0.68 16
SFAC  P 6.435 1.907 4.179 27.157 1.78 0.526 1.491 68.165 1.115 0.102 0.094 =
 410 1.05 30.97
SFAC  S 6.905 1.468 5.203 22.215 1.438 0.254 1.586 56.172 0.867 0.125 0.123 =
 532 1.04 32.07
SFAC  W 29.082 1.72 15.43 9.226 14.433 0.322 5.12 57.056 9.888 -0.849 6.872 =
 28600 1.37 183.84
UNIT 308 792 144 4 75.97 560 12 12 116.03

EQIV $1 +X,1-Y,+Z
DFIX 2.8 N8 N75
DFIX 2.8 Ni7 C48_$1
DFIX 2.8 Ni7 C49_$1
DFIX 2.8 Ni7 C46_$1
DFIX 2.8 Ni7 C45_$1
DFIX 2.8 N74 N7
DFIX 1.48 0.01 N74 C46 C45 C46 N7 C45 N75 C48 C49 C48 N8 C49
DFIX 2 Ni7 N7_$1 Ni7 N74_$1 Ni7 N75_$1 Ni7 N8_$1
DFIX 1.48 C36 C35 N17 C35 N18 C36
DFIX 1.48 N19 C39 C39 C38 N20 C38
DFIX 1.85 Ni10 N19_$1 Ni10 N20_$1 Ni10 N18_$1 Ni10 N17_$1
DFIX 2.8 Ni10 C39_$1 Ni10 C35_$1
DFIX 2.8 N17 N18
DFIX 2.8 N20 N19
DFIX 1.48 N19 C39 C39 C38 N20 C38 N18 C36 N17 C35 C36 C35
DFIX 2.8 Ni10 C36_$1
DFIX 2.8 Ni10 C38_$1
DFIX 1.5 0.01 N15 C29 C30 C29 N16 C30 C31 C30
DFIX 1.5 0.01 C34 C33 C33 C32 N13 C32 N14 C33
DFIX 1.48 0.01 C49 C50 C46 C47
DFIX 2.5 C48 C50 C45 C47
DFIX 2.6 C45 C47 C47 N74
DFIX 1.48 0.01 C37 C35 C40 C39
DFIX 2.5 C40 N19
DFIX 2.5 C38 C40
DFIX 2.5 N17 C37
DFIX 2.5 C37 C36
DFIX 2.6 C36 C37 C37 N17
DFIX 1.9 0.01 Na1 O25A Na1 O25
FLAT 0.01 Ni7 N7_$1 N8_$1 N74_$1 N75_$1
FLAT 0.01 Ni10 N17_$1 N18_$1 N19_$1 N20_$1
SIMU 0.01 0.02 2 N7 > C49
SIMU 0.01 0.02 2 N19 N20 C38 > C40
SIMU 0.01 0.02 2 N5 N6 C23 > C25
SIMU 0.01 0.02 2 Ni2A W2
RIGU 0.01 0.01 N7 > C49
RIGU 0.01 0.01 N19 N20 C38 > C40
RIGU 0.01 0.01 N5 N6 C23 > C25
RIGU 0.01 0.01 W2
RIGU 0.01 0.01 N17 C35 C37 C36 N18
RIGU 0.01 0.01 C34 C33 C32 N13 N14 N15 C29 C30 C31 N16
ISOR 0.01 0.02 N74 N7 C46 C45 C47 N75 N8 C48 C49 C50
ISOR 0.01 0.02 C39 C38 N19 N20 C40
ISOR 0.01 0.02 N5 N6 C23 C24 C25
ISOR 0.005 0.01 O25A O25
ISOR 0.01 0.02 W2 Ni2A
ISOR 0.01 0.02 N18 C36 C35 C37 N17
ISOR 0.01 0.02 N13 C32 C34 N14 C33 N15 C29 C30 C31 N16
EADP O25A O25
EADP Ni1A W1
EADP Ni2A W2
EADP Ni7 N8 N7 N74 N75

L.S. 8
PLAN  -2
TEMP -73
CONF
ABIN
fmap 2
acta
OMIT -3 51
OMIT 4 2 3
OMIT -3 1 1
OMIT 4 0 1
OMIT -5 9 2
OMIT 1 3 2
OMIT -1 11 3
OMIT 3 1 5
OMIT -3 9 7
OMIT 1 1 6
OMIT -1 3 2
OMIT 5 1 5
OMIT 3 1 3
OMIT -1 1 3
REM <olex2.extras>
REM <HklSrc "%.\\wss0412_0m-15a.hkl">
REM </olex2.extras>

WGHT    0.040400  805.486511
FVAR       0.02210   0.46214   0.62638   0.75593
PART 1
W1    9    0.955814    1.000000    0.892470    40.50000    0.03237    0.04690 =
         0.08065    0.00000   -0.00794    0.00000
W2    9    0.894007    0.956380    0.962131    31.00000    0.05968    0.05262 =
         0.04900    0.00042   -0.01084    0.00143
PART 0
W3    9    0.795957    0.909451    0.855108    11.00000    0.04743    0.02553 =
         0.04592    0.00320    0.01250    0.00704
W4    9    0.863224    0.953195    0.778089    11.00000    0.04081    0.03558 =
         0.05908   -0.00267    0.01861    0.00451
W5    9    0.710199    0.952455    0.752187    11.00000    0.03822    0.02799 =
         0.02980   -0.00397    0.00821   -0.00076
W6    9    0.637905    1.000000    0.835174    10.50000    0.03863    0.02918 =
         0.03983    0.00000    0.01722    0.00000
W7    9    0.725618    0.956142    0.937608    11.00000    0.07294    0.02767 =
         0.03402    0.00373    0.01971    0.00217
P1    7    0.797273    1.000000    0.858438    10.50000    0.03123    0.01761 =
         0.02540    0.00000    0.00052    0.00000
NA1   4    1.096491    1.000000    0.863578    10.50000    0.13067    0.05283 =
         0.08425    0.00000    0.07473    0.00000
O1    6    0.856506    1.000000    0.899568    10.50000    0.03894    0.04082 =
         0.04008    0.00000   -0.00608    0.00000
O2    6    0.957673    0.965475    0.936313    11.00000    0.04870    0.08314 =
         0.07515    0.00907   -0.01255    0.00433
O3    6    0.903339    1.000000    0.999132    10.50000    0.07511    0.10254 =
         0.05764    0.00000   -0.03127    0.00000
O4    6    0.856315    0.924806    0.907541    11.00000    0.04967    0.03966 =
         0.04437    0.00060   -0.00071    0.01329
O5    6    0.793206    0.968160    0.826134    11.00000    0.03453    0.02327 =
         0.03321   -0.00202    0.00051    0.00220
O6    6    0.919619    0.966388    0.835056    11.00000    0.03780    0.04866 =
         0.09130    0.00646    0.00149    0.00854
O7    6    0.855336    1.000000    0.757331    10.50000    0.03688    0.05014 =
         0.06648    0.00000    0.02335    0.00000
O8    6    0.847115    0.911666    0.811199    11.00000    0.04946    0.03220 =
         0.04969   -0.00015    0.01376    0.01297
O9    6    0.783142    0.946924    0.734127    11.00000    0.05215    0.02896 =
         0.03586    0.00122    0.02003    0.00635
O10   6    0.731015    0.913058    0.793175    11.00000    0.04334    0.02585 =
         0.04206   -0.00323    0.01397    0.00250
O11   6    0.712691    1.000000    0.735839    10.50000    0.03950    0.02632 =
         0.03702    0.00000    0.00713    0.00000
O12   6    0.662280    0.967090    0.793967    11.00000    0.03488    0.03348 =
         0.03699   -0.00249    0.01127   -0.00788
O13   6    0.651184    0.965745    0.887829    11.00000    0.05737    0.03473 =
         0.07108   -0.01599    0.04689   -0.01955
O14   6    0.806514    0.957861    0.968401    11.00000    0.08609    0.04420 =
         0.03964    0.00787   -0.01144    0.00653
O15   6    0.739619    0.924918    0.888926    11.00000    0.05706    0.03276 =
         0.03891   -0.00035    0.01838   -0.00126
O16   6    0.745621    1.000000    0.882682    10.50000    0.04605    0.02634 =
         0.02721    0.00000    0.00797    0.00000
O17   6    0.714767    1.000000    0.965346    10.50000    0.09301    0.04275 =
         0.03395    0.00000    0.02641    0.00000
O18   6    0.700409    0.929494    0.976257    11.00000    0.11253    0.04049 =
         0.04354    0.01005    0.03683   -0.00012
O19   6    0.561719    1.000000    0.811465    10.50000    0.04191    0.04768 =
         0.07562    0.00000    0.02898    0.00000
O20   6    0.659316    0.936695    0.700803    11.00000    0.06559    0.04164 =
         0.02997   -0.00758    0.01001   -0.00362
O21   6    0.904053    0.936139    0.741787    11.00000    0.05535    0.05410 =
         0.08488   -0.01147    0.03397    0.00859
O22   6    0.794363    0.866074    0.864146    11.00000    0.06494    0.02780 =
         0.05089    0.00770    0.01400    0.00709
O23   6    0.923820    0.927925    1.012739    11.00000    0.10747    0.07880 =
         0.07354    0.02112   -0.01049    0.01997
O24   6    1.031833    1.000000    0.888485    10.50000    0.05772    0.11483 =
         0.10762    0.00000   -0.00339    0.00000
PART -1
O25   6    1.126223    1.041148    0.898099    20.50000    0.10847    0.10776 =
         0.10904   -0.00515    0.02763   -0.00703
AFIX   3
H25D  2    1.166663    1.039068    0.902769    20.50000   -1.50000
H25E  2    1.128213    1.039408    0.930889    20.50000   -1.50000
AFIX   0

PART 0
W8    9    0.860308    0.631935    0.791179    11.00000    0.02512    0.02921 =
         0.03042    0.00337    0.00892    0.00563
W9    9    0.872261    0.724638    0.772995    11.00000    0.02086    0.02800 =
         0.03381   -0.00353    0.00945   -0.00212
W10   9    0.749153    0.776100    0.746360    11.00000    0.02395    0.02120 =
         0.03614   -0.00237    0.01133   -0.00164
W11   9    0.805354    0.743124    0.865955    11.00000    0.02734    0.03233 =
         0.03175   -0.00644    0.00901   -0.00030
W12   9    0.794634    0.649510    0.886642    11.00000    0.03333    0.03461 =
         0.02839    0.00371    0.01138    0.00570
W13   9    0.723918    0.597828    0.786525    11.00000    0.03232    0.02333 =
         0.03717    0.00472    0.01512    0.00153
W14   9    0.589982    0.652278    0.757581    11.00000    0.02488    0.02515 =
         0.03889   -0.00033    0.01516   -0.00244
W15   9    0.658259    0.703642    0.858980    11.00000    0.02907    0.03092 =
         0.03203   -0.00072    0.01487    0.00147
W16   9    0.602191    0.738827    0.740311    11.00000    0.02188    0.02297 =
         0.03363   -0.00085    0.01215    0.00114
NI1   5    0.635001    0.680346    0.651750    11.00000    0.02221    0.02356 =
         0.03108   -0.00179    0.00819    0.00058
NI2   5    0.628045    0.601153    0.661222    11.00000    0.02711    0.02389 =
         0.04631   -0.00308    0.01411   -0.00213
NI3   5    0.746820    0.632614    0.673977    11.00000    0.02205    0.02089 =
         0.03200   -0.00103    0.00926   -0.00038
NI4   5    0.865906    0.668962    0.671108    11.00000    0.02139    0.02489 =
         0.03331    0.00040    0.01038    0.00129
NI5   5    0.759273    0.711770    0.658166    11.00000    0.02034    0.02424 =
         0.03121    0.00159    0.00922    0.00159
NI6   5    0.641070    0.753986    0.627214    11.00000    0.02250    0.02513 =
         0.03422    0.00229    0.00976    0.00250
S1    8    0.822502    0.846181    0.502741    11.00000    0.03764    0.04184 =
         0.03807    0.01028    0.01100    0.01086
S2    8    0.868719    0.500000    0.544486    10.50000    0.04916    0.04607 =
         0.04953    0.00000    0.02928    0.00000
P2    7    0.732226    0.686349    0.763236    11.00000    0.01692    0.01916 =
         0.02033   -0.00128    0.00753    0.00041
O26   6    0.883230    0.678979    0.799132    11.00000    0.02648    0.03259 =
         0.03482    0.00517    0.01030    0.00575
O27   6    0.772200    0.718385    0.780190    11.00000    0.01837    0.02100 =
         0.03290   -0.00265    0.00976   -0.00339
O28   6    0.832022    0.768460    0.753026    11.00000    0.02337    0.02884 =
         0.03686   -0.00697    0.00991   -0.00533
O29   6    0.777740    0.779327    0.821607    11.00000    0.02219    0.03129 =
         0.05401   -0.00740    0.01481    0.00053
O30   6    0.873281    0.739265    0.841496    11.00000    0.02670    0.02976 =
         0.04257   -0.00477    0.00883    0.00101
O31   6    0.818654    0.695611    0.885463    11.00000    0.02802    0.03507 =
         0.02959    0.00020    0.00607   -0.00260
O32   6    0.859423    0.635326    0.863533    11.00000    0.02751    0.03924 =
         0.03872    0.00521    0.00809    0.00456
O33   6    0.752702    0.609151    0.858863    11.00000    0.03737    0.03084 =
         0.03548    0.00495    0.01654    0.00607
O34   6    0.763258    0.655181    0.793228    11.00000    0.02856    0.02028 =
         0.02966    0.00074    0.01217    0.00291
O35   6    0.672781    0.692180    0.775342    11.00000    0.02671    0.01913 =
         0.02864    0.00248    0.01315    0.00603
O36   6    0.650970    0.619964    0.787947    11.00000    0.03547    0.02633 =
         0.03632    0.00160    0.01879   -0.00146
O37   6    0.602578    0.670274    0.827800    11.00000    0.02694    0.03810 =
         0.04702   -0.00129    0.01998   -0.00297
O38   6    0.716710    0.668916    0.880423    11.00000    0.04438    0.03347 =
         0.03184   -0.00170    0.02361    0.00101
O39   6    0.725265    0.734129    0.866655    11.00000    0.03764    0.03302 =
         0.03097    0.00027    0.01252    0.00188
O40   6    0.612898    0.737218    0.813378    11.00000    0.02660    0.03042 =
         0.03560    0.00182    0.01470    0.00538
O41   6    0.672284    0.766785    0.756345    11.00000    0.02640    0.02716 =
         0.03610   -0.00310    0.01462    0.00000
O42   6    0.556232    0.697299    0.739897    11.00000    0.02291    0.02655 =
         0.03188   -0.00413    0.01246    0.00108
O43   6    0.617444    0.725446    0.682366    11.00000    0.01827    0.02159 =
         0.03677    0.00662    0.00481    0.00371
O44   6    0.603111    0.647293    0.696286    11.00000    0.02425    0.02547 =
         0.03941   -0.00030    0.01164    0.00076
O45   6    0.707666    0.605945    0.720059    11.00000    0.02457    0.02184 =
         0.03902   -0.00162    0.01092    0.00503
O46   6    0.832489    0.636036    0.724035    11.00000    0.02353    0.02576 =
         0.03428   -0.00248    0.01001    0.00033
O47   6    0.839189    0.708344    0.710465    11.00000    0.02556    0.01747 =
         0.03891    0.00024    0.00766    0.00123
O48   6    0.728472    0.756033    0.685516    11.00000    0.02200    0.02209 =
         0.04076    0.00057    0.00939   -0.00185
O49   6    0.676858    0.710268    0.612620    11.00000    0.02348    0.02701 =
         0.03506   -0.00606    0.00947    0.00213
O50   6    0.779965    0.666005    0.634732    11.00000    0.02295    0.02261 =
         0.03185   -0.00009    0.00746   -0.00108
O51   6    0.721925    0.680066    0.706916    11.00000    0.02181    0.02277 =
         0.02740    0.00357    0.00690    0.00152
O52   6    0.797079    0.738613    0.612751    11.00000    0.02240    0.02921 =
         0.04076    0.00931    0.01539    0.00895
O53   6    0.878900    0.706036    0.621903    11.00000    0.02254    0.03185 =
         0.03850    0.00223    0.01129    0.00152
O54   6    0.858275    0.865514    0.477618    11.00000    0.06111    0.05639 =
         0.07791    0.03732    0.02724    0.00999
O55   6    0.800913    0.864132    0.537999    11.00000    0.14037    0.09314 =
         0.07485    0.02352    0.05546    0.07569
O56   6    0.774447    0.827636    0.465870    11.00000    0.07312    0.08774 =
         0.05395    0.02087   -0.01588   -0.00001
O57   6    1.056551    0.759228    0.581593    11.00000    0.02645    0.03222 =
         0.03426   -0.00073    0.00877   -0.00367
O58   6    1.054600    0.815850    0.598857    11.00000    0.02409    0.02530 =
         0.04189    0.00462   -0.00329   -0.00571
O59   6    0.663639    0.637486    0.628278    11.00000    0.02438    0.01986 =
         0.02891    0.00054    0.00527    0.00098
O60   6    0.761571    0.588510    0.641853    11.00000    0.03711    0.01784 =
         0.05069   -0.00441    0.02167   -0.00335
O61   6    0.672158    0.563698    0.633075    11.00000    0.03184    0.02785 =
         0.05332   -0.00311    0.02001   -0.00449
O62   6    0.836742    0.500000    0.494092    10.50000    0.08039    0.16331 =
         0.03351    0.00000    0.02487    0.00000
O63   6    0.904093    0.530367    0.559597    11.00000    0.08050    0.08355 =
         0.10363   -0.02870    0.05893   -0.03377
O64   6    0.548312    0.769050    0.721875    11.00000    0.03905    0.02937 =
         0.04672    0.00305    0.01872    0.00466
O65   6    0.636635    0.712799    0.911293    11.00000    0.03414    0.04370 =
         0.04234   -0.00619    0.01703   -0.00405
O66   6    0.526588    0.628657    0.752631    11.00000    0.03027    0.02935 =
         0.04681    0.00005    0.01652   -0.00517
O67   6    0.808533    0.593555    0.792158    11.00000    0.03147    0.02265 =
         0.04203    0.00914    0.00880    0.01105
O68   6    0.705315    0.555610    0.790867    11.00000    0.04588    0.02291 =
         0.05220    0.00407    0.02099   -0.00201
O69   6    0.819146    0.639412    0.949741    11.00000    0.04775    0.05182 =
         0.02936    0.00461    0.01591    0.01173
O70   6    0.833513    0.764209    0.921759    11.00000    0.03482    0.05234 =
         0.03491   -0.01214    0.01074    0.00021
O71   6    0.742488    0.818689    0.732166    11.00000    0.03495    0.02171 =
         0.05733   -0.00248    0.01919   -0.00187
O72   6    0.943703    0.734692    0.773277    11.00000    0.02379    0.03630 =
         0.04289   -0.00379    0.01697   -0.00063
O73   6    0.927654    0.612134    0.799691    11.00000    0.02810    0.03734 =
         0.04463    0.00029    0.00995    0.00653
N1    3    0.675290    0.780951    0.577379    11.00000    0.05000    0.04238 =
         0.03825    0.00624    0.02225    0.00808
AFIX  23
H1A   2    0.711470    0.772360    0.577051    11.00000   -1.20000
H1B   2    0.650227    0.779588    0.545733    11.00000   -1.20000
AFIX   0
N2    3    0.614006    0.802355    0.643294    11.00000    0.03438    0.02530 =
         0.04657    0.00654    0.01657    0.00196
AFIX  23
H2A   2    0.573843    0.802471    0.638845    11.00000   -1.20000
H2B   2    0.632163    0.807753    0.675941    11.00000   -1.20000
AFIX   0
N3    3    0.955104    0.670162    0.709813    11.00000    0.02541    0.03479 =
         0.03921   -0.00636    0.00736    0.00109
AFIX  23
H3A   2    0.969011    0.692063    0.713002    11.00000   -1.20000
H3B   2    0.961119    0.660944    0.741031    11.00000   -1.20000
AFIX   0
N4    3    0.888269    0.626048    0.637329    11.00000    0.02986    0.03607 =
         0.03992   -0.00804    0.01161   -0.00161
AFIX  23
H4A   2    0.862904    0.608585    0.638689    11.00000   -1.20000
H4B   2    0.885492    0.630469    0.604462    11.00000   -1.20000
AFIX   0
N5    3    0.584883    0.566148    0.694991    11.00000    0.04999    0.05060 =
         0.06878    0.00256    0.02060   -0.01451
AFIX  23
H5A   2    0.607297    0.546811    0.703010    11.00000   -1.20000
H5B   2    0.579638    0.575158    0.723811    11.00000   -1.20000
AFIX   0
N6    3    0.548397    0.602273    0.606828    11.00000    0.05389    0.05854 =
         0.07491   -0.00481    0.01058   -0.00731
AFIX  23
H6A   2    0.538589    0.624235    0.596901    11.00000   -1.20000
H6B   2    0.550996    0.589960    0.579580    11.00000   -1.20000
AFIX   0
C1    1    0.848275    0.732390    0.606851    11.00000    0.02561    0.03954 =
         0.02972    0.01361    0.01358    0.00473
C2    1    0.874943    0.759829    0.581859    11.00000    0.02991    0.03215 =
         0.03382    0.00196    0.01569    0.00096
C3    1    0.840815    0.786910    0.555628    11.00000    0.02469    0.05294 =
         0.03455   -0.00555    0.00591    0.00725
AFIX  43
H3    2    0.798872    0.787370    0.550867    11.00000   -1.20000
AFIX   0
C4    1    0.868397    0.812987    0.536678    11.00000    0.02974    0.02540 =
         0.02967    0.00721    0.00054    0.00612
C5    1    0.929326    0.813842    0.544574    11.00000    0.02512    0.03031 =
         0.03520    0.00375    0.00288   -0.00315
AFIX  43
H5    2    0.947633    0.832358    0.532198    11.00000   -1.20000
AFIX   0
C6    1    0.963652    0.787191    0.570939    11.00000    0.01590    0.03274 =
         0.03126    0.00593    0.00394   -0.00308
C7    1    0.936572    0.760095    0.589380    11.00000    0.01593    0.02754 =
         0.03296    0.01011    0.00607    0.00206
AFIX  43
H7    2    0.960227    0.741837    0.607064    11.00000   -1.20000
AFIX   0
C8    1    1.030762    0.787858    0.584687    11.00000    0.02106    0.04050 =
         0.02502    0.00890    0.00305    0.00916
C9    1    0.724766    0.563956    0.631196    11.00000    0.03456    0.01918 =
         0.03824    0.00722    0.00445    0.00583
C10   1    0.725204    0.500000    0.625839    10.50000    0.00933    0.01660 =
         0.05083    0.00000    0.01175    0.00000
AFIX  43
H10   2    0.692657    0.499999    0.640279    10.50000   -1.20000
AFIX   0
C11   1    0.748031    0.530993    0.615713    11.00000    0.02590    0.02430 =
         0.03751   -0.01198    0.01069   -0.00201
C12   1    0.794017    0.531049    0.592069    11.00000    0.03761    0.01428 =
         0.03939    0.00412    0.00899    0.00329
AFIX  43
H12   2    0.811314    0.551939    0.585417    11.00000   -1.20000
AFIX   0
C13   1    0.813591    0.500000    0.578669    10.50000    0.02662    0.03234 =
         0.05008    0.00000    0.02045    0.00000
C14   1    0.681282    0.816844    0.594940    11.00000    0.11033    0.03165 =
         0.10948    0.01315    0.06117   -0.00306
AFIX  23
H14A  2    0.717477    0.819157    0.623626    11.00000   -1.20000
H14B  2    0.686007    0.831921    0.567520    11.00000   -1.20000
AFIX   0
C15   1    0.629558    0.827534    0.610365    11.00000    0.08891    0.02730 =
         0.06936    0.00672    0.05113    0.00118
AFIX  13
H15   2    0.595781    0.826881    0.578895    11.00000   -1.20000
AFIX   0
C16   1    0.631113    0.863848    0.628518    11.00000    0.08828    0.02358 =
         0.09503   -0.00245    0.04514   -0.00162
AFIX  33
H16A  2    0.594501    0.868773    0.638094    11.00000   -1.50000
H16B  2    0.665762    0.867015    0.657733    11.00000   -1.50000
H16C  2    0.634093    0.879463    0.601578    11.00000   -1.50000
AFIX   0
C17   1    0.985735    0.649316    0.678987    11.00000    0.01588    0.03683 =
         0.06457    0.00039    0.01486    0.00084
AFIX  23
H17A  2    1.027313    0.644382    0.698571    11.00000   -1.20000
H17B  2    0.986730    0.662067    0.648295    11.00000   -1.20000
AFIX   0
C18   1    0.951383    0.616199    0.664824    11.00000    0.04525    0.03641 =
         0.06077   -0.00977    0.01642    0.00043
AFIX  13
H18   2    0.950137    0.604651    0.696786    11.00000   -1.20000
AFIX   0
C19   1    0.980368    0.592583    0.637730    11.00000    0.04544    0.06449 =
         0.11529   -0.04238   -0.00442    0.00811
AFIX  33
H19A  2    1.020976    0.587656    0.658355    11.00000   -1.50000
H19B  2    0.957488    0.571221    0.630755    11.00000   -1.50000
H19C  2    0.982022    0.603081    0.605963    11.00000   -1.50000
AFIX   0
C23   1    0.526682    0.557805    0.659972    11.00000    0.07055    0.07727 =
         0.08994    0.00737    0.01553   -0.01836
AFIX  23
H23A  2    0.531519    0.538527    0.638179    11.00000   -1.20000
H23B  2    0.498944    0.550383    0.679333    11.00000   -1.20000
AFIX   0
C24   1    0.501287    0.586899    0.628832    11.00000    0.07244    0.08731 =
         0.09667    0.00473    0.01040   -0.01412
AFIX  13
H24   2    0.498456    0.604410    0.654456    11.00000   -1.20000
AFIX   0
C25   1    0.439878    0.584453    0.598268    11.00000    0.11300    0.14143 =
         0.14517    0.01024    0.00227   -0.01092
AFIX   3
H25A  2    0.414958    0.590093    0.619998    11.00000   -1.50000
H25B  2    0.433218    0.561383    0.585678    11.00000   -1.50000
H25C  2    0.429728    0.600723    0.568848    11.00000   -1.50000
AFIX   0

NI7   5    0.899527    0.500000    0.849946    10.50000    0.12922    0.12974 =
         0.14679    0.00000    0.07053    0.00000
PART -1
N7    3    0.936188    0.468809    0.809079    10.50000    0.12922    0.12974 =
         0.14679    0.00000    0.07053    0.00000
AFIX  23
H7A   2    0.975454    0.473892    0.813828    10.50000   -1.20000
H7B   2    0.932969    0.446535    0.817666    10.50000   -1.20000
AFIX   0
N8    3    0.862963    0.531115    0.890669    10.50000    0.12922    0.12974 =
         0.14679    0.00000    0.07053    0.00000
AFIX  23
H8A   2    0.828424    0.540255    0.871093    10.50000   -1.20000
H8B   2    0.854665    0.519336    0.916318    10.50000   -1.20000
AFIX   0
N74   3    0.843765    0.517159    0.783890    10.50000    0.12922    0.12974 =
         0.14679    0.00000    0.07053    0.00000
AFIX  23
H74A  2    0.807760    0.506461    0.777466    10.50000   -1.20000
H74B  2    0.837917    0.540136    0.785381    10.50000   -1.20000
AFIX   0
N75   3    0.963005    0.537113    0.855471    10.50000    0.12922    0.12974 =
         0.14679    0.00000    0.07053    0.00000
AFIX  23
H75A  2    0.998565    0.527714    0.854988    10.50000   -1.20000
H75B  2    0.951581    0.552394    0.829760    10.50000   -1.20000
AFIX   0
C50   1    0.905176    0.576476    0.957592    10.50000    0.17605    0.16969 =
         0.17802   -0.00633    0.04102    0.01251
AFIX  33
H50A  2    0.936833    0.593782    0.966012    10.50000   -1.50000
H50B  2    0.866308    0.587633    0.952566    10.50000   -1.50000
H50C  2    0.911240    0.559885    0.985131    10.50000   -1.50000
AFIX   0
C47   1    0.901308    0.534182    0.717722    10.50000    0.14827    0.14927 =
         0.14229    0.00147    0.03769   -0.00677
AFIX  33
H47A  2    0.917496    0.522146    0.693300    10.50000   -1.50000
H47B  2    0.871385    0.550872    0.700136    10.50000   -1.50000
H47C  2    0.933663    0.546103    0.742141    10.50000   -1.50000
AFIX   0
C46   1    0.873147    0.509115    0.744327    10.50000    0.14086    0.13755 =
         0.14446   -0.00046    0.05154    0.00245
AFIX  13
H46   2    0.837466    0.502613    0.716343    10.50000   -1.20000
AFIX   0
C45   1    0.901818    0.475069    0.756131    10.50000    0.13827    0.13525 =
         0.14558   -0.00358    0.05203    0.00474
AFIX  23
H45A  2    0.929026    0.471737    0.734657    10.50000   -1.20000
H45B  2    0.870295    0.457375    0.746467    10.50000   -1.20000
AFIX   0
C48   1    0.967534    0.553865    0.904358    10.50000   10.20724   10.20968 =
        10.20843  -10.00080   10.05883  -10.00035
AFIX  23
H48A  2    0.987324    0.576410    0.905559    10.50000   -1.20000
H48B  2    0.991879    0.539565    0.932037    10.50000   -1.20000
AFIX   0
C49   1    0.906913    0.558478    0.910698    10.50000    0.17200    0.17149 =
         0.17669   -0.00135    0.05827    0.00163
AFIX  13
H49   2    0.891350    0.576929    0.885401    10.50000   -1.20000
AFIX   0

PART 0
NI8   5    0.641798    0.825150    0.903416    11.00000    0.06614    0.03784 =
         0.05288   -0.01252    0.02507   -0.00280
O76   6    0.571182    0.791546    0.867334    11.00000    0.08201    0.05694 =
         0.09763   -0.02937    0.02747   -0.00970
AFIX   3
H76A  2    0.564132    0.781666    0.837974    11.00000   -1.50000
H76B  2    0.582242    0.770586    0.881454    11.00000   -1.50000
AFIX   0
O77   6    0.599911    0.826487    0.963240    11.00000    0.10818    0.08048 =
         0.08930   -0.03069    0.05457   -0.02811
AFIX   3
H77A  2    0.563171    0.829357    0.938030    11.00000   -1.50000
H77B  2    0.619451    0.840917    0.988030    11.00000   -1.50000
AFIX   0
N9    3    0.670386    0.824087    0.837765    11.00000    0.05117    0.04421 =
         0.04672   -0.00814    0.01454    0.00464
AFIX  23
H9A   2    0.708559    0.831909    0.844542    11.00000   -1.20000
H9B   2    0.669445    0.802223    0.826167    11.00000   -1.20000
AFIX   0
N10   3    0.592579    0.867523    0.867892    11.00000    0.04750    0.04855 =
         0.06778   -0.01549    0.01757    0.00738
AFIX  23
H10A  2    0.553237    0.861910    0.856719    11.00000   -1.20000
H10B  2    0.596424    0.885105    0.890160    11.00000   -1.20000
AFIX   0
N11   3    0.695433    0.784799    0.942528    11.00000    0.09298    0.03269 =
         0.05876    0.00592    0.04157    0.00200
AFIX  23
H11A  2    0.673070    0.770546    0.956021    11.00000   -1.20000
H11B  2    0.710558    0.772454    0.920976    11.00000   -1.20000
AFIX   0
N12   3    0.713351    0.855090    0.944168    11.00000    0.06437    0.03474 =
         0.03610    0.00209    0.01528    0.01300
AFIX  23
H12A  2    0.721774    0.871677    0.924046    11.00000   -1.20000
H12B  2    0.703796    0.865391    0.970421    11.00000   -1.20000
AFIX   0
C20   1    0.745260    0.799715    0.983412    11.00000    0.08703    0.04001 =
         0.03614    0.00167    0.02376    0.00197
AFIX  23
H20A  2    0.778724    0.783228    0.993385    11.00000   -1.20000
H20B  2    0.731266    0.804927    1.013295    11.00000   -1.20000
AFIX   0
C21   1    0.765775    0.832525    0.963004    11.00000    0.06708    0.03242 =
         0.04537    0.00994    0.02347   -0.00438
AFIX  13
H21   2    0.781158    0.826181    0.933851    11.00000   -1.20000
AFIX   0
C22   1    0.815889    0.849599    1.002139    11.00000    0.07316    0.05720 =
         0.06143    0.02440    0.01699   -0.00771
AFIX  33
H22A  2    0.849302    0.833572    1.013245    11.00000   -1.50000
H22B  2    0.829174    0.869984    0.987578    11.00000   -1.50000
H22C  2    0.801697    0.856316    1.030979    11.00000   -1.50000
AFIX   0
C26   1    0.630558    0.845915    0.799536    11.00000    0.04870    0.06154 =
         0.04622   -0.00335    0.00446   -0.00178
AFIX  23
H26A  2    0.593459    0.833255    0.783245    11.00000   -1.20000
H26B  2    0.650349    0.852017    0.773324    11.00000   -1.20000
AFIX   0
C27   1    0.615338    0.878471    0.824007    11.00000    0.06059    0.03014 =
         0.06463   -0.01745    0.01776   -0.00867
AFIX  13
H27   2    0.652912    0.891886    0.837463    11.00000   -1.20000
AFIX   0
C28   1    0.570865    0.900890    0.787022    11.00000    0.04640    0.05777 =
         0.07462   -0.00843   -0.00777    0.00104
AFIX  33
H28A  2    0.587345    0.907357    0.759335    11.00000   -1.50000
H28B  2    0.533559    0.888216    0.773641    11.00000   -1.50000
H28C  2    0.562965    0.921579    0.804201    11.00000   -1.50000
AFIX   0

NI9   5    0.919005    0.825360    0.783999    11.00000    0.03250    0.03164 =
         0.04203   -0.00280    0.01570   -0.00005
N13   3    0.983171    0.799406    0.824410    11.00000    0.03170    0.03918 =
         0.04718   -0.00201    0.02018   -0.00799
AFIX  23
H13A  2    0.976546    0.776815    0.816798    11.00000   -1.20000
H13B  2    1.017446    0.805523    0.816990    11.00000   -1.20000
AFIX   0
N14   3    0.907378    0.840708    0.845277    11.00000    0.06413    0.05544 =
         0.06236    0.00113    0.02302    0.01751
AFIX  23
H14C  2    0.922121    0.862336    0.851510    11.00000   -1.20000
H14D  2    0.867521    0.841594    0.842208    11.00000   -1.20000
AFIX   0
N15   3    0.930123    0.808709    0.722474    11.00000    0.03631    0.04370 =
         0.04977   -0.01084    0.01858   -0.00978
AFIX  23
H15A  2    0.969121    0.811155    0.723028    11.00000   -1.20000
H15B  2    0.921077    0.785996    0.719400    11.00000   -1.20000
AFIX   0
N16   3    0.857858    0.854436    0.745926    11.00000    0.03621    0.03536 =
         0.05352    0.00621    0.01063    0.00354
AFIX  23
H16D  2    0.821559    0.845939    0.746086    11.00000   -1.20000
H16E  2    0.861718    0.875661    0.760054    11.00000   -1.20000
AFIX   0
C29   1    0.891995    0.827389    0.678420    11.00000    0.08517    0.08694 =
         0.06563   -0.00256    0.01731    0.02032
AFIX  23
H29A  2    0.917013    0.835495    0.657049    11.00000   -1.20000
H29B  2    0.861696    0.811496    0.658125    11.00000   -1.20000
AFIX   0
C30   1    0.861704    0.856880    0.693632    11.00000    0.10101    0.09945 =
         0.07839    0.01681    0.03354    0.02979
AFIX  13
H30   2    0.895213    0.873734    0.699327    11.00000   -1.20000
AFIX   0
C31   1    0.815418    0.877287    0.657628    11.00000    0.05521    0.06315 =
         0.03615    0.00722   -0.00070    0.00953
AFIX  33
H31A  2    0.801320    0.895597    0.675725    11.00000   -1.50000
H31B  2    0.832464    0.887355    0.632224    11.00000   -1.50000
H31C  2    0.781872    0.862402    0.641133    11.00000   -1.50000
AFIX   0
C32   1    0.991152    0.804322    0.879382    11.00000    0.07298    0.07978 =
         0.06090    0.00301    0.02139    0.01912
AFIX  23
H32A  2    1.000840    0.782067    0.896893    11.00000   -1.20000
H32B  2    1.024927    0.820135    0.893105    11.00000   -1.20000
AFIX   0
C33   1    0.936549    0.818439    0.888784    10.50000    0.04783    0.05855 =
         0.03838   -0.00488    0.00865    0.01663
AFIX  13
H33   2    0.909134    0.798464    0.886773    10.50000   -1.20000
AFIX   0
C34   1    0.941962    0.834385    0.938517    11.00000    0.10924    0.13677 =
         0.06895   -0.02001    0.03413    0.01666
AFIX  33
H34A  2    0.902767    0.842680    0.939897    11.00000   -1.50000
H34B  2    0.956742    0.817368    0.965085    11.00000   -1.50000
H34C  2    0.969953    0.853641    0.943425    11.00000   -1.50000
AFIX   0

NI10  5    0.823361    0.500000    0.391899    10.50000    0.05261    0.06255 =
         0.04745    0.00000    0.01694    0.00000
PART -1
N17   3    0.887834    0.467978    0.400217    10.50000    0.04368    0.03962 =
         0.04174   -0.01576    0.00852    0.00212
AFIX  23
H17C  2    0.895311    0.457456    0.430678    10.50000   -1.20000
H17D  2    0.878570    0.451701    0.375743    10.50000   -1.20000
AFIX   0
N18   3    0.880314    0.536822    0.400212    10.50000    0.09172    0.09401 =
         0.09670    0.00816    0.02025    0.00293
AFIX  23
H18A  2    0.880256    0.545835    0.369861    10.50000   -1.20000
H18B  2    0.871595    0.553737    0.419687    10.50000   -1.20000
AFIX   0
N19   3    0.758253    0.531252    0.383491    10.50000    0.09001    0.10004 =
         0.09437    0.00432    0.03368    0.00226
AFIX  23
H19D  2    0.762878    0.544046    0.411809    10.50000   -1.20000
H19E  2    0.756813    0.545633    0.357293    10.50000   -1.20000
AFIX   0
N20   3    0.769426    0.461869    0.384005    10.50000    0.09573    0.10462 =
         0.09767   -0.00021    0.03297   -0.00678
AFIX  23
H20C  2    0.762283    0.452936    0.352515    10.50000   -1.20000
H20D  2    0.785363    0.445176    0.406701    10.50000   -1.20000
AFIX   0
C35   1    0.941843    0.488405    0.396575    10.50000    0.05743    0.06633 =
         0.06709   -0.00105    0.02203   -0.00492
AFIX  13
H35   2    0.977819    0.475322    0.415755    10.50000   -1.20000
AFIX   0
C36   1    0.940346    0.520831    0.425612    10.50000    0.07188    0.06345 =
         0.07051   -0.00334    0.01617   -0.00019
AFIX  23
H36A  2    0.973320    0.536333    0.423855    10.50000   -1.20000
H36B  2    0.943748    0.515697    0.461342    10.50000   -1.20000
AFIX   0
C37   1    0.947895    0.493189    0.344806    10.50000    0.05405    0.04642 =
         0.07610    0.00392    0.02685   -0.01462
AFIX  33
H37A  2    0.948451    0.470769    0.329007    10.50000   -1.50000
H37B  2    0.914050    0.506590    0.324854    10.50000   -1.50000
H37C  2    0.985168    0.505356    0.346487    10.50000   -1.50000
AFIX   0
C38   1    0.712546    0.475059    0.392589    10.50000    0.09806    0.10510 =
         0.10342    0.00324    0.02960   -0.00389
AFIX  23
H38A  2    0.678752    0.460280    0.374898    10.50000   -1.20000
H38B  2    0.715445    0.474583    0.428968    10.50000   -1.20000
AFIX   0
C39   1    0.702013    0.510717    0.373399    10.50000    0.09810    0.10399 =
         0.10492    0.00052    0.02869    0.00021
AFIX  13
H39   2    0.689737    0.507892    0.336017    10.50000   -1.20000
AFIX   0
C40   1    0.650804    0.528458    0.383834    10.50000    0.10589    0.11622 =
         0.11554    0.00786    0.03416    0.00418
AFIX  33
H40A  2    0.647585    0.551648    0.369775    10.50000   -1.50000
H40B  2    0.614075    0.515733    0.368390    10.50000   -1.50000
H40C  2    0.656748    0.529772    0.420265    10.50000   -1.50000
AFIX   0

PART 0
PART -2
O25A  6    1.163098    1.008201    0.920511   -20.50000    0.10847    0.10776 =
         0.10904   -0.00515    0.02763   -0.00703
AFIX   3
H25F  2    1.156618    0.992731    0.944951   -20.50000   -1.50000
H25G  2    1.159498    1.031911    0.927851   -20.50000   -1.50000
AFIX   0
PART 0
PART 2
NI2A  5    0.873556    0.956205    0.970173   -31.00000    0.05968    0.05262 =
         0.04900    0.00042   -0.01084    0.00143
NI1A  5    0.947592    1.000000    0.876870   -40.50000    0.03237    0.04690 =
         0.08065    0.00000   -0.00794    0.00000
HKLF 4




REM  wss0412_0mC 1 2/m 1 R = 0.05
REM R1 =  0.0422 for   16904 Fo > 4sig(Fo)  and  0.0721 for all   22879 data
REM   1494 parameters refined using    570 restraints

END

WGHT      0.0404    805.4641

REM Highest difference peak  4.560,  deepest hole -3.654,  1-sigma level  0.273
Q1    1   0.9105  0.5000  0.8629  10.50000  0.05    4.56
Q2    1   0.6864  0.9577  0.9283  11.00000  0.05    3.65
;
_shelx_res_checksum              15032
_shelx_fab_file
;
    4    0    0     97.06     -0.71
    6    0    0      0.42     -0.02
    8    0    0     85.30      0.53
   10    0    0     43.55      0.20
   12    0    0     48.41     -0.19
   14    0    0      1.45     -0.09
   16    0    0    -28.04     -0.62
   18    0    0      2.72     -0.46
   20    0    0     12.92      0.17
   22    0    0     -7.66     -1.91
   24    0    0      4.15     -0.96
   26    0    0      0.38      0.70
    3    1    0      7.59      0.35
    5    1    0      6.59      0.65
    7    1    0     20.11      0.30
    9    1    0     -5.51      0.09
   11    1    0    -12.47     -0.33
   13    1    0    -12.39     -0.17
   15    1    0      9.91     -0.43
   17    1    0     17.92      0.08
   19    1    0      0.72     -0.01
   21    1    0     -3.18     -0.91
   23    1    0      3.46      1.00
   25    1    0      2.87      0.41
   27    1    0     -1.57     -0.33
    4    2    0    -45.66     -0.31
    6    2    0    -79.76     -0.38
    8    2    0     -8.79      0.24
   10    2    0    -43.82     -0.45
   12    2    0    -16.71     -0.08
   14    2    0      1.11     -0.31
   16    2    0     10.03     -0.20
   18    2    0      0.52     -0.48
   20    2    0      0.94      0.75
   22    2    0      0.84      0.36
   24    2    0     19.20      0.19
   26    2    0      3.95      0.27
    3    3    0     56.59     -0.19
    5    3    0     90.83     -0.04
    7    3    0     61.05     -0.18
    9    3    0      3.92      0.16
   11    3    0      5.51     -0.19
   13    3    0     11.18     -0.20
   15    3    0    -15.86     -0.22
   17    3    0    -10.83     -0.35
   19    3    0      5.88      0.00
   21    3    0     -7.70     -1.34
   23    3    0     -1.85     -0.83
   25    3    0      3.07      0.09
   27    3    0      6.77     -0.14
    2    4    0     -9.37      0.78
    4    4    0      0.13      0.30
    6    4    0    -66.95      0.16
    8    4    0     -1.45      0.05
   10    4    0     30.84     -0.43
   12    4    0     25.19      0.22
   14    4    0     -1.61     -0.77
   16    4    0      7.76     -0.10
   18    4    0    -10.18      0.05
   20    4    0      5.94      0.09
   22    4    0     -2.35      0.27
   24    4    0     10.96     -0.12
   26    4    0    -11.44     -0.64
    1    5    0   -190.41      0.47
    3    5    0   -128.44     -0.23
    5    5    0    -41.40     -0.03
    7    5    0    -62.32     -0.22
    9    5    0    -39.51      0.02
   11    5    0    -18.31      0.13
   13    5    0      0.84     -0.02
   15    5    0     -6.94      0.40
   17    5    0     -3.58     -0.14
   19    5    0      0.89     -0.09
   21    5    0    -12.08      0.03
   23    5    0      1.87      0.63
   25    5    0     -4.94      0.29
   27    5    0      6.51      0.25
    0    6    0   -198.93     -0.11
    2    6    0     -9.87      0.00
    4    6    0     -3.37     -0.37
    6    6    0     61.53     -0.34
    8    6    0    -24.99     -0.32
   10    6    0    -39.27      0.02
   12    6    0     -2.61     -0.05
   14    6    0     -5.47      0.14
   16    6    0    -17.43      0.08
   18    6    0    -30.37      0.07
   20    6    0     -4.93     -0.43
   22    6    0    -21.14     -1.22
   24    6    0     14.13     -0.98
   26    6    0     -1.35     -0.30
    1    7    0     -4.43      0.73
    3    7    0     70.09     -0.29
    5    7    0     12.75     -0.02
    7    7    0    -18.48     -0.39
    9    7    0     27.69     -0.37
   11    7    0     29.75      0.00
   13    7    0      8.26     -0.30
   15    7    0     13.97     -0.05
   17    7    0     10.22      0.05
   19    7    0      2.30     -0.55
   21    7    0    -12.89     -0.87
   23    7    0     -4.90      0.13
   25    7    0    -17.17      0.25
   27    7    0     -0.55      0.10
    0    8    0    -51.79      0.15
    2    8    0     29.80     -0.44
    4    8    0    -59.99     -0.51
    6    8    0     19.52     -0.16
    8    8    0    -26.46     -0.08
   10    8    0     10.98      0.49
   12    8    0     27.48     -0.23
   14    8    0     10.79      0.64
   16    8    0     -3.81     -0.01
   18    8    0     -7.55      0.26
   20    8    0      8.35      0.04
   22    8    0    -10.20     -0.12
   24    8    0      1.62      0.32
   26    8    0     -7.41      0.26
    1    9    0      7.44      0.62
    3    9    0      2.35     -0.37
    5    9    0    -15.89     -0.09
    7    9    0     -0.77     -0.39
    9    9    0    -30.45      0.10
   11    9    0    -22.40      0.35
   13    9    0    -10.75      0.14
   15    9    0     -4.75      0.39
   17    9    0    -13.23      0.67
   19    9    0     -7.10     -0.12
   21    9    0    -18.58     -0.81
   23    9    0     -5.79     -0.93
   25    9    0      0.82     -0.53
    0   10    0    100.21     -0.48
    2   10    0     85.24     -0.09
    4   10    0     12.06      0.12
    6   10    0     21.12      0.20
    8   10    0     -1.00      0.27
   10   10    0     37.98      0.06
   12   10    0      8.83     -0.26
   14   10    0     15.20      0.50
   16   10    0     17.90     -0.05
   18   10    0     -6.36      0.27
   20   10    0     -5.82     -0.32
   22   10    0     -4.92     -0.68
   24   10    0     -3.96      0.21
   26   10    0    -12.39     -0.08
    1   11    0     41.52      0.37
    3   11    0     28.03     -0.41
    5   11    0     69.57      0.02
    7   11    0     68.66     -0.30
    9   11    0     -8.04      0.19
   11   11    0     -0.46      0.58
   13   11    0     22.22     -0.31
   15   11    0     19.50     -0.64
   17   11    0     25.13      0.12
   19   11    0     15.16     -0.17
   21   11    0      8.35      0.11
   23   11    0      4.30      0.46
   25   11    0      2.58      0.15
    0   12    0    152.73     -0.38
    2   12    0     27.51      0.26
    4   12    0    -48.54      0.30
    6   12    0    -58.14     -0.23
    8   12    0    -31.99      0.05
   10   12    0      8.91     -0.22
   12   12    0    -15.93     -0.15
   14   12    0     -3.39     -0.38
   16   12    0     -9.29     -0.09
   18   12    0     -4.62      0.04
   20   12    0     12.95      0.02
   22   12    0     14.06     -0.49
   24   12    0     16.65     -0.23
   26   12    0     -8.25     -0.45
    1   13    0      9.52     -0.13
    3   13    0      3.25      0.00
    5   13    0     22.17      0.10
    7   13    0     -0.53      0.51
    9   13    0     -9.75      0.35
   11   13    0     -6.31      0.20
   13   13    0    -13.37     -0.72
   15   13    0    -16.73     -0.45
   17   13    0      0.89      0.06
   19   13    0    -18.02     -0.23
   21   13    0     -0.06      0.11
   23   13    0     -2.15      0.26
   25   13    0     -3.33     -0.10
    0   14    0    100.48     -0.13
    2   14    0     -8.37     -0.38
    4   14    0     24.07     -0.37
    6   14    0     33.23     -0.42
    8   14    0      4.12     -0.35
   10   14    0     -9.32     -0.32
   12   14    0      1.88     -0.09
   14   14    0      9.90     -0.99
   16   14    0      1.70     -0.28
   18   14    0     13.32      0.06
   20   14    0     12.90      0.49
   22   14    0      6.51      0.18
   24   14    0     13.03      0.33
   26   14    0    -10.67     -0.10
    1   15    0     10.13     -0.24
    3   15    0      3.69      0.09
    5   15    0     20.07     -0.66
    7   15    0    -13.32     -0.32
    9   15    0    -10.00     -0.45
   11   15    0    -12.88      0.03
   13   15    0     -1.65     -0.53
   15   15    0      1.25     -0.10
   17   15    0      9.13     -0.06
   19   15    0     10.91     -0.35
   21   15    0     14.53      0.31
   23   15    0     -1.84      0.16
   25   15    0      1.61     -0.14
    0   16    0     42.36     -0.48
    2   16    0    -44.24     -0.32
    4   16    0    -31.26     -0.48
    6   16    0    -44.81      0.44
    8   16    0    -28.20      0.03
   10   16    0    -12.53      0.16
   12   16    0      6.32     -0.08
   14   16    0    -25.33     -0.04
   16   16    0    -25.10      0.48
   18   16    0     -7.91      0.25
   20   16    0     -6.65      0.71
   22   16    0    -15.66      0.17
   24   16    0     -5.69      0.06
    1   17    0    -11.69      0.11
    3   17    0    -53.16     -0.02
    5   17    0      3.48     -0.43
    7   17    0      4.12      0.09
    9   17    0    -12.93     -0.30
   11   17    0    -16.64      0.04
   13   17    0     -3.09      0.43
   15   17    0     -1.67      0.22
   17   17    0     -5.03      0.21
   19   17    0      8.43     -0.02
   21   17    0     -6.16      0.03
   23   17    0     -7.85      0.04
   25   17    0      1.33      0.04
    0   18    0      9.53     -0.14
    2   18    0     -0.57     -0.53
    4   18    0     46.86     -1.83
    6   18    0     22.54     -0.55
    8   18    0     14.29     -1.48
   10   18    0     -7.68     -0.23
   12   18    0     18.39      0.18
   14   18    0     12.74      0.38
   16   18    0     18.57      0.18
   18   18    0     11.79     -0.55
   20   18    0      7.80      0.15
   22   18    0     -8.01      0.09
   24   18    0     -2.30     -0.31
    1   19    0     17.59      0.06
    3   19    0    -37.03      0.01
    5   19    0    -15.44      0.08
    7   19    0      1.23      0.04
    9   19    0    -10.84     -0.19
   11   19    0      1.43      0.00
   13   19    0     -3.55      0.51
   15   19    0      5.07      0.07
   17   19    0      0.24     -0.18
   19   19    0     13.55     -0.22
   21   19    0    -14.90     -0.10
   23   19    0    -11.04      0.19
   25   19    0     -7.90     -0.02
    0   20    0     -5.06     -0.07
    2   20    0    -25.35      0.05
    4   20    0    -12.72     -0.47
    6   20    0     -4.39      0.51
    8   20    0      2.27     -0.23
   10   20    0    -13.53     -0.35
   12   20    0     -4.83      0.24
   14   20    0     -4.09      0.38
   16   20    0     -1.86     -0.18
   18   20    0    -12.00     -0.42
   20   20    0     -5.71     -0.19
   22   20    0      2.27     -0.07
   24   20    0      4.83     -0.29
    1   21    0      3.47      0.07
    3   21    0     25.67     -0.70
    5   21    0     29.53     -0.43
    7   21    0     45.61     -0.91
    9   21    0      9.43     -0.96
   11   21    0     11.59     -0.18
   13   21    0     -6.37     -0.31
   15   21    0     17.68     -0.23
   17   21    0      6.29     -0.38
   19   21    0      7.72      0.06
   21   21    0    -11.40      0.15
   23   21    0      6.80      0.13
    0   22    0     18.13      0.35
    2   22    0      6.29     -0.13
    4   22    0     14.34     -0.29
    6   22    0     33.19     -0.09
    8   22    0     14.37      0.93
   10   22    0      6.34      0.18
   12   22    0     -1.80      0.28
   14   22    0      6.69      0.08
   16   22    0     11.53     -0.19
   18   22    0      4.82      0.04
   20   22    0     -1.39     -0.12
   22   22    0      4.33      0.20
   24   22    0     -1.77     -0.12
    1   23    0    -36.56      0.53
    3   23    0     -0.91      0.20
    5   23    0     -6.23     -0.26
    7   23    0      6.41      0.34
    9   23    0    -18.56      0.57
   11   23    0      0.89      0.30
   13   23    0     -8.62     -0.31
   15   23    0      7.57      0.05
   17   23    0     -6.11     -0.29
   19   23    0     -3.94      0.24
   21   23    0     -4.82      0.01
   23   23    0     15.46     -0.09
    0   24    0     -9.69     -0.21
    2   24    0     -5.69     -0.17
    4   24    0     -8.08      0.46
    6   24    0      7.33      0.18
    8   24    0     -3.33      0.44
   10   24    0     12.39     -0.87
   12   24    0     -4.48     -0.38
   14   24    0     -2.00     -0.29
   16   24    0      0.07     -0.19
   18   24    0      3.53      0.21
   20   24    0      3.63      0.20
   22   24    0      3.87      0.26
    1   25    0     -6.94      0.41
    3   25    0     11.63     -0.01
    5   25    0     25.91     -1.01
    7   25    0     11.10      0.37
    9   25    0     -9.70      0.84
   11   25    0      7.64      0.16
   13   25    0     10.23     -0.36
   15   25    0      6.86      0.00
   17   25    0      3.08     -0.05
   19   25    0     -2.70      0.06
   21   25    0     -6.12     -0.13
   23   25    0      1.70      0.00
    0   26    0    -15.13      0.43
    2   26    0     -6.92      0.35
    4   26    0    -15.73     -0.54
    6   26    0    -12.64     -0.37
    8   26    0    -18.66      1.06
   10   26    0     -3.69     -0.14
   12   26    0     -9.13     -0.12
   14   26    0      0.69     -0.35
   16   26    0      3.74     -0.33
   18   26    0      5.18     -0.24
   20   26    0      6.43     -0.05
   22   26    0    -12.21      0.28
    1   27    0    -11.27     -0.08
    3   27    0    -20.34      0.30
    5   27    0     -3.20     -0.19
    7   27    0    -23.53     -0.32
    9   27    0    -13.77     -0.99
   11   27    0     -7.92     -0.45
   13   27    0      6.45      0.07
   15   27    0     -3.32      0.07
   17   27    0      7.31      0.02
   19   27    0      2.01     -0.04
   21   27    0     -2.66      0.02
    0   28    0     31.21     -0.57
    2   28    0     14.08     -0.30
    4   28    0      0.47     -0.66
    6   28    0     -0.77     -0.39
    8   28    0     -0.70     -0.09
   10   28    0      9.56     -0.61
   12   28    0      9.08     -0.11
   14   28    0     -4.19     -0.20
   16   28    0     -2.38      0.01
   18   28    0     -0.04     -0.32
   20   28    0      2.73     -0.26
   22   28    0    -10.08      0.22
    1   29    0     29.87     -0.17
    3   29    0      1.57      0.04
    5   29    0      0.54     -0.52
    7   29    0     -3.05      0.01
    9   29    0     17.36     -0.56
   11   29    0     -4.21     -0.08
   13   29    0     -1.19      0.29
   15   29    0     -8.99      0.07
   17   29    0      7.74     -0.12
   19   29    0      5.02     -0.47
   21   29    0     -4.45     -0.10
    0   30    0      2.85     -0.05
    2   30    0    -12.52      0.13
    4   30    0      4.06     -0.15
    6   30    0      1.91     -0.70
    8   30    0     -5.51     -1.46
   10   30    0    -12.47     -0.27
   12   30    0     -4.76      0.37
   14   30    0     -6.77      0.17
   16   30    0      7.86     -0.03
   18   30    0      7.52     -0.27
   20   30    0     -7.73      0.08
    1   31    0     27.40     -0.44
    3   31    0     -2.16      0.41
    5   31    0     -1.80     -0.24
    7   31    0      2.93      0.13
    9   31    0     10.45     -0.65
   11   31    0      8.81     -0.34
   13   31    0      3.68      0.09
   15   31    0     -5.50      0.11
   17   31    0      6.57     -0.10
   19   31    0      2.41     -0.36
    0   32    0     40.77      0.10
    2   32    0     13.40     -0.01
    4   32    0      1.63     -0.06
    6   32    0     -3.82      0.10
    8   32    0      8.75     -0.71
   10   32    0     -0.56     -0.11
   12   32    0     -0.70     -0.07
   14   32    0     -5.21      0.29
   16   32    0      0.78      0.00
   18   32    0     10.92     -0.47
   20   32    0     -4.16     -0.18
    1   33    0      3.09     -0.16
    3   33    0     -9.41      0.22
    5   33    0      0.87     -0.72
    7   33    0      4.59     -0.30
    9   33    0     -6.04     -0.49
   11   33    0      3.90     -0.47
   13   33    0     -2.34     -0.10
   15   33    0      3.55     -0.18
   17   33    0     12.96     -0.49
   19   33    0     -3.26     -0.16
    0   34    0      6.11      0.26
    2   34    0     -9.57      0.19
    4   34    0     -5.28     -0.16
    6   34    0      9.98     -0.02
    8   34    0      4.43     -0.43
   10   34    0    -12.52     -0.47
   12   34    0      2.43     -0.58
   14   34    0     18.13      0.02
   16   34    0     12.73      0.17
   18   34    0      7.16      0.01
    1   35    0      4.78      0.08
    3   35    0     -7.00     -0.16
    5   35    0     -3.58      0.03
    7   35    0      2.84      0.65
    9   35    0     -9.34      0.21
   11   35    0     -0.26     -0.39
   13   35    0     -4.94      0.24
   15   35    0      0.27      0.17
   17   35    0      2.27      0.28
    0   36    0     19.17     -0.27
    2   36    0      1.75      0.09
    4   36    0     -8.23     -0.17
    6   36    0      7.85      0.05
    8   36    0     10.27      0.03
   10   36    0      1.14     -0.22
   12   36    0     -1.86     -0.07
   14   36    0      4.44      0.23
   16   36    0      8.99      0.14
    1   37    0     -4.30      0.24
    3   37    0     -1.87      0.02
    5   37    0      6.93      0.56
    7   37    0      8.48      0.15
    9   37    0     -0.53      0.19
   11   37    0      4.11     -0.52
   13   37    0      2.42      0.30
   15   37    0      6.18      0.13
   17   37    0     -6.21      0.48
    0   38    0     -4.33     -0.15
    2   38    0     -5.26     -0.09
    4   38    0      1.36      0.01
    6   38    0     11.11      0.83
    8   38    0      4.81      0.63
   10   38    0     -1.27      0.44
   12   38    0     -0.70      0.50
   14   38    0      0.39      0.07
   16   38    0      7.70      0.26
    1   39    0     -1.27      0.18
    3   39    0      8.62      0.25
    5   39    0      9.58      0.60
    7   39    0      0.18     -0.20
    9   39    0      3.81      0.08
   11   39    0      9.55     -0.46
   13   39    0     -6.53      0.41
   15   39    0     -5.51     -0.01
    0   40    0     -6.32      0.08
    2   40    0     -2.96      0.33
    4   40    0     10.61      0.82
    6   40    0     12.50      0.15
    8   40    0     10.37     -0.24
   10   40    0      7.59      0.19
   12   40    0     -6.96     -0.01
   14   40    0     -8.09     -0.04
    1   41    0     -8.67     -0.19
    3   41    0     -3.24     -0.30
    5   41    0      3.11      0.47
    7   41    0     -5.37      0.12
    9   41    0      1.63     -0.01
   11   41    0     22.89      0.14
   13   41    0      8.93      0.37
    0   42    0     -7.44     -0.08
    2   42    0     -1.20     -0.08
    4   42    0     19.39      0.34
    6   42    0     11.32     -0.62
    8   42    0     -5.25     -0.39
   10   42    0     -3.71     -0.10
   12   42    0     -9.68     -0.17
    1   43    0     12.04     -0.12
    3   43    0      0.61     -0.42
    5   43    0     10.45     -0.32
    7   43    0      5.49     -0.32
    9   43    0      9.47      0.44
   11   43    0      9.23      0.42
    0   44    0     -2.31     -0.18
    2   44    0    -13.31      0.36
    4   44    0     -5.31      0.73
    6   44    0     -0.43     -0.20
    8   44    0    -13.19     -0.45
   10   44    0     -3.63     -0.34
    1   45    0     11.06     -0.09
    3   45    0    -12.76     -0.35
    5   45    0    -10.08     -0.36
    7   45    0    -16.27     -0.14
    0   46    0     23.59     -0.03
    2   46    0      2.25      0.07
    4   46    0      5.59      0.05
    6   46    0     11.25     -0.69
    1   47    0    -13.21      0.01
    3   47    0    -21.57      0.24
  -26    0    1     -9.90      1.99
  -24    0    1    -14.66      0.97
  -22    0    1     -0.80     -1.27
  -20    0    1     -7.49     -0.38
  -18    0    1    -12.78     -0.19
  -16    0    1      6.57     -0.04
  -14    0    1      6.10      0.22
  -12    0    1     16.49      0.33
  -10    0    1     42.77      0.19
   -8    0    1     50.71      0.26
   -6    0    1    -14.54     -0.24
   -4    0    1     48.72      0.05
    4    0    1     23.30      0.28
    6    0    1    -89.96      0.63
    8    0    1     -8.24      0.33
   10    0    1     18.57      0.17
   12    0    1      4.64     -0.24
   14    0    1    -18.38     -0.40
   16    0    1     -6.06     -0.22
   18    0    1    -25.54     -0.39
   20    0    1     -5.07      0.44
   22    0    1    -11.43      0.08
   24    0    1    -15.51      0.44
   26    0    1    -13.23     -0.86
  -27    1    1     10.41     -1.23
  -25    1    1     -4.97      0.14
  -23    1    1      2.87     -0.68
  -21    1    1     -1.97      1.27
  -19    1    1     23.22     -0.31
  -17    1    1     -2.64     -0.02
  -15    1    1      2.32     -0.27
  -13    1    1    -11.47     -0.09
  -11    1    1     -4.84      0.29
   -9    1    1    -11.13      0.49
   -7    1    1     60.08      0.09
   -5    1    1     48.08     -0.18
   -3    1    1    -68.21     -0.02
    3    1    1      4.44      0.66
    5    1    1     54.99      0.23
    7    1    1     45.75     -0.03
    9    1    1     26.72      0.20
   11    1    1     -5.14     -0.05
   13    1    1      0.06      0.14
   15    1    1     -0.86      0.65
   17    1    1     -9.67     -0.26
   19    1    1     11.31      0.22
   21    1    1      2.69     -0.12
   23    1    1    -11.52      0.37
   25    1    1    -10.19      0.23
   27    1    1      3.12      0.68
  -26    2    1      8.74     -0.36
  -24    2    1      7.98      0.80
  -22    2    1     12.51     -0.08
  -20    2    1      5.11     -0.59
  -18    2    1      0.07      0.00
  -16    2    1      3.48     -0.06
  -14    2    1     11.23     -0.50
  -12    2    1     -3.22      0.37
  -10    2    1    -24.72      0.17
   -8    2    1      0.79     -0.18
   -6    2    1      9.51      0.15
   -4    2    1    -20.31      0.08
    4    2    1     17.28     -0.24
    6    2    1     30.11      0.26
    8    2    1     40.12     -0.20
   10    2    1     -4.79      0.42
   12    2    1     13.99      0.12
   14    2    1     17.85      0.22
   16    2    1      9.83     -0.19
   18    2    1     -5.58      0.01
   20    2    1     11.15      0.39
   22    2    1      3.43     -0.43
   24    2    1      6.47      0.35
   26    2    1      0.54     -0.01
  -27    3    1      9.55      0.48
  -25    3    1    -18.47      2.30
  -23    3    1      4.77     -1.20
  -21    3    1     -7.37      0.31
  -19    3    1     -0.90     -0.11
  -17    3    1      6.81     -0.20
  -15    3    1     19.30     -0.04
  -13    3    1    -17.97      0.45
  -11    3    1      1.08      0.46
   -9    3    1     -0.85      0.52
   -7    3    1     23.81      0.07
   -5    3    1     56.64      0.10
   -3    3    1    141.68      0.12
    3    3    1     45.87      0.26
    5    3    1     28.32      0.44
    7    3    1     -9.76     -0.27
    9    3    1     -5.67     -0.26
   11    3    1    -11.01     -0.30
   13    3    1    -26.46     -0.14
   15    3    1      5.09     -0.54
   17    3    1      4.47     -0.25
   19    3    1     -4.06     -0.63
   21    3    1     -1.39     -0.25
   23    3    1     -1.61      1.08
   25    3    1    -13.53     -0.56
   27    3    1      1.43     -0.34
  -26    4    1      0.59      0.42
  -24    4    1     -8.33      1.51
  -22    4    1      5.64      0.01
  -20    4    1     10.58     -0.31
  -18    4    1      3.40      0.07
  -16    4    1    -30.69      0.74
  -14    4    1    -15.35      0.21
  -12    4    1      1.06      0.31
  -10    4    1     -6.46      0.23
   -8    4    1    -33.15      0.09
   -6    4    1    -33.47      0.32
   -4    4    1    -11.17     -0.01
   -2    4    1    -30.99      0.29
    0    4    1     83.56     -0.35
    2    4    1    -52.45      0.05
    4    4    1    -31.92      0.07
    6    4    1    -23.36     -0.17
    8    4    1      4.85     -0.56
   10    4    1    -15.95      0.00
   12    4    1      5.36      0.05
   14    4    1     -5.87      0.60
   16    4    1    -23.61     -0.11
   18    4    1     -1.29     -0.40
   20    4    1     13.83      0.35
   22    4    1     -3.27     -0.14
   24    4    1     -7.05     -0.47
   26    4    1     -8.85     -0.33
  -27    5    1      9.90     -0.61
  -25    5    1     -6.16      0.79
  -23    5    1     16.90      0.15
  -21    5    1     -2.52      0.61
  -19    5    1     -0.10      0.12
  -17    5    1     -1.26      0.12
  -15    5    1     -1.71     -0.55
  -13    5    1    -14.89      0.15
  -11    5    1     -5.42      0.11
   -9    5    1    -42.41      0.16
   -7    5    1    -47.40     -0.17
   -5    5    1    -64.54     -0.01
   -3    5    1     41.24      0.12
   -1    5    1   -178.15      0.22
    1    5    1   -166.66     -0.23
    3    5    1     -0.63     -0.13
    5    5    1    -11.83      0.23
    7    5    1      8.64     -0.32
    9    5    1    -10.95      0.24
   11    5    1     14.77      0.21
   13    5    1      5.25      0.42
   15    5    1     13.62     -0.11
   17    5    1      9.76      0.31
   19    5    1      0.73     -0.24
   21    5    1      4.24     -0.30
   23    5    1      4.32      0.26
   25    5    1     -1.91     -0.36
  -26    6    1     -0.69      0.98
  -24    6    1     -0.61      0.01
  -22    6    1      7.94     -2.30
  -20    6    1     -6.69     -0.92
  -18    6    1     -0.65     -0.60
  -16    6    1      9.68      0.49
  -14    6    1      6.05      0.14
  -12    6    1     -3.33      0.18
  -10    6    1     26.08      0.12
   -8    6    1      4.03      0.03
   -6    6    1      8.02      0.50
   -4    6    1     89.52      0.54
   -2    6    1     -2.75      0.55
    0    6    1    -73.94     -0.47
    2    6    1   -124.11     -0.18
    4    6    1     23.53      0.03
    6    6    1     -2.58      0.01
    8    6    1     13.14      0.20
   10    6    1      5.26     -0.20
   12    6    1     -4.14      0.32
   14    6    1      8.63      0.09
   16    6    1     11.32     -0.11
   18    6    1      3.67     -0.20
   20    6    1     -3.70      0.29
   22    6    1      1.96      0.84
   24    6    1      6.46      0.38
   26    6    1     -5.57     -0.12
  -27    7    1      1.33     -0.39
  -25    7    1    -11.57     -0.53
  -23    7    1     -3.13      0.08
  -21    7    1    -15.29     -0.26
  -19    7    1      2.07     -0.24
  -17    7    1     -5.58      0.25
  -15    7    1    -22.18      0.36
  -13    7    1      0.05      0.87
  -11    7    1    -13.92      0.14
   -9    7    1    -29.60      0.05
   -7    7    1      3.75     -0.31
   -5    7    1     22.99     -0.08
   -3    7    1      7.61      0.37
   -1    7    1    -62.26      0.39
    1    7    1    -61.21      0.17
    3    7    1    -40.65      0.32
    5    7    1    -20.59      0.71
    7    7    1     13.07     -0.09
    9    7    1    -37.81      0.50
   11    7    1    -21.89      0.27
   13    7    1      0.63      0.01
   15    7    1    -16.03      0.31
   17    7    1     -1.06     -0.33
   19    7    1     -5.22     -0.61
   21    7    1     -5.75     -0.25
   23    7    1    -19.54     -0.33
   25    7    1     -0.68     -0.06
  -26    8    1     -2.55     -0.55
  -24    8    1     10.82     -0.16
  -22    8    1      6.64     -0.27
  -20    8    1      7.62      0.27
  -18    8    1     -5.72      0.14
  -16    8    1     -8.49     -0.05
  -14    8    1    -18.74     -0.76
  -12    8    1     -3.84      0.04
  -10    8    1     45.97      0.11
   -8    8    1    -12.73      0.04
   -6    8    1    -86.74      0.13
   -4    8    1    -73.67      0.27
   -2    8    1     13.58      0.13
    0    8    1     76.22     -0.73
    2    8    1     29.17      0.06
    4    8    1    -73.55      0.13
    6    8    1    -86.26     -0.32
    8    8    1    -13.09      0.51
   10    8    1     43.95     -0.62
   12    8    1      6.12     -0.03
   14    8    1      1.86     -0.09
   16    8    1      0.68      0.28
   18    8    1      1.94      0.36
   20    8    1      5.76      0.26
   22    8    1     -8.11     -0.24
   24    8    1      6.22     -0.31
   26    8    1     -8.85      0.07
  -27    9    1     10.84      0.26
  -25    9    1     -4.79     -0.74
  -23    9    1      0.04     -0.85
  -21    9    1    -12.03     -0.92
  -19    9    1     -5.49     -0.30
  -17    9    1     15.76     -0.55
  -15    9    1      3.07      0.11
  -13    9    1     16.67      0.17
  -11    9    1     23.74     -0.02
   -9    9    1     70.84      1.02
   -7    9    1     46.37      0.52
   -5    9    1     88.14      0.08
   -3    9    1     10.80      0.40
   -1    9    1     -1.44     -0.32
    1    9    1     10.21     -0.11
    3    9    1     -2.63     -0.30
    5    9    1      9.26      0.06
    7    9    1     28.29      0.20
    9    9    1     46.67      0.30
   11    9    1     26.57      0.12
   13    9    1     20.27     -0.28
   15    9    1      2.93      0.40
   17    9    1     30.01     -0.25
   19    9    1     -5.07      0.22
   21    9    1      3.48      0.63
   23    9    1    -12.39      0.55
   25    9    1      4.69      0.60
  -26   10    1     -8.02      0.25
  -24   10    1      7.22      0.72
  -22   10    1    -14.08      0.52
  -20   10    1     -9.14     -0.28
  -18   10    1    -16.76      0.00
  -16   10    1     -6.65      0.27
  -14   10    1      3.62      0.20
  -12   10    1     -4.43      0.46
  -10   10    1    -10.23      0.03
   -8   10    1      5.00     -0.58
   -6   10    1     61.96     -0.12
   -4   10    1      0.54     -0.12
   -2   10    1     11.87     -0.06
    0   10    1     34.64     -0.44
    2   10    1     59.34      0.06
    4   10    1    -55.05      0.27
    6   10    1     20.08     -0.19
    8   10    1     -9.85      0.37
   10   10    1    -11.63     -0.22
   12   10    1    -17.73     -0.07
   14   10    1      7.96     -0.22
   16   10    1     -4.73     -0.02
   18   10    1    -12.05     -0.03
   20   10    1     -7.71     -0.15
   22   10    1    -21.21     -0.50
   24   10    1     10.87     -0.35
   26   10    1      1.87      0.15
  -25   11    1     -3.23     -0.35
  -23   11    1     -2.52      0.36
  -21   11    1      0.71      0.16
  -19   11    1      6.09      0.54
  -17   11    1     13.74     -0.36
  -15   11    1      0.61     -0.11
  -13   11    1    -19.36      0.06
  -11   11    1    -19.19     -0.54
   -9   11    1     44.01      0.50
   -7   11    1    -17.41      0.01
   -5   11    1     14.30     -0.61
   -3   11    1    -38.28     -0.43
   -1   11    1     -5.82     -2.15
    1   11    1     24.92     -0.57
    3   11    1     -1.94      0.23
    5   11    1    -20.53     -0.07
    7   11    1    -12.92      0.02
    9   11    1     32.67     -0.44
   11   11    1     -9.39     -0.37
   13   11    1    -18.28     -0.21
   15   11    1     -3.31      0.52
   17   11    1     25.78     -0.04
   19   11    1      4.16      0.05
   21   11    1      4.30      0.13
   23   11    1    -18.45     -0.13
   25   11    1      0.69      0.65
  -26   12    1      2.88      0.20
  -24   12    1      8.48     -0.01
  -22   12    1      9.14     -0.07
  -20   12    1      0.91      0.11
  -18   12    1     -6.07     -0.49
  -16   12    1      1.72     -0.30
  -14   12    1      3.80     -0.08
  -12   12    1     26.40     -0.45
  -10   12    1     40.44      0.54
   -8   12    1     13.26      0.37
   -6   12    1     16.65      0.81
   -4   12    1    -24.92     -0.14
   -2   12    1      8.60     -0.40
    0   12    1      7.32     -0.59
    2   12    1     68.01     -0.53
    4   12    1    -42.36     -0.69
    6   12    1     13.61     -0.38
    8   12    1     11.53      0.06
   10   12    1     46.41      0.32
   12   12    1     28.06      0.35
   14   12    1      9.23      0.28
   16   12    1      6.83      0.12
   18   12    1      4.96      0.65
   20   12    1      8.20      0.80
   22   12    1      9.34      0.40
   24   12    1     11.16      0.37
   26   12    1      2.50      0.01
  -25   13    1     -1.37      0.13
  -23   13    1     -4.05      0.15
  -21   13    1     -9.35     -0.38
  -19   13    1     -6.54      0.44
  -17   13    1    -12.26      0.33
  -15   13    1     -5.85      0.00
  -13   13    1     -9.77      0.38
  -11   13    1    -27.58     -0.13
   -9   13    1      1.24      0.32
   -7   13    1      3.49      0.05
   -5   13    1     26.75     -0.57
   -3   13    1     -7.38     -0.48
   -1   13    1     -2.82     -0.70
    1   13    1     22.21      0.29
    3   13    1      4.06      0.25
    5   13    1     12.47     -0.22
    7   13    1     27.80     -0.04
    9   13    1      9.79      0.00
   11   13    1    -22.41      0.46
   13   13    1    -12.24      0.17
   15   13    1     -5.99     -0.10
   17   13    1     -9.78      0.00
   19   13    1     -5.62     -0.10
   21   13    1     -2.86      0.25
   23   13    1     -5.63     -0.15
   25   13    1     13.65      0.40
  -26   14    1      6.28      0.24
  -24   14    1     -1.39     -0.01
  -22   14    1      7.00     -0.33
  -20   14    1      0.22      0.33
  -18   14    1     -2.30     -0.06
  -16   14    1      0.04      0.33
  -14   14    1    -10.25      0.79
  -12   14    1    -15.54      0.10
  -10   14    1      4.51      0.56
   -8   14    1    -19.89      0.20
   -6   14    1    -18.89      0.21
   -4   14    1      5.84     -0.41
   -2   14    1    -12.27     -0.27
    0   14    1    -73.16     -0.57
    2   14    1     24.31      0.02
    4   14    1     25.94     -0.20
    6   14    1     16.06      0.07
    8   14    1     -0.67     -0.16
   10   14    1      1.11      0.00
   12   14    1    -13.87      0.01
   14   14    1    -11.76      0.43
   16   14    1     -7.45      0.30
   18   14    1    -10.14      0.00
   20   14    1     -2.98      0.27
   22   14    1      3.77     -0.15
   24   14    1     -5.83     -0.04
  -25   15    1      3.14      0.28
  -23   15    1      0.19     -0.12
  -21   15    1      2.43      0.13
  -19   15    1     13.15      0.20
  -17   15    1      8.98      0.15
  -15   15    1      1.20      0.09
  -13   15    1      5.90      0.46
  -11   15    1      5.25      0.47
   -9   15    1    -25.57      0.48
   -7   15    1    -20.50      0.49
   -5   15    1    -35.48     -0.14
   -3   15    1    -27.94     -0.69
   -1   15    1    -42.57      0.00
    1   15    1     -5.35     -0.08
    3   15    1    -19.26     -0.10
    5   15    1    -13.74     -0.53
    7   15    1     15.39     -0.21
    9   15    1    -11.74      0.20
   11   15    1      5.56      0.64
   13   15    1      9.51      0.38
   15   15    1      5.24     -0.10
   17   15    1     -0.84      0.37
   19   15    1     11.31      0.38
   21   15    1      8.69      0.28
   23   15    1     -2.43     -0.22
   25   15    1      3.14     -0.03
  -24   16    1     -5.15     -0.15
  -22   16    1     -0.54     -0.42
  -20   16    1     -1.24     -0.16
  -18   16    1      1.42     -0.11
  -16   16    1    -15.53      0.23
  -14   16    1     -4.72      0.39
  -12   16    1    -11.44      0.24
  -10   16    1     -0.05     -0.28
   -8   16    1    -15.67      0.21
   -6   16    1    -18.99      0.57
   -4   16    1     10.64     -0.30
   -2   16    1     -2.06      0.53
    0   16    1      7.15      0.30
    2   16    1     14.17      0.49
    4   16    1     18.34      0.39
    6   16    1     -0.38      0.63
    8   16    1     15.75      0.05
   10   16    1     -6.86     -0.29
   12   16    1     -8.96      0.07
   14   16    1      2.91      0.12
   16   16    1    -17.15      0.04
   18   16    1     -8.71     -0.18
   20   16    1      7.18      0.18
   22   16    1      9.28     -0.25
   24   16    1     -3.18      0.07
  -25   17    1      6.60      0.37
  -23   17    1     -3.93     -0.28
  -21   17    1     -7.94      0.21
  -19   17    1     -2.58     -0.03
  -17   17    1     -3.79      0.32
  -15   17    1     -6.35      0.13
  -13   17    1     -5.18      0.13
  -11   17    1     10.18      0.90
   -9   17    1    -20.17      0.14
   -7   17    1     -2.57     -0.45
   -5   17    1    -10.80     -0.54
   -3   17    1     39.90     -0.51
   -1   17    1    -22.98      0.87
    1   17    1     20.04      0.51
    3   17    1     33.99      0.49
    5   17    1      5.06     -0.10
    7   17    1     11.54     -0.03
    9   17    1    -16.44     -0.47
   11   17    1      2.17     -0.37
   13   17    1     -3.30     -0.54
   15   17    1     -7.66     -0.05
   17   17    1    -22.09      0.30
   19   17    1    -10.48     -0.22
   21   17    1     -4.32     -0.10
   23   17    1    -10.75     -0.04
   25   17    1     -0.19     -0.27
  -24   18    1     -2.14     -0.12
  -22   18    1      1.06     -0.10
  -20   18    1      3.15     -0.21
  -18   18    1     22.99     -0.10
  -16   18    1      2.80      0.39
  -14   18    1     14.30      0.13
  -12   18    1      4.13      0.66
  -10   18    1     -5.84     -0.35
   -8   18    1    -26.80      0.22
   -6   18    1    -31.22     -0.10
   -4   18    1    -28.08     -1.03
   -2   18    1    -53.47      0.19
    0   18    1     17.02     -0.24
    2   18    1    -38.96     -0.43
    4   18    1    -33.67     -0.24
    6   18    1    -35.34      0.52
    8   18    1     -2.20      0.71
   10   18    1    -20.66     -0.22
   12   18    1     -4.22      0.11
   14   18    1     11.06      0.19
   16   18    1     -3.21      0.10
   18   18    1      3.20      0.25
   20   18    1      2.03      0.05
   22   18    1     -4.72     -0.40
   24   18    1    -11.38      0.23
  -25   19    1      1.15      0.31
  -23   19    1     -0.63     -0.07
  -21   19    1     -3.18     -0.02
  -19   19    1      4.07     -0.53
  -17   19    1      8.76     -0.09
  -15   19    1     19.64      0.07
  -13   19    1      6.70     -0.27
  -11   19    1      2.48      0.12
   -9   19    1    -13.25     -0.57
   -7   19    1     19.96      0.01
   -5   19    1     18.69      0.48
   -3   19    1     44.50     -0.45
   -1   19    1    -22.20     -0.13
    1   19    1     13.21     -0.13
    3   19    1     22.93      1.03
    5   19    1      8.79      0.87
    7   19    1     18.03      0.56
    9   19    1     -1.14     -0.49
   11   19    1     -3.17     -0.12
   13   19    1      3.93      0.23
   15   19    1     11.15      0.22
   17   19    1     -2.02      0.50
   19   19    1      0.99     -0.24
   21   19    1      0.89     -0.17
   23   19    1     -4.26      0.39
  -24   20    1      2.32     -0.22
  -22   20    1      4.45      0.13
  -20   20    1     -8.60     -0.31
  -18   20    1     -3.91     -0.46
  -16   20    1    -11.07     -0.01
  -14   20    1      4.23     -0.54
  -12   20    1     18.47      0.69
  -10   20    1     26.19     -0.24
   -8   20    1     11.30     -0.31
   -6   20    1     -8.08     -0.37
   -4   20    1     17.25      0.10
   -2   20    1     17.33     -0.05
    0   20    1     74.06     -0.31
    2   20    1     25.62     -0.09
    4   20    1     -0.06      0.73
    6   20    1    -24.44      1.08
    8   20    1     23.68     -0.04
   10   20    1     21.40     -0.80
   12   20    1     22.44     -0.47
   14   20    1     -0.10     -0.34
   16   20    1     -5.76      0.13
   18   20    1     -8.95      0.17
   20   20    1     -7.17     -0.20
   22   20    1     -8.27     -0.03
   24   20    1      0.42      0.22
  -23   21    1     15.06     -0.16
  -21   21    1      0.29     -0.11
  -19   21    1     -2.24     -0.13
  -17   21    1      0.44     -0.36
  -15   21    1      8.70     -0.27
  -13   21    1     -2.47     -0.44
  -11   21    1     -0.66      0.02
   -9   21    1      0.38      0.12
   -7   21    1     10.89      0.26
   -5   21    1      2.51     -0.57
   -3   21    1    -16.97     -1.05
   -1   21    1    -37.09     -0.75
    1   21    1    -18.85     -0.73
    3   21    1    -35.58      0.39
    5   21    1    -16.13     -0.01
    7   21    1      2.54      0.47
    9   21    1     11.30      0.78
   11   21    1     -5.11      0.01
   13   21    1     -3.20      0.25
   15   21    1      0.78      0.01
   17   21    1      2.02      0.78
   19   21    1     -5.31     -0.06
   21   21    1     -9.18     -0.46
   23   21    1     -1.00      0.06
  -24   22    1      5.75      0.04
  -22   22    1      7.30      0.33
  -20   22    1     -2.90     -0.01
  -18   22    1     -5.52      0.00
  -16   22    1      4.33      0.14
  -14   22    1      0.25     -0.34
  -12   22    1      3.90      0.24
  -10   22    1      3.86     -0.05
   -8   22    1      8.56      0.33
   -6   22    1      5.11     -0.52
   -4   22    1     33.46      0.60
   -2   22    1      7.39     -0.18
    0   22    1     -7.20     -0.28
    2   22    1      1.42     -0.06
    4   22    1      3.22      0.58
    6   22    1     -5.92     -0.15
    8   22    1     18.78     -0.24
   10   22    1      6.11      0.08
   12   22    1     10.09      0.48
   14   22    1     -7.32      0.20
   16   22    1     11.52      0.47
   18   22    1     -2.44      0.30
   20   22    1     -0.59     -0.02
   22   22    1     -6.50     -0.13
  -23   23    1     10.49      0.32
  -21   23    1     -6.24      0.32
  -19   23    1     -9.11      0.25
  -17   23    1    -10.13     -0.25
  -15   23    1     -5.05      0.08
  -13   23    1     -6.29      0.16
  -11   23    1      2.77      0.47
   -9   23    1     15.46      0.23
   -7   23    1     11.07      0.10
   -5   23    1     29.69      0.04
   -3   23    1     11.34      0.23
   -1   23    1     10.99     -0.52
    1   23    1      9.40     -0.26
    3   23    1     -4.22      0.63
    5   23    1     17.20      0.36
    7   23    1     16.15     -0.82
    9   23    1     24.60     -0.05
   11   23    1     11.64     -0.15
   13   23    1     13.71     -0.02
   15   23    1      8.63     -0.12
   17   23    1     16.16      0.51
   19   23    1      6.25     -0.05
   21   23    1      3.43     -0.31
   23   23    1      7.80     -0.09
  -22   24    1      5.05      0.35
  -20   24    1     -2.44      0.00
  -18   24    1    -17.71     -0.01
  -16   24    1    -16.57     -0.06
  -14   24    1    -20.52      0.20
  -12   24    1      5.62     -0.27
  -10   24    1      8.53     -0.61
   -8   24    1     -2.72      0.65
   -6   24    1    -15.55     -1.24
   -4   24    1     -5.73     -0.49
   -2   24    1    -12.98     -0.30
    0   24    1    -20.73     -0.54
    2   24    1     -5.99     -0.45
    4   24    1    -19.74     -0.17
    6   24    1    -12.12     -2.01
    8   24    1      1.94      0.41
   10   24    1      9.61      0.18
   12   24    1     16.93     -0.01
   14   24    1     -5.11      0.04
   16   24    1      2.01      0.64
   18   24    1     -5.71      0.21
   20   24    1     10.38     -0.21
   22   24    1      1.18     -0.27
  -23   25    1      0.75      0.10
  -21   25    1    -10.67      0.21
  -19   25    1     -2.34      0.26
  -17   25    1    -10.17     -0.04
  -15   25    1    -10.64      0.07
  -13   25    1    -14.55     -0.34
  -11   25    1    -10.00     -0.26
   -9   25    1      4.79      0.34
   -7   25    1    -17.89      0.02
   -5   25    1     -1.09     -0.82
   -3   25    1     -7.44      0.58
   -1   25    1    -11.24     -0.25
    1   25    1    -12.73      0.42
    3   25    1    -12.87      0.46
    5   25    1     -9.74      0.06
    7   25    1     -7.32     -0.82
    9   25    1     -2.47      0.48
   11   25    1     -9.16      0.28
   13   25    1     -5.84      0.12
   15   25    1     -2.20      0.23
   17   25    1      3.46      0.09
   19   25    1      0.52      0.25
   21   25    1      1.52     -0.08
   23   25    1     -0.76     -0.16
  -22   26    1    -14.71      0.19
  -20   26    1    -11.15      0.26
  -18   26    1     -6.01      0.21
  -16   26    1     -1.93      0.41
  -14   26    1     -5.49      0.22
  -12   26    1     -4.23     -0.09
  -10   26    1     -7.30     -0.35
   -8   26    1    -11.69      0.24
   -6   26    1      9.21     -0.69
   -4   26    1      8.84     -0.18
   -2   26    1    -10.69      0.32
    0   26    1    -16.28      0.14
    2   26    1      0.07     -0.16
    4   26    1      2.97      0.76
    6   26    1     20.19     -1.12
    8   26    1     -9.50      0.47
   10   26    1    -10.77      0.08
   12   26    1     -0.91      0.39
   14   26    1      8.17     -0.11
   16   26    1      7.24      0.35
   18   26    1      2.16      0.26
   20   26    1     10.48      0.17
   22   26    1     -3.11      0.19
  -21   27    1      0.98     -0.15
  -19   27    1      7.91     -0.21
  -17   27    1     -5.89     -0.15
  -15   27    1     -3.83      0.18
  -13   27    1      5.65      0.20
  -11   27    1     10.42     -0.26
   -9   27    1     10.48      0.16
   -7   27    1    -17.39      0.31
   -5   27    1    -16.49     -1.59
   -3   27    1    -15.64      0.05
   -1   27    1     -7.17     -0.49
    1   27    1      8.48     -0.04
    3   27    1      1.19     -0.25
    5   27    1    -17.71     -0.79
    7   27    1     -7.30     -0.29
    9   27    1      1.08      0.96
   11   27    1     14.25      0.02
   13   27    1      8.62      0.02
   15   27    1     -1.92      0.69
   17   27    1    -12.52      0.17
   19   27    1      1.03      0.19
   21   27    1     11.10     -0.28
  -22   28    1     -3.99     -0.10
  -20   28    1     10.40     -0.06
  -18   28    1     13.15     -0.78
  -16   28    1      4.89      0.04
  -14   28    1      7.27     -0.12
  -12   28    1    -11.97      0.04
  -10   28    1      9.22      0.03
   -8   28    1     -0.60      0.22
   -6   28    1     -7.00      0.36
   -4   28    1    -16.35      0.37
   -2   28    1     -7.24      0.54
    0   28    1      4.35      0.07
    2   28    1     12.47     -0.29
    4   28    1    -17.01      0.96
    6   28    1     -7.38      0.34
    8   28    1     -9.13      0.54
   10   28    1      1.14     -0.25
   12   28    1    -15.72      0.09
   14   28    1     -2.02     -0.16
   16   28    1    -11.36     -0.07
   18   28    1     -6.31     -0.04
   20   28    1      6.33      0.04
  -21   29    1     -0.20      0.07
  -19   29    1     -0.32      0.01
  -17   29    1      2.19      0.32
  -15   29    1      1.12      0.06
  -13   29    1      0.15     -0.03
  -11   29    1      0.31      0.17
   -9   29    1     -6.71     -0.27
   -7   29    1     -5.92      0.69
   -5   29    1      6.10     -0.21
   -3   29    1     -3.25      0.01
   -1   29    1    -11.32      0.00
    1   29    1      4.96      0.01
    3   29    1      6.92      0.51
    5   29    1     -1.01      0.94
    7   29    1     -5.79      0.42
    9   29    1    -16.27      0.19
   11   29    1     -1.00     -0.11
   13   29    1    -11.70     -0.29
   15   29    1    -18.12      0.10
   17   29    1    -22.60     -0.06
   19   29    1     -8.47      0.35
   21   29    1     -2.14     -0.09
  -20   30    1     18.21      0.10
  -18   30    1     12.04     -0.53
  -16   30    1     13.21      0.08
  -14   30    1     23.27      0.11
  -12   30    1     -7.72      0.38
  -10   30    1      9.20      0.68
   -8   30    1      4.22      0.59
   -6   30    1      7.09      0.35
   -4   30    1     -3.45     -0.58
   -2   30    1     -3.12      0.20
    0   30    1     -0.09      0.12
    2   30    1     17.29     -0.36
    4   30    1     -0.30     -0.14
    6   30    1      9.85      0.20
    8   30    1      9.15      0.67
   10   30    1      8.15      0.43
   12   30    1     -5.00      0.03
   14   30    1      6.49      0.08
   16   30    1     -8.57      0.19
   18   30    1    -11.61      0.25
   20   30    1      6.26     -0.15
  -19   31    1      6.16     -0.22
  -17   31    1      6.82      0.15
  -15   31    1      6.39      0.10
  -13   31    1      0.70      0.06
  -11   31    1      5.09      0.37
   -9   31    1      0.13     -0.37
   -7   31    1     -1.66      0.50
   -5   31    1      3.74      0.83
   -3   31    1      2.15      0.36
   -1   31    1    -14.64      0.88
    1   31    1      0.97      0.16
    3   31    1      9.32      0.22
    5   31    1     -0.85      0.24
    7   31    1     -4.75     -0.23
    9   31    1     -3.76     -0.41
   11   31    1      6.36      0.03
   13   31    1     -2.64     -0.36
   15   31    1     -4.62     -0.13
   17   31    1     -7.95     -0.11
   19   31    1      4.65      0.22
  -20   32    1      6.29      0.11
  -18   32    1    -11.35      0.22
  -16   32    1     -7.02      0.38
  -14   32    1     -8.03      0.29
  -12   32    1    -12.63     -0.03
  -10   32    1      2.86      0.27
   -8   32    1     -7.24     -0.26
   -6   32    1     -0.13      0.36
   -4   32    1      1.79     -0.13
   -2   32    1     -4.27      0.24
    0   32    1      6.12      0.09
    2   32    1      9.02     -0.09
    4   32    1      0.31      0.23
    6   32    1     -1.11      0.47
    8   32    1     -3.13     -0.29
   10   32    1     -7.06      0.07
   12   32    1    -10.78     -0.62
   14   32    1    -16.68     -0.05
   16   32    1    -11.70     -0.03
   18   32    1    -13.58      0.07
  -19   33    1     -0.14      0.34
  -17   33    1     -7.47      0.41
  -15   33    1      8.80      0.14
  -13   33    1     10.02      0.02
  -11   33    1      8.46     -0.10
   -9   33    1     -3.62     -0.05
   -7   33    1      3.21      0.13
   -5   33    1      7.53      0.07
   -3   33    1      1.10     -0.42
   -1   33    1    -19.81      0.44
    1   33    1     -1.58     -0.22
    3   33    1      8.52      0.16
    5   33    1      8.24     -0.22
    7   33    1     10.45      0.44
    9   33    1      4.42      0.17
   11   33    1      6.95      0.44
   13   33    1      8.18     -0.01
   15   33    1      4.96     -0.05
   17   33    1    -10.66      0.39
   19   33    1      0.40      0.09
  -18   34    1     -5.90      0.20
  -16   34    1      8.01      0.27
  -14   34    1      0.33      0.22
  -12   34    1     -3.08     -0.39
  -10   34    1     -4.64      0.00
   -8   34    1      1.08     -0.67
   -6   34    1     12.04     -0.25
   -4   34    1     26.28      0.30
   -2   34    1     -7.54      0.34
    0   34    1     -1.15      0.43
    2   34    1      2.15      0.29
    4   34    1     18.88     -0.54
    6   34    1     13.04      0.08
    8   34    1     13.79     -0.44
   10   34    1     -4.39      0.72
   12   34    1      0.36     -0.45
   14   34    1     -2.65     -0.24
   16   34    1     13.08     -0.23
   18   34    1     -0.12     -0.13
  -17   35    1    -15.24      0.11
  -15   35    1     -2.09      0.11
  -13   35    1     -5.40      0.47
  -11   35    1     -2.99     -0.10
   -9   35    1    -11.52     -0.18
   -7   35    1      1.84     -0.20
   -5   35    1      9.13     -0.19
   -3   35    1     -0.23     -0.20
   -1   35    1    -13.46      0.02
    1   35    1      0.06     -0.45
    3   35    1     -2.95      0.05
    5   35    1      1.41     -1.01
    7   35    1      3.54     -0.02
    9   35    1     -3.28     -0.15
   11   35    1     -6.98      0.00
   13   35    1     -5.80      0.10
   15   35    1      0.99     -0.17
   17   35    1     -5.31      0.38
  -18   36    1     -5.64      0.02
  -16   36    1     -3.47      0.07
  -14   36    1     -1.68      0.07
  -12   36    1     -5.95      0.20
  -10   36    1    -14.72      0.68
   -8   36    1     -6.40      0.70
   -6   36    1    -15.95     -0.27
   -4   36    1     -1.62     -0.33
   -2   36    1    -20.43     -0.65
    0   36    1      2.77     -0.15
    2   36    1     -2.27      0.38
    4   36    1     -4.92     -0.06
    6   36    1    -10.39      0.72
    8   36    1      5.88     -0.37
   10   36    1     -8.20      0.63
   12   36    1     -6.82      0.05
   14   36    1    -11.87      0.12
   16   36    1     -2.05      0.15
  -17   37    1      7.05      0.21
  -15   37    1      8.12     -0.01
  -13   37    1      2.15      0.00
  -11   37    1      4.44     -0.20
   -9   37    1     -0.39      0.07
   -7   37    1      1.77     -0.10
   -5   37    1      4.81     -0.37
   -3   37    1     10.68      0.27
   -1   37    1     13.62     -0.38
    1   37    1     26.83     -0.21
    3   37    1     13.72     -0.12
    5   37    1      4.04     -0.39
    7   37    1      6.36      0.75
    9   37    1     13.77      0.28
   11   37    1     13.59      0.04
   13   37    1      3.91      0.24
   15   37    1     -1.71     -0.40
  -16   38    1      3.84      0.06
  -14   38    1     11.18      0.21
  -12   38    1    -13.23      0.39
  -10   38    1    -20.04     -0.39
   -8   38    1     -5.57      0.62
   -6   38    1     -4.35      0.37
   -4   38    1     10.49      0.22
   -2   38    1     -4.63     -0.09
    0   38    1     -7.65     -0.36
    2   38    1     -3.71     -0.34
    4   38    1     -2.24     -0.83
    6   38    1     -2.30     -0.92
    8   38    1      1.29     -0.58
   10   38    1     -4.31      0.47
   12   38    1     -0.40      0.06
   14   38    1      8.11      0.16
   16   38    1      5.28      0.17
  -15   39    1     -9.23      0.19
  -13   39    1    -13.76      0.17
  -11   39    1     -9.79      0.70
   -9   39    1     -0.68      0.86
   -7   39    1    -12.49      0.74
   -5   39    1    -20.02     -0.07
   -3   39    1     -9.50      0.13
   -1   39    1    -11.07     -0.32
    1   39    1     -5.83      0.23
    3   39    1    -15.16     -0.28
    5   39    1    -20.23      0.23
    7   39    1     -6.90      0.15
    9   39    1      7.52      0.15
   11   39    1      7.17     -0.08
   13   39    1     -3.72      0.25
   15   39    1    -16.10     -0.07
  -14   40    1      3.62     -0.29
  -12   40    1      0.60     -0.26
  -10   40    1      8.24      0.25
   -8   40    1      8.92      0.96
   -6   40    1      1.02      0.11
   -4   40    1      9.08     -0.20
   -2   40    1     19.13      0.19
    0   40    1      8.66      0.03
    2   40    1     15.96      0.37
    4   40    1     -0.69      0.26
    6   40    1      2.58     -0.13
    8   40    1      4.71      0.22
   10   40    1     14.13     -0.01
   12   40    1     14.18      0.19
   14   40    1      2.07      0.11
  -13   41    1     -2.74      0.11
  -11   41    1     -4.29     -0.13
   -9   41    1     12.38     -1.18
   -7   41    1     -6.17     -0.33
   -5   41    1    -10.46      0.55
   -3   41    1      9.70      0.38
   -1   41    1      3.05      0.21
    1   41    1      1.55      0.14
    3   41    1     -5.62     -0.37
    5   41    1    -18.78      0.07
    7   41    1    -12.67     -0.48
    9   41    1      7.02      0.89
   11   41    1      7.07     -0.29
   13   41    1      7.68      0.00
  -12   42    1     -1.61      0.08
  -10   42    1     -2.15      0.76
   -8   42    1      6.63     -0.55
   -6   42    1      3.52      0.07
   -4   42    1      1.79     -0.01
   -2   42    1     -8.77      0.42
    0   42    1    -22.36      0.21
    2   42    1    -14.97      0.13
    4   42    1    -17.07      0.02
    6   42    1      3.89     -0.36
    8   42    1     -1.58      0.33
   10   42    1     -3.52      0.06
   12   42    1      6.08     -0.06
  -11   43    1      6.75      0.25
   -9   43    1     11.48     -0.44
   -7   43    1      1.11     -1.12
   -5   43    1     -2.98      0.24
   -3   43    1     11.69      0.43
   -1   43    1      6.57      0.54
    1   43    1     12.81      0.39
    3   43    1      6.21      0.06
    5   43    1     -7.79      0.22
    7   43    1    -11.01     -0.31
    9   43    1     -5.20      0.42
   11   43    1     -6.96     -0.32
  -10   44    1     -2.54      0.22
   -8   44    1      7.67     -2.13
   -6   44    1    -14.57      0.15
   -4   44    1     -2.90     -0.56
   -2   44    1     -9.91     -0.37
    0   44    1      9.60      0.20
    2   44    1     -3.64      0.62
    4   44    1    -16.41      0.68
    6   44    1    -13.13     -0.31
    8   44    1     -8.69      0.43
   10   44    1    -15.64      0.32
   -9   45    1     -7.13     -0.13
   -7   45    1     -4.99     -1.06
   -5   45    1     -9.65      0.50
   -3   45    1     -9.21      0.35
   -1   45    1    -10.48      0.16
    1   45    1      8.61      0.00
    3   45    1     -4.56     -0.39
    5   45    1     -8.97     -0.14
    7   45    1    -11.61     -0.36
   -6   46    1     -6.64      0.33
   -4   46    1     10.77     -0.13
   -2   46    1     -9.89      0.01
    0   46    1     19.16     -0.15
    2   46    1      4.65     -0.07
    4   46    1     10.48      0.16
    6   46    1      2.65     -0.26
   -3   47    1     -4.30      0.11
   -1   47    1    -13.81      0.11
    1   47    1      4.70      0.34
    3   47    1     -6.47     -0.31
  -26    0    2      3.04     -2.67
  -24    0    2      4.15     -0.76
  -22    0    2      1.37      0.19
  -20    0    2     15.76     -0.90
  -18    0    2     15.21      0.11
  -16    0    2    -18.35      0.65
  -14    0    2     14.16     -0.19
  -12    0    2     54.72     -0.23
  -10    0    2     61.96     -0.28
   -8    0    2     54.29     -0.33
   -6    0    2      6.75      0.12
   -4    0    2    -11.12      0.63
    2    0    2    225.92     -0.15
    4    0    2      6.22     -0.61
    6    0    2    -96.63      0.35
    8    0    2     23.19      0.34
   10    0    2      8.33      0.50
   12    0    2     19.67      0.02
   14    0    2     -7.93     -0.24
   16    0    2    -28.32     -0.09
   18    0    2      0.08     -0.18
   20    0    2      4.03      1.35
   22    0    2      2.59     -0.54
   24    0    2      0.88     -0.73
   26    0    2      6.73      0.70
  -27    1    2     -1.58      0.19
  -25    1    2      8.23     -1.13
  -23    1    2      3.71     -0.58
  -21    1    2     -1.92      0.54
  -19    1    2     -5.03      0.49
  -17    1    2     14.83      0.41
  -15    1    2      6.71     -0.42
  -13    1    2    -12.54     -0.64
  -11    1    2    -31.46      0.26
   -9    1    2    -31.68      0.33
   -7    1    2     13.24      0.62
   -5    1    2    -50.59     -0.16
   -3    1    2     -1.34     -0.44
    3    1    2    -46.45     -0.08
    5    1    2     25.46      0.56
    7    1    2    -37.22      0.44
    9    1    2     15.51      0.30
   11    1    2    -10.54     -0.13
   13    1    2    -11.88      0.16
   15    1    2      4.79     -0.39
   17    1    2     16.24      0.08
   19    1    2     -7.88     -0.08
   21    1    2     -3.70      0.19
   23    1    2      0.34      0.40
   25    1    2      0.50      0.14
  -26    2    2     12.08     -0.77
  -24    2    2     11.51     -0.03
  -22    2    2      7.11     -0.85
  -20    2    2     -5.36     -0.37
  -18    2    2     -2.63     -0.43
  -16    2    2      1.94     -0.06
  -14    2    2      1.30      0.25
  -12    2    2    -29.15      0.39
  -10    2    2    -47.52      0.15
   -8    2    2    -42.43      0.28
   -6    2    2    -95.11     -0.41
   -4    2    2    -79.03     -0.14
   -2    2    2   -159.27     -0.41
    2    2    2   -128.97     -0.15
    4    2    2    -24.20     -0.36
    6    2    2    -49.87      0.12
    8    2    2      8.47      0.04
   10    2    2    -24.73     -0.40
   12    2    2    -12.82     -0.09
   14    2    2      2.80     -0.47
   16    2    2     12.16      0.21
   18    2    2      0.72     -0.49
   20    2    2    -12.18      0.81
   22    2    2     -0.98      0.25
   24    2    2      9.43      0.10
   26    2    2      2.26      0.45
  -27    3    2     -0.21     -1.17
  -25    3    2      0.83     -2.74
  -23    3    2     -5.51      0.35
  -21    3    2     -9.87      0.46
  -19    3    2      8.01     -0.33
  -17    3    2      0.46     -0.12
  -15    3    2     -5.88     -0.37
  -13    3    2     19.25     -0.16
  -11    3    2     16.29     -0.11
   -9    3    2      0.15      0.19
   -7    3    2     51.89      0.03
   -5    3    2     47.39     -0.18
   -3    3    2     74.00     -0.15
   -1    3    2    101.40      0.08
    1    3    2    163.33     -0.17
    3    3    2    -21.83      0.01
    5    3    2     57.71      0.58
    7    3    2     32.40      0.09
    9    3    2     22.17      0.10
   11    3    2    -13.71     -0.22
   13    3    2      4.31     -0.05
   15    3    2    -13.17      0.16
   17    3    2     -6.19      0.10
   19    3    2      1.84      0.07
   21    3    2      2.45     -0.07
   23    3    2     -5.12     -0.58
   25    3    2      9.49      0.13
  -26    4    2      0.58      0.25
  -24    4    2     -3.98      0.73
  -22    4    2     11.25     -0.63
  -20    4    2     -0.68     -0.37
  -18    4    2     -5.02      0.06
  -16    4    2      7.40     -0.42
  -14    4    2      1.96     -0.40
  -12    4    2     14.49      0.12
  -10    4    2     37.25      0.15
   -8    4    2     13.86      0.57
   -6    4    2    -88.40      0.25
   -4    4    2     -2.30     -0.07
   -2    4    2    126.01     -0.43
    0    4    2    -52.69      0.13
    2    4    2    -32.42      0.52
    4    4    2      2.47      0.22
    6    4    2    -26.58      0.73
    8    4    2     10.19      0.30
   10    4    2     38.24     -0.43
   12    4    2     22.16      0.24
   14    4    2      1.30     -0.45
   16    4    2     13.04      0.11
   18    4    2     -0.53      0.03
   20    4    2      5.80      0.15
   22    4    2     -0.56      0.04
   24    4    2     11.19     -0.02
   26    4    2     -8.99     -0.20
  -27    5    2     12.28     -0.44
  -25    5    2      0.85     -0.77
  -23    5    2      5.13     -0.13
  -21    5    2     -9.63     -0.01
  -19    5    2      2.32      0.00
  -17    5    2     -0.90     -0.54
  -15    5    2     -5.17      0.59
  -13    5    2    -11.86      0.89
  -11    5    2    -23.33      0.20
   -9    5    2    -29.34      0.96
   -7    5    2    -73.84     -0.16
   -5    5    2    -60.50     -0.42
   -3    5    2    -14.97     -0.24
   -1    5    2    -11.97      0.07
    1    5    2   -128.43      0.63
    3    5    2    -68.85     -0.03
    5    5    2     23.40      0.46
    7    5    2      7.37     -0.05
    9    5    2      1.20     -0.05
   11    5    2    -14.21      0.10
   13    5    2      8.77     -0.25
   15    5    2      2.46      0.18
   17    5    2      6.07     -0.20
   19    5    2     -2.41     -0.44
   21    5    2      0.14      0.20
   23    5    2     -7.97      0.36
   25    5    2      1.63      0.22
  -26    6    2      8.36     -0.49
  -24    6    2      2.93      0.03
  -22    6    2      2.57      0.45
  -20    6    2     -7.82     -0.80
  -18    6    2     -9.86      0.45
  -16    6    2    -12.68      0.32
  -14    6    2    -12.59      0.50
  -12    6    2    -12.53      0.36
  -10    6    2    -40.28     -0.29
   -8    6    2    -14.34     -0.17
   -6    6    2     35.51      0.39
   -4    6    2     12.49      0.32
   -2    6    2     94.86      0.67
    0    6    2   -154.15      0.32
    2    6    2    -23.80      0.53
    4    6    2      1.59      0.03
    6    6    2     78.35      0.48
    8    6    2     -0.37     -0.09
   10    6    2    -34.05      0.07
   12    6    2    -13.87     -0.06
   14    6    2      2.75      0.03
   16    6    2     -6.16      0.21
   18    6    2    -18.88      0.06
   20    6    2      8.27     -0.37
   22    6    2    -10.01     -0.71
   24    6    2     18.53     -0.78
   26    6    2     11.14      0.15
  -27    7    2      6.46     -0.27
  -25    7    2     -8.93     -0.62
  -23    7    2     11.29     -0.99
  -21    7    2      4.13      0.17
  -19    7    2     11.28      0.40
  -17    7    2     17.33     -0.21
  -15    7    2     21.13      0.20
  -13    7    2     -1.58      0.36
  -11    7    2     13.34     -0.51
   -9    7    2     58.01     -0.31
   -7    7    2    -15.90     -1.06
   -5    7    2     12.38     -0.53
   -3    7    2    103.14     -0.14
   -1    7    2     90.12     -0.25
    1    7    2    -61.78      0.87
    3    7    2     78.15      0.03
    5    7    2     -0.48      0.47
    7    7    2    -19.10     -0.14
    9    7    2      4.12     -0.06
   11    7    2     15.68      0.26
   13    7    2     -3.16     -0.01
   15    7    2     10.29      0.14
   17    7    2     18.84      0.03
   19    7    2      8.15     -0.28
   21    7    2     13.39     -0.16
   23    7    2     -0.42      0.12
   25    7    2      2.73      0.42
  -26    8    2     11.14     -0.51
  -24    8    2      6.04     -1.08
  -22    8    2     16.75     -0.12
  -20    8    2      6.54     -0.55
  -18    8    2      3.99      0.12
  -16    8    2     -6.60      0.19
  -14    8    2     -5.59      0.40
  -12    8    2      9.64     -0.01
  -10    8    2      2.43     -0.21
   -8    8    2     -5.27     -0.50
   -6    8    2     16.77      0.21
   -4    8    2    -38.82     -0.11
   -2    8    2     52.69      1.03
    0    8    2    -61.32      0.47
    2    8    2     59.17      0.15
    4    8    2    -12.41     -0.47
    6    8    2      3.04      0.22
    8    8    2    -34.13     -0.37
   10    8    2     -6.93      0.67
   12    8    2     14.01     -0.21
   14    8    2     10.22     -0.13
   16    8    2     -4.84     -0.23
   18    8    2     -3.51      0.29
   20    8    2     16.60      0.24
   22    8    2      4.32      0.44
   24    8    2     -0.72      0.18
   26    8    2      1.92      0.46
  -27    9    2      2.48      0.00
  -25    9    2      3.19     -0.17
  -23    9    2      8.66      0.24
  -21    9    2     -8.67      0.59
  -19    9    2     -4.75      0.14
  -17    9    2    -16.01      0.53
  -15    9    2    -19.22     -0.36
  -13    9    2    -28.65     -0.13
  -11    9    2    -57.86     -0.42
   -9    9    2    -24.72     -0.13
   -7    9    2    -17.08     -0.06
   -5    9    2      3.91      0.13
   -3    9    2    -29.44      0.35
   -1    9    2    -43.76      0.31
    1    9    2    -65.01      0.72
    3    9    2     48.08      0.02
    5    9    2    -45.84      0.47
    7    9    2    -18.22     -0.22
    9    9    2    -43.84      0.33
   11    9    2    -15.89      0.08
   13    9    2    -18.73     -0.55
   15    9    2     -1.52     -0.09
   17    9    2     -8.05      0.30
   19    9    2     -3.83      0.14
   21    9    2      2.60      0.11
   23    9    2     -9.31     -0.52
   25    9    2      9.71     -0.10
  -26   10    2     -3.03     -0.04
  -24   10    2     -3.44     -0.79
  -22   10    2     13.28     -0.02
  -20   10    2     -2.64      0.00
  -18   10    2     -9.66     -0.24
  -16   10    2     12.63      0.15
  -14   10    2     10.02      0.05
  -12   10    2     -1.64     -0.17
  -10   10    2     27.02     -0.62
   -8   10    2     23.21     -0.81
   -6   10    2     23.31     -0.27
   -4   10    2     13.03     -0.39
   -2   10    2     35.57      0.48
    0   10    2    -20.50     -0.46
    2   10    2     48.50     -0.01
    4   10    2     14.85     -0.04
    6   10    2    -37.95      0.46
    8   10    2    -39.15      0.10
   10   10    2     12.09      0.33
   12   10    2      0.16     -0.04
   14   10    2      4.27      0.35
   16   10    2      8.01      0.00
   18   10    2      3.78      0.62
   20   10    2     -4.65      0.26
   22   10    2     11.61      0.07
   24   10    2     -5.31      0.41
   26   10    2     -0.42      0.45
  -25   11    2      1.95     -0.50
  -23   11    2      6.56      0.02
  -21   11    2      5.11      0.17
  -19   11    2      8.71     -0.28
  -17   11    2     15.38      0.01
  -15   11    2     13.78     -0.34
  -13   11    2     28.19     -0.13
  -11   11    2    -18.11     -0.15
   -9   11    2     -0.01     -0.41
   -7   11    2     54.53     -0.25
   -5   11    2     90.22      0.28
   -3   11    2     12.32      0.17
   -1   11    2    -43.53      0.48
    1   11    2    -16.14      0.05
    3   11    2     50.45     -0.26
    5   11    2     21.03      0.14
    7   11    2     34.48     -0.63
    9   11    2    -28.56      0.08
   11   11    2      1.16      0.46
   13   11    2      1.07     -0.38
   15   11    2      6.16     -0.52
   17   11    2     12.86     -0.07
   19   11    2      6.29      0.14
   21   11    2     13.25      0.54
   23   11    2     -3.79      0.46
   25   11    2      0.75      0.50
  -26   12    2     -8.27      0.22
  -24   12    2      4.60      0.36
  -22   12    2     12.23      0.32
  -20   12    2      6.70     -0.21
  -18   12    2    -22.26      0.03
  -16   12    2    -23.78      0.18
  -14   12    2    -15.43     -0.66
  -12   12    2    -25.20     -0.05
  -10   12    2     -9.31     -0.51
   -8   12    2    -30.72      0.30
   -6   12    2    -80.76      0.72
   -4   12    2    -74.18      0.16
   -2   12    2    -18.03      0.52
    0   12    2     57.04     -0.30
    2   12    2     30.83      0.31
    4   12    2    -13.71      0.53
    6   12    2    -65.18      0.08
    8   12    2    -26.07     -0.01
   10   12    2     18.27     -0.33
   12   12    2     -5.36     -0.33
   14   12    2      3.56     -0.47
   16   12    2     -9.69     -0.60
   18   12    2      4.43     -0.15
   20   12    2     -1.47     -0.07
   22   12    2     14.70     -0.20
   24   12    2      0.76     -0.10
  -25   13    2     -3.89     -0.02
  -23   13    2     -5.59      0.17
  -21   13    2     -3.31      0.39
  -19   13    2    -21.19      0.62
  -17   13    2     -4.27     -0.03
  -15   13    2     -8.52     -0.19
  -13   13    2     -5.11     -0.55
  -11   13    2    -15.02      0.17
   -9   13    2     11.83      0.84
   -7   13    2      0.26      0.40
   -5   13    2      4.50      0.09
   -3   13    2     -3.87      0.08
   -1   13    2    -55.83      0.19
    1   13    2    -30.20     -0.22
    3   13    2      7.97      0.21
    5   13    2     13.94     -0.08
    7   13    2     -7.74      0.05
    9   13    2    -12.17      0.17
   11   13    2     12.12      0.34
   13   13    2     -6.17     -0.18
   15   13    2    -10.33     -0.23
   17   13    2      5.51     -0.25
   19   13    2    -16.43     -0.28
   21   13    2      2.48      0.29
   23   13    2     -2.46      0.23
   25   13    2     -2.89      0.11
  -26   14    2     -9.53      0.16
  -24   14    2      6.04      0.55
  -22   14    2      4.35      0.16
  -20   14    2      9.36     -0.25
  -18   14    2     11.83      0.22
  -16   14    2     12.19      0.38
  -14   14    2     24.36     -0.34
  -12   14    2     23.65      0.32
  -10   14    2      5.58     -0.39
   -8   14    2     10.68     -0.17
   -6   14    2     11.96      0.38
   -4   14    2     12.95     -0.05
   -2   14    2     -6.57      0.59
    0   14    2     45.26      0.13
    2   14    2    -11.01     -0.17
    4   14    2     18.29      0.01
    6   14    2     28.63     -0.63
    8   14    2     15.19     -0.51
   10   14    2     -7.15     -0.29
   12   14    2     -6.36      0.20
   14   14    2     11.32     -0.24
   16   14    2     -1.94     -0.59
   18   14    2      8.45     -0.26
   20   14    2     -5.81      0.15
   22   14    2     10.23      0.12
   24   14    2      3.95      0.34
  -25   15    2      0.79      0.01
  -23   15    2     -6.49      0.34
  -21   15    2      4.34     -0.17
  -19   15    2     -1.72      0.28
  -17   15    2      6.58     -0.15
  -15   15    2      7.46      0.05
  -13   15    2     -3.67     -0.11
  -11   15    2    -18.50     -0.04
   -9   15    2     -4.62      0.01
   -7   15    2    -30.06      0.18
   -5   15    2    -30.48     -0.03
   -3   15    2      8.14      0.40
   -1   15    2    -18.75      0.11
    1   15    2      9.82     -0.01
    3   15    2     24.26      0.94
    5   15    2     54.56     -0.33
    7   15    2     13.04     -0.35
    9   15    2     19.84     -0.65
   11   15    2      1.40      0.11
   13   15    2      9.52      0.05
   15   15    2     11.01     -0.26
   17   15    2      9.48     -0.61
   19   15    2      3.11     -1.18
   21   15    2     14.46      0.12
   23   15    2     -1.54     -0.03
   25   15    2     -2.05     -0.13
  -26   16    2     -2.63     -0.17
  -24   16    2     -1.49      0.24
  -22   16    2    -12.21      0.15
  -20   16    2    -15.07      0.20
  -18   16    2     -5.40      0.09
  -16   16    2    -17.63      0.02
  -14   16    2    -21.33     -0.34
  -12   16    2      8.24      0.00
  -10   16    2     12.66      0.34
   -8   16    2     -7.41      0.11
   -6   16    2    -52.55      0.22
   -4   16    2    -39.95     -0.02
   -2   16    2    -34.03      0.44
    0   16    2      9.66      0.17
    2   16    2    -17.63      0.05
    4   16    2    -19.67      0.06
    6   16    2    -26.85      0.14
    8   16    2    -10.13      0.17
   10   16    2     -2.09      0.20
   12   16    2     10.91     -0.16
   14   16    2     -7.56     -0.04
   16   16    2    -10.41     -0.11
   18   16    2     -6.79     -0.17
   20   16    2     -5.78      0.38
   22   16    2      3.47      0.23
   24   16    2     -4.43      0.17
  -25   17    2      6.93     -0.30
  -23   17    2      2.69      0.17
  -21   17    2     -1.32     -0.13
  -19   17    2      3.16      0.22
  -17   17    2      7.07      0.06
  -15   17    2      9.39      0.05
  -13   17    2      6.71      0.07
  -11   17    2      6.24      0.27
   -9   17    2      8.62      0.17
   -7   17    2     10.71      0.81
   -5   17    2    -10.37     -0.30
   -3   17    2    -20.30      0.18
   -1   17    2    -30.67      0.71
    1   17    2     -7.18      0.78
    3   17    2    -46.16      1.31
    5   17    2      8.32      0.13
    7   17    2      0.58      0.64
    9   17    2      7.86     -0.11
   11   17    2    -29.03     -0.29
   13   17    2     -7.23      0.26
   15   17    2     -0.77     -0.10
   17   17    2     -9.29     -0.02
   19   17    2     -3.55     -0.37
   21   17    2      0.99      0.15
   23   17    2     -2.58     -0.13
   25   17    2      1.48      0.22
  -24   18    2      2.70      0.14
  -22   18    2      2.63      0.11
  -20   18    2     -2.28      0.03
  -18   18    2     11.14     -0.08
  -16   18    2     15.62      0.37
  -14   18    2     15.42      0.65
  -12   18    2      8.78      0.46
  -10   18    2      0.88      0.28
   -8   18    2      5.22     -1.01
   -6   18    2      2.73     -0.24
   -4   18    2     37.49      0.88
   -2   18    2     12.63      1.18
    0   18    2    -14.77      0.56
    2   18    2     32.85     -0.34
    4   18    2     59.09     -0.84
    6   18    2     31.79     -0.01
    8   18    2     27.08     -0.43
   10   18    2     -1.61     -0.15
   12   18    2      6.75      0.00
   14   18    2      1.37      0.11
   16   18    2      9.33     -0.14
   18   18    2     -8.07     -0.57
   20   18    2      4.18     -0.10
   22   18    2      2.60      0.11
   24   18    2     -2.44      0.03
  -25   19    2     -7.32     -0.21
  -23   19    2     -2.46     -0.15
  -21   19    2     -1.96     -0.06
  -19   19    2      6.55      0.06
  -17   19    2     -0.24      0.23
  -15   19    2     -2.76      0.39
  -13   19    2     -8.87      0.18
  -11   19    2      3.93      0.46
   -9   19    2     -2.10     -0.35
   -7   19    2      3.95      0.20
   -5   19    2    -19.97     -0.07
   -3   19    2    -10.16     -0.30
   -1   19    2      0.53     -0.41
    1   19    2     22.26     -0.06
    3   19    2    -24.26      0.16
    5   19    2    -19.16      0.49
    7   19    2    -22.12      1.09
    9   19    2     -1.49      0.33
   11   19    2     -9.90     -0.33
   13   19    2     -9.52     -0.07
   15   19    2     -5.28     -0.27
   17   19    2     -5.10     -0.16
   19   19    2      5.46      0.06
   21   19    2     -2.63      0.12
   23   19    2     -6.26      0.29
  -24   20    2      1.83      0.08
  -22   20    2     24.13      0.31
  -20   20    2      0.90      0.00
  -18   20    2     -6.77     -0.36
  -16   20    2     -9.12     -0.23
  -14   20    2      0.92      0.40
  -12   20    2     -9.75      0.12
  -10   20    2     -6.92      0.03
   -8   20    2     -4.55     -0.18
   -6   20    2     -2.10      0.57
   -4   20    2     -5.40      0.44
   -2   20    2     -4.61      0.36
    0   20    2    -21.83      0.24
    2   20    2     -4.67      0.11
    4   20    2    -17.54      0.26
    6   20    2    -37.04      1.13
    8   20    2     -9.69      0.92
   10   20    2    -13.61     -0.25
   12   20    2    -11.31     -0.15
   14   20    2    -15.29      0.03
   16   20    2     -8.07     -0.37
   18   20    2    -21.29     -0.23
   20   20    2     -3.44      0.00
   22   20    2      1.31     -0.05
   24   20    2      4.36     -0.03
  -23   21    2      8.65     -0.09
  -21   21    2      7.49      0.37
  -19   21    2      3.35      0.40
  -17   21    2     -2.23      0.20
  -15   21    2     12.66      0.01
  -13   21    2     -7.03     -0.57
  -11   21    2     -7.95      0.59
   -9   21    2     -6.84     -0.60
   -7   21    2     17.50     -0.78
   -5   21    2     11.72      0.56
   -3   21    2     43.03     -0.09
   -1   21    2      5.82     -0.25
    1   21    2      4.22     -0.14
    3   21    2     27.76     -1.00
    5   21    2     12.68      0.84
    7   21    2     14.26      0.33
    9   21    2      7.82     -0.12
   11   21    2      7.23      0.05
   13   21    2    -13.84     -0.21
   15   21    2     -1.22     -0.27
   17   21    2      4.15     -0.32
   19   21    2      4.83      0.52
   21   21    2     -5.48      0.08
   23   21    2      3.17      0.27
  -24   22    2    -14.37     -0.16
  -22   22    2     23.95      0.02
  -20   22    2      7.05     -0.03
  -18   22    2      2.92      0.19
  -16   22    2     -4.60     -0.17
  -14   22    2      1.36     -0.02
  -12   22    2    -15.15     -0.05
  -10   22    2     -1.87     -0.07
   -8   22    2     -4.54     -0.23
   -6   22    2     19.42      0.16
   -4   22    2     11.27     -0.47
   -2   22    2     34.62     -0.50
    0   22    2     12.18     -0.32
    2   22    2      2.99     -0.88
    4   22    2      2.32     -0.63
    6   22    2     -7.91      0.10
    8   22    2     -4.03      0.57
   10   22    2     -2.63      0.35
   12   22    2     -2.48      0.56
   14   22    2      2.80      0.01
   16   22    2     11.88     -0.25
   18   22    2      5.29      0.13
   20   22    2      3.81      0.34
   22   22    2     -0.15      0.45
  -23   23    2      6.91      0.04
  -21   23    2      4.56      0.06
  -19   23    2     -6.58      0.13
  -17   23    2    -13.77     -0.31
  -15   23    2      0.42      0.00
  -13   23    2    -10.74     -0.28
  -11   23    2    -15.55      0.42
   -9   23    2    -18.01     -0.13
   -7   23    2     -5.17     -0.02
   -5   23    2     -7.70      0.48
   -3   23    2     24.39     -0.73
   -1   23    2    -12.07     -0.17
    1   23    2    -30.55      0.22
    3   23    2      2.54     -0.45
    5   23    2    -26.54     -0.10
    7   23    2    -17.12     -1.06
    9   23    2    -19.80      0.69
   11   23    2      7.95      0.46
   13   23    2     -0.57      0.09
   15   23    2      7.96      0.03
   17   23    2      5.26     -0.53
   19   23    2      1.77      0.49
   21   23    2      3.26     -0.01
   23   23    2     12.95      0.22
  -24   24    2     -7.59      0.03
  -22   24    2     10.79      0.24
  -20   24    2     -2.09      0.12
  -18   24    2     -9.64      0.22
  -16   24    2    -18.29     -0.04
  -14   24    2    -11.77     -0.17
  -12   24    2    -19.99     -0.17
  -10   24    2      4.80     -0.05
   -8   24    2    -12.88     -0.38
   -6   24    2    -13.68      0.26
   -4   24    2    -10.72      0.24
   -2   24    2     28.02     -0.35
    0   24    2      2.86     -0.07
    2   24    2     -1.24     -0.30
    4   24    2      0.46      1.01
    6   24    2     -0.37      1.27
    8   24    2     -0.41     -0.26
   10   24    2     11.96     -0.28
   12   24    2      5.51      0.32
   14   24    2      6.69     -0.15
   16   24    2     16.05     -0.14
   18   24    2     15.68      0.00
   20   24    2     12.59      0.16
   22   24    2      9.50      0.08
  -23   25    2      3.97     -0.09
  -21   25    2     -2.28     -0.14
  -19   25    2     -8.91      0.42
  -17   25    2     -5.66     -0.06
  -15   25    2     -7.05     -0.01
  -13   25    2      2.73     -0.35
  -11   25    2      1.87      0.24
   -9   25    2      2.95      0.08
   -7   25    2      7.08      0.41
   -5   25    2     18.18      0.19
   -3   25    2     26.88     -0.85
   -1   25    2      7.67      0.16
    1   25    2    -10.95      0.17
    3   25    2     19.86     -0.49
    5   25    2     15.29     -0.79
    7   25    2      3.40     -1.39
    9   25    2    -15.82      0.99
   11   25    2      3.04      0.54
   13   25    2     14.24     -0.05
   15   25    2     15.09     -0.11
   17   25    2     11.98     -0.25
   19   25    2     -2.32      0.14
   21   25    2      3.12     -0.06
  -22   26    2    -15.09     -0.18
  -20   26    2     -2.94     -0.13
  -18   26    2      0.70      0.06
  -16   26    2      0.88     -0.03
  -14   26    2      1.16      0.04
  -12   26    2     -6.65     -0.14
  -10   26    2      5.94      0.11
   -8   26    2      0.50      0.48
   -6   26    2    -15.17     -0.02
   -4   26    2     -3.74     -0.04
   -2   26    2     10.99      0.01
    0   26    2    -13.97      0.23
    2   26    2      1.48     -0.05
    4   26    2     -4.57     -0.44
    6   26    2    -11.09     -1.00
    8   26    2    -16.54      0.03
   10   26    2     -4.24      0.28
   12   26    2     -7.38      0.11
   14   26    2      1.76     -0.23
   16   26    2      6.47     -0.42
   18   26    2      2.33     -0.31
   20   26    2      5.92      0.03
   22   26    2      4.03      0.37
  -21   27    2    -10.14     -0.08
  -19   27    2    -10.75      0.17
  -17   27    2     -1.71     -0.29
  -15   27    2    -12.06      0.18
  -13   27    2      0.97     -0.30
  -11   27    2    -11.31      0.02
   -9   27    2     -0.92     -0.58
   -7   27    2    -19.88     -0.34
   -5   27    2    -11.57      0.43
   -3   27    2    -10.48     -0.02
   -1   27    2     -8.62      0.23
    1   27    2    -14.41      0.39
    3   27    2      3.78      0.46
    5   27    2      5.37      1.09
    7   27    2    -14.17     -0.17
    9   27    2    -11.81     -0.46
   11   27    2     -4.49      0.11
   13   27    2      9.50      0.10
   15   27    2     -0.63     -0.12
   17   27    2      5.79     -0.10
   19   27    2     -5.16     -0.13
   21   27    2      7.86     -0.02
  -22   28    2     -1.83      0.09
  -20   28    2      3.65      0.08
  -18   28    2     -4.01     -0.04
  -16   28    2     -0.88     -0.20
  -14   28    2     -2.37     -0.02
  -12   28    2     16.72      0.12
  -10   28    2     15.20      0.03
   -8   28    2     17.40      0.24
   -6   28    2     -6.37      0.07
   -4   28    2      3.46      0.02
   -2   28    2      3.90     -0.23
    0   28    2      6.69     -0.42
    2   28    2     16.37     -0.32
    4   28    2      2.39      0.21
    6   28    2     -8.50      0.00
    8   28    2    -11.42      0.96
   10   28    2      3.29     -0.14
   12   28    2      3.89     -0.32
   14   28    2     -3.96     -0.28
   16   28    2    -14.97     -0.15
   18   28    2    -13.16     -0.21
   20   28    2     -7.87     -0.29
  -21   29    2     -3.86      0.19
  -19   29    2      9.28      0.02
  -17   29    2     18.09     -0.60
  -15   29    2      7.95     -0.18
  -13   29    2     15.24     -0.46
  -11   29    2      1.29     -0.55
   -9   29    2     30.58     -0.24
   -7   29    2      5.35     -0.04
   -5   29    2     -4.23     -0.02
   -3   29    2      0.99     -0.10
   -1   29    2      7.93     -0.47
    1   29    2     10.38     -0.03
    3   29    2     10.42      0.19
    5   29    2     -7.54      0.47
    7   29    2    -14.31      0.91
    9   29    2      7.38     -0.16
   11   29    2     -2.49      0.16
   13   29    2     -2.61     -0.06
   15   29    2    -20.01     -0.25
   17   29    2     -8.65      0.02
   19   29    2    -11.29     -0.16
   21   29    2      1.43      0.17
  -20   30    2    -11.00     -0.19
  -18   30    2     -3.98     -0.66
  -16   30    2     10.76     -0.44
  -14   30    2     -1.06     -0.30
  -12   30    2      0.06      0.12
  -10   30    2    -15.78     -0.06
   -8   30    2     -2.19     -0.94
   -6   30    2    -12.74     -0.44
   -4   30    2      1.45     -0.06
   -2   30    2    -16.12      0.07
    0   30    2    -19.17      0.64
    2   30    2    -12.85      0.35
    4   30    2      4.52      0.92
    6   30    2     -0.50      0.27
    8   30    2     -5.40     -0.16
   10   30    2     -8.40     -0.04
   12   30    2     -4.10      0.52
   14   30    2     -6.09     -0.07
   16   30    2    -12.07     -0.25
   18   30    2     -2.12     -0.36
   20   30    2     -8.14      0.07
  -21   31    2     10.34      0.07
  -19   31    2     -2.60     -0.10
  -17   31    2     -1.90     -0.17
  -15   31    2     -8.67      0.08
  -13   31    2      5.87      0.52
  -11   31    2      7.09     -0.14
   -9   31    2     17.44     -0.14
   -7   31    2      0.50      0.09
   -5   31    2    -11.05     -0.11
   -3   31    2     -0.52      0.01
   -1   31    2      8.35     -0.20
    1   31    2      9.39      0.15
    3   31    2     -2.86      0.89
    5   31    2    -12.07      0.74
    7   31    2     -4.18      1.32
    9   31    2      9.65     -0.23
   11   31    2     10.45      0.04
   13   31    2     12.13     -0.03
   15   31    2     -8.84     -0.10
   17   31    2     -1.14      0.14
   19   31    2     -6.36     -0.21
  -20   32    2     -2.33      0.27
  -18   32    2      5.37     -0.29
  -16   32    2     -0.02      0.05
  -14   32    2      0.29     -0.02
  -12   32    2      7.52      0.06
  -10   32    2     11.24      0.23
   -8   32    2     16.06     -0.30
   -6   32    2    -10.89      0.18
   -4   32    2     -1.27      0.10
   -2   32    2     10.62      0.20
    0   32    2     18.38      0.66
    2   32    2     12.89      0.24
    4   32    2      0.45      0.72
    6   32    2    -12.16      0.59
    8   32    2      5.77     -0.16
   10   32    2     -1.05      0.09
   12   32    2      2.06      0.19
   14   32    2      1.63     -0.06
   16   32    2      1.36      0.13
   18   32    2     11.54     -0.33
  -19   33    2    -10.56     -0.19
  -17   33    2      6.00      0.08
  -15   33    2     -3.66     -0.07
  -13   33    2     -1.05      0.55
  -11   33    2      1.26      0.02
   -9   33    2     -5.26     -0.59
   -7   33    2     -4.84     -0.30
   -5   33    2    -11.50      0.04
   -3   33    2      0.78      0.45
   -1   33    2     -3.65      0.49
    1   33    2     -3.45      0.35
    3   33    2     -6.76      0.52
    5   33    2     -1.61     -0.34
    7   33    2      4.72     -0.01
    9   33    2      3.98     -0.54
   11   33    2     -1.01      0.22
   13   33    2      0.44     -0.11
   15   33    2     -2.35     -0.38
   17   33    2     15.18     -0.57
   19   33    2      4.85     -0.36
  -18   34    2      1.64     -0.21
  -16   34    2     -4.72      0.04
  -14   34    2      9.02      0.06
  -12   34    2     -0.62      0.11
  -10   34    2     -7.12      0.10
   -8   34    2     -4.92     -0.53
   -6   34    2     -0.54     -0.02
   -4   34    2     -1.46     -0.24
   -2   34    2      1.25      0.30
    0   34    2     -7.67      0.54
    2   34    2     -9.94      0.04
    4   34    2     -9.63      0.10
    6   34    2      2.81     -0.20
    8   34    2     12.56     -0.43
   10   34    2     -6.94      0.08
   12   34    2      3.86     -0.11
   14   34    2     15.14     -0.08
   16   34    2     19.10      0.10
   18   34    2      4.58      0.01
  -17   35    2     -4.05      0.20
  -15   35    2    -14.22     -0.24
  -13   35    2      2.49      0.00
  -11   35    2      8.07      0.24
   -9   35    2     -5.63     -0.35
   -7   35    2      1.10     -0.15
   -5   35    2     -8.78     -0.17
   -3   35    2      8.99      0.19
   -1   35    2     -3.21      0.29
    1   35    2      1.48      0.17
    3   35    2     -3.28     -0.12
    5   35    2     -9.04     -0.46
    7   35    2     -4.59      0.33
    9   35    2     -1.83     -0.10
   11   35    2     -6.59      0.41
   13   35    2     -3.61      0.14
   15   35    2      1.77      0.16
   17   35    2     16.89      0.12
  -18   36    2      6.12     -0.22
  -16   36    2      1.16     -0.30
  -14   36    2      8.53     -0.10
  -12   36    2     -0.72      0.22
  -10   36    2     -0.75      0.59
   -8   36    2     -4.60     -0.12
   -6   36    2     -5.24      0.03
   -4   36    2    -14.59     -0.45
   -2   36    2      5.04     -0.30
    0   36    2      5.11     -0.31
    2   36    2      7.68     -0.18
    4   36    2     -0.96     -0.25
    6   36    2      1.84     -0.18
    8   36    2      9.05     -0.14
   10   36    2     -2.33      0.08
   12   36    2     -7.11     -0.31
   14   36    2     -7.42      0.09
   16   36    2     11.39     -0.15
  -17   37    2     -6.25     -0.41
  -15   37    2     -5.86     -0.59
  -13   37    2      5.05     -0.13
  -11   37    2     -1.76      0.28
   -9   37    2    -15.26     -0.47
   -7   37    2      0.00      0.17
   -5   37    2    -12.01     -0.24
   -3   37    2     -3.39     -0.30
   -1   37    2    -19.68      0.05
    1   37    2    -11.02     -0.08
    3   37    2      5.33     -0.11
    5   37    2      3.04     -0.08
    7   37    2     -1.78      0.06
    9   37    2      1.26     -0.19
   11   37    2      1.89     -0.01
   13   37    2      2.38     -0.06
   15   37    2      0.28      0.01
  -16   38    2     -3.37     -0.08
  -14   38    2      2.98     -0.15
  -12   38    2     -4.74     -0.44
  -10   38    2     -8.73      0.28
   -8   38    2     -3.13      0.06
   -6   38    2      3.83      0.13
   -4   38    2     -0.67     -0.07
   -2   38    2      1.26     -0.11
    0   38    2    -18.35     -0.23
    2   38    2    -10.33     -0.07
    4   38    2     -1.14     -0.39
    6   38    2      4.34      0.76
    8   38    2      1.64      0.15
   10   38    2     -1.89      0.44
   12   38    2      5.66     -0.01
   14   38    2      3.15      0.03
  -15   39    2    -11.28      0.09
  -13   39    2     -9.36      0.58
  -11   39    2     -1.87      0.25
   -9   39    2    -10.44      0.59
   -7   39    2      0.35      1.06
   -5   39    2     -7.83      0.25
   -3   39    2      5.96     -0.05
   -1   39    2     -2.18      0.06
    1   39    2     -9.72      0.13
    3   39    2     17.11      0.29
    5   39    2      7.67      0.39
    7   39    2     -6.97      0.20
    9   39    2     -2.38      0.11
   11   39    2      5.33     -0.20
   13   39    2      3.21     -0.03
   15   39    2     -4.04     -0.18
  -14   40    2     -9.18     -0.19
  -12   40    2    -16.83      0.02
  -10   40    2     -1.45      0.52
   -8   40    2      9.46      1.05
   -6   40    2      3.00      1.09
   -4   40    2      1.13      0.03
   -2   40    2      1.88     -0.02
    0   40    2    -14.95      0.38
    2   40    2     -9.56      0.72
    4   40    2      4.86      0.34
    6   40    2      5.92      0.57
    8   40    2     -0.69     -0.63
   10   40    2     -1.42      0.29
   12   40    2     -1.44     -0.41
   14   40    2      4.57     -0.26
  -13   41    2      1.54     -0.02
  -11   41    2     15.02     -0.73
   -9   41    2      2.44      1.14
   -7   41    2     10.13      0.26
   -5   41    2      3.33      0.20
   -3   41    2      2.22      0.62
   -1   41    2     -5.14      0.32
    1   41    2    -18.41      0.20
    3   41    2     -0.42     -0.41
    5   41    2     -9.32      0.34
    7   41    2     -9.95     -0.05
    9   41    2     -4.56     -0.49
   11   41    2     19.24     -0.12
   13   41    2     26.75      0.02
  -12   42    2    -12.49      0.07
  -10   42    2     -3.47     -0.32
   -8   42    2      3.13      0.74
   -6   42    2     14.25      0.26
   -4   42    2     20.25      0.06
   -2   42    2     14.21      0.40
    0   42    2     -7.90     -0.02
    2   42    2     -1.50      0.28
    4   42    2     19.95      0.04
    6   42    2     14.43      0.06
    8   42    2     -3.37     -0.31
   10   42    2     -6.99      0.11
   12   42    2     -8.33     -0.30
  -11   43    2     17.56     -0.58
   -9   43    2     21.91      0.11
   -7   43    2     19.48     -0.92
   -5   43    2     11.92      0.68
   -3   43    2      8.92      0.52
   -1   43    2      9.99      0.37
    1   43    2     10.90      0.53
    3   43    2      8.18     -0.40
    5   43    2      2.35      0.24
    7   43    2      8.72     -0.59
    9   43    2      2.11     -0.12
   11   43    2     -1.79      0.50
  -10   44    2      8.63      0.53
   -8   44    2      2.83      2.05
   -6   44    2     14.86     -0.43
   -4   44    2      2.88     -0.50
   -2   44    2     -5.98      0.29
    0   44    2     -9.25     -0.12
    2   44    2     -1.20      0.43
    4   44    2      3.12      0.01
    6   44    2      5.44     -0.11
    8   44    2     -5.90     -0.52
   -9   45    2      4.41     -0.08
   -7   45    2     -2.33     -1.04
   -5   45    2     -8.29      0.51
   -3   45    2     -3.03      0.34
   -1   45    2      1.42     -0.01
    1   45    2     19.66     -0.14
    3   45    2      8.87     -0.53
    5   45    2      2.71      0.17
    7   45    2      4.45     -0.22
   -6   46    2     14.03      0.21
   -4   46    2     11.95      0.01
   -2   46    2      4.17      0.15
    0   46    2     13.51     -0.06
    2   46    2     18.55      0.15
    4   46    2     13.49     -0.07
    6   46    2     22.25      0.01
   -3   47    2     -4.22      0.43
   -1   47    2    -18.32      0.12
    1   47    2     -7.55     -0.23
    3   47    2    -10.10     -0.16
  -26    0    3    -11.37      2.89
  -24    0    3    -15.10      1.39
  -22    0    3      1.41     -2.78
  -20    0    3    -15.35     -0.73
  -18    0    3    -18.88     -0.79
  -16    0    3     -3.41     -0.14
  -14    0    3     17.67     -0.18
  -12    0    3     22.97     -0.40
  -10    0    3     42.68     -0.22
   -8    0    3     44.44     -0.12
   -6    0    3    -12.09      0.27
   -4    0    3    -53.06      0.10
   -2    0    3   -102.66     -0.10
    0    0    3   -341.93      0.44
    2    0    3     -8.73     -0.14
    6    0    3   -151.07     -0.03
    8    0    3   -137.85      0.13
   10    0    3    -14.65     -0.07
   12    0    3    -13.09     -0.07
   14    0    3    -34.44     -0.15
   16    0    3    -14.92      0.13
   18    0    3    -24.20     -0.21
   20    0    3      1.78     -0.14
   22    0    3      1.59     -0.03
   24    0    3     -3.79      0.58
   26    0    3    -16.22     -0.36
  -27    1    3      3.22     -0.38
  -25    1    3      2.20     -0.23
  -23    1    3     -6.78     -0.60
  -21    1    3     -8.15      1.89
  -19    1    3      8.38     -0.15
  -17    1    3     -5.10      0.07
  -15    1    3     -2.73     -0.36
  -13    1    3     -0.96     -0.79
  -11    1    3     11.82     -0.07
   -9    1    3    -25.06      0.21
   -7    1    3     54.84      0.14
   -5    1    3     30.89     -0.27
   -3    1    3    -93.65     -0.17
   -1    1    3   -201.13      0.66
    1    1    3     -0.84      0.29
    3    1    3    -10.24      0.62
    5    1    3     32.42     -0.59
    7    1    3    -11.12     -0.31
    9    1    3     15.51     -0.24
   11    1    3     -3.97     -0.19
   13    1    3      9.23     -0.19
   15    1    3      0.58      0.37
   17    1    3    -17.95     -0.04
   19    1    3      4.66     -0.28
   21    1    3      3.66     -0.07
   23    1    3     -2.85      0.11
   25    1    3    -11.18     -0.20
  -26    2    3      2.32      0.12
  -24    2    3     -5.38      1.41
  -22    2    3      0.64      0.21
  -20    2    3    -10.33      0.31
  -18    2    3     -7.80      0.26
  -16    2    3     -8.07      1.26
  -14    2    3     14.00     -0.55
  -12    2    3     10.63      0.26
  -10    2    3    -10.03      0.03
   -8    2    3     -1.41     -0.54
   -6    2    3     36.50      0.40
   -4    2    3    -49.65      0.13
   -2    2    3    -70.77      0.37
    0    2    3   -129.72      0.38
    2    2    3     59.20     -0.57
    4    2    3     34.78     -0.97
    6    2    3     53.10     -0.29
    8    2    3     10.29     -0.21
   10    2    3     13.04      0.16
   12    2    3     22.16      0.01
   14    2    3     19.54      0.21
   16    2    3      8.48     -0.09
   18    2    3    -11.47      0.09
   20    2    3      6.23     -0.17
   22    2    3      2.62     -0.65
   24    2    3      6.57     -0.09
   26    2    3     -2.80     -0.12
  -27    3    3     -5.32      0.80
  -25    3    3    -15.39      2.14
  -23    3    3    -10.47     -1.19
  -21    3    3     -2.32      0.41
  -19    3    3     -9.81     -0.27
  -17    3    3      6.50     -0.21
  -15    3    3     24.65     -0.61
  -13    3    3      3.50     -0.49
  -11    3    3      9.57      0.32
   -9    3    3     18.73      0.29
   -7    3    3     46.41      0.36
   -5    3    3     23.38      0.29
   -3    3    3    133.36     -0.31
    1    3    3   -130.79     -0.70
    3    3    3    -46.57     -0.33
    5    3    3     -9.50     -0.40
    7    3    3    -67.16     -0.20
    9    3    3    -27.56     -0.33
   11    3    3    -21.08     -0.52
   13    3    3    -30.49     -0.10
   15    3    3     -4.41     -0.18
   17    3    3      0.27      0.11
   19    3    3     -3.69     -0.45
   21    3    3      2.20     -0.40
   23    3    3      7.36      0.82
   25    3    3     -7.72     -0.02
  -26    4    3      0.41      0.20
  -24    4    3    -16.92      1.69
  -22    4    3      3.35      0.54
  -20    4    3     11.10     -0.14
  -18    4    3     11.41     -0.70
  -16    4    3    -22.06      0.62
  -14    4    3     -8.15     -0.44
  -12    4    3     18.90     -0.09
  -10    4    3     18.36     -0.39
   -8    4    3    -13.37     -0.26
   -6    4    3     -8.16      0.01
   -4    4    3    -69.18     -0.46
   -2    4    3     96.96      0.16
    0    4    3    195.61     -0.17
    2    4    3     19.34     -0.21
    4    4    3    -32.81     -0.66
    6    4    3     -6.82     -0.20
    8    4    3     13.55     -0.37
   10    4    3     -8.61      0.13
   12    4    3      9.77     -0.02
   14    4    3      5.25      0.13
   16    4    3    -12.02      0.04
   18    4    3     -0.97      0.08
   20    4    3      9.13      0.05
   22    4    3      1.78     -0.01
   24    4    3     -4.01     -0.27
   26    4    3     -4.98     -0.12
  -27    5    3     -0.83     -0.33
  -25    5    3     -6.99      0.73
  -23    5    3     -6.04      1.15
  -21    5    3      2.96      1.92
  -19    5    3     -3.44      0.25
  -17    5    3      4.08      0.13
  -15    5    3      0.91     -1.03
  -13    5    3     -3.52     -0.44
  -11    5    3     -2.81      0.04
   -9    5    3     -8.63     -0.12
   -7    5    3    -13.21     -0.21
   -5    5    3    -65.90     -0.08
   -3    5    3     79.82     -0.39
   -1    5    3    109.54      0.46
    1    5    3     65.41     -0.44
    3    5    3     74.40     -0.23
    5    5    3     74.97     -0.28
    7    5    3     47.32      0.19
    9    5    3     25.86      0.48
   11    5    3     33.52     -0.15
   13    5    3     14.77      0.14
   15    5    3     18.80     -0.26
   17    5    3      9.99      0.11
   19    5    3     -2.14     -0.23
   21    5    3      4.64     -0.66
   23    5    3      3.89     -0.26
   25    5    3      5.75     -0.96
  -26    6    3      1.24      1.23
  -24    6    3    -12.80      0.23
  -22    6    3     14.14     -2.26
  -20    6    3      5.18     -1.09
  -18    6    3      6.83     -1.13
  -16    6    3     22.08      0.02
  -14    6    3     16.12     -0.31
  -12    6    3      4.44      0.21
  -10    6    3     26.70      0.00
   -8    6    3     31.50      0.24
   -6    6    3     19.79      0.56
   -4    6    3     52.72      0.34
   -2    6    3    179.48      0.43
    0    6    3    118.35     -0.66
    2    6    3    -98.34     -0.25
    4    6    3     28.74     -0.51
    6    6    3     16.61      0.31
    8    6    3     22.43      0.20
   10    6    3     -8.77     -0.21
   12    6    3    -13.71      0.29
   14    6    3     -1.66     -0.22
   16    6    3      7.59      0.01
   18    6    3     12.15      0.09
   20    6    3     -6.15     -0.21
   22    6    3     20.53      0.41
   24    6    3     13.76      0.25
   26    6    3      3.39      0.04
  -27    7    3     -4.62     -0.17
  -25    7    3     -1.34     -1.51
  -23    7    3     -4.43     -0.31
  -21    7    3      3.83     -0.13
  -19    7    3     14.71     -0.68
  -17    7    3     10.25     -0.27
  -15    7    3     -9.09      0.01
  -13    7    3      9.01      0.50
  -11    7    3    -16.05     -0.15
   -9    7    3    -32.17      0.14
   -7    7    3     -7.36     -0.55
   -5    7    3     -3.94     -0.25
   -3    7    3    -25.98     -0.31
   -1    7    3     48.03      0.64
    1    7    3     -3.83     -0.02
    3    7    3    -31.14      0.56
    5    7    3     -1.68      0.31
    7    7    3     25.68     -0.01
    9    7    3    -29.66      0.27
   11    7    3    -22.18      0.49
   13    7    3     -9.76      0.13
   15    7    3    -10.61      0.23
   17    7    3      0.86     -0.09
   19    7    3     -1.13     -0.45
   21    7    3     11.77     -0.20
   23    7    3     -3.81      0.03
   25    7    3     14.04     -0.48
  -26    8    3      4.13      0.01
  -24    8    3      0.38     -0.31
  -22    8    3     18.36     -0.18
  -20    8    3     18.79      0.41
  -18    8    3     -0.90      0.09
  -16    8    3     -5.98     -0.31
  -14    8    3    -23.97     -1.17
  -12    8    3     -5.97     -0.16
  -10    8    3     16.50     -0.40
   -8    8    3     -1.86     -0.12
   -6    8    3   -105.53      0.05
   -4    8    3   -102.73     -0.30
   -2    8    3     52.46      0.25
    0    8    3    148.15     -0.58
    2    8    3     37.89      0.37
    4    8    3     12.37     -0.21
    6    8    3    -49.71     -0.19
    8    8    3    -12.73      0.25
   10    8    3     30.24     -0.69
   12    8    3      3.55      0.01
   14    8    3     -3.68     -0.47
   16    8    3     -6.40      0.22
   18    8    3     12.24      0.40
   20    8    3     -1.80     -0.02
   22    8    3     12.07     -0.19
   24    8    3      4.09     -0.79
   26    8    3     -1.11     -0.25
  -27    9    3      5.45      0.61
  -25    9    3      0.52     -1.14
  -23    9    3     -7.28     -1.31
  -21    9    3     -5.38     -0.85
  -19    9    3     -3.13     -0.22
  -17    9    3      7.97     -0.88
  -15    9    3      6.34     -0.09
  -13    9    3     13.01     -0.26
  -11    9    3      9.35     -0.25
   -9    9    3     50.43      1.35
   -7    9    3     40.75      0.21
   -5    9    3     84.82      0.33
   -3    9    3      7.03     -0.01
   -1    9    3     38.90      0.17
    1    9    3    -40.78     -0.21
    3    9    3      5.16     -0.03
    5    9    3     13.91     -0.12
    7    9    3     21.00      0.19
    9    9    3     10.98     -0.03
   11    9    3     17.59      0.34
   13    9    3     -2.71     -0.38
   15    9    3    -11.70      0.06
   17    9    3     21.39     -0.03
   19    9    3      0.16      0.45
   21    9    3     14.42      0.56
   23    9    3      1.54      0.40
   25    9    3      6.64     -0.05
  -26   10    3     -6.67      0.20
  -24   10    3     -0.11     -0.18
  -22   10    3     -2.02      0.44
  -20   10    3      2.25     -0.28
  -18   10    3     -7.95      0.21
  -16   10    3     -6.49      0.10
  -14   10    3      3.11      0.15
  -12   10    3     16.25      0.29
  -10   10    3    -44.91     -0.49
   -8   10    3     -8.96     -1.01
   -6   10    3     19.06     -0.32
   -4   10    3     -3.99     -0.43
   -2   10    3    -45.02      0.34
    0   10    3    -32.71     -0.11
    2   10    3    -25.08      0.22
    4   10    3    -41.61      0.05
    6   10    3      1.97     -0.33
    8   10    3    -25.99     -0.08
   10   10    3    -20.65     -0.22
   12   10    3    -23.36      0.31
   14   10    3     -0.30     -0.24
   16   10    3    -13.84      0.35
   18   10    3     -3.54      0.32
   20   10    3    -13.55     -0.10
   22   10    3     -1.92      0.01
   24   10    3      6.23     -0.34
  -27   11    3     10.66     -0.13
  -25   11    3     -2.79     -0.73
  -23   11    3    -14.39     -0.18
  -21   11    3      1.98      0.53
  -19   11    3      4.99      0.87
  -17   11    3     -1.32     -0.18
  -15   11    3     -0.92      0.12
  -13   11    3    -15.42     -0.26
  -11   11    3    -26.34     -0.82
   -9   11    3     21.01      0.07
   -7   11    3    -28.13     -0.71
   -5   11    3     -4.22     -0.57
   -3   11    3    -64.40     -0.62
   -1   11    3    -13.17     -1.27
    1   11    3    -72.48     -0.69
    3   11    3     -5.41      0.17
    5   11    3    -24.39     -0.23
    7   11    3    -26.60      0.04
    9   11    3     -2.95     -0.59
   11   11    3     -2.40     -0.21
   13   11    3    -24.94     -0.03
   15   11    3    -16.09      0.49
   17   11    3     11.33      0.06
   19   11    3      2.53      0.01
   21   11    3     -3.63      0.04
   23   11    3    -17.40     -0.28
   25   11    3     -7.89      0.12
  -26   12    3     -0.80      0.30
  -24   12    3     -8.54     -0.21
  -22   12    3     -6.65      0.14
  -20   12    3     -5.17     -0.39
  -18   12    3    -12.99     -0.56
  -16   12    3    -10.34     -0.94
  -14   12    3     -3.52     -0.07
  -12   12    3     38.17     -0.80
  -10   12    3     18.58      0.12
   -8   12    3     36.00     -0.01
   -6   12    3     19.95      0.65
   -4   12    3     -3.75      0.35
   -2   12    3     -0.99      0.14
    0   12    3    -15.29     -0.02
    2   12    3     22.52     -0.54
    4   12    3    -34.36     -0.59
    6   12    3      2.53     -0.43
    8   12    3    -11.78      0.09
   10   12    3     32.77      0.44
   12   12    3     29.14      0.49
   14   12    3      4.20      0.08
   16   12    3     -5.28      0.07
   18   12    3      5.48      0.50
   20   12    3     -6.55      0.35
   22   12    3      5.55      0.07
   24   12    3     -1.86     -0.28
  -25   13    3     -4.34      0.04
  -23   13    3    -14.62     -0.03
  -21   13    3     -4.38     -0.12
  -19   13    3      0.23      0.21
  -17   13    3     -4.49      0.25
  -15   13    3      4.61     -0.06
  -13   13    3     14.43     -0.14
  -11   13    3    -13.57     -0.30
   -9   13    3      3.22     -0.10
   -7   13    3     14.82     -0.17
   -5   13    3     33.16      0.00
   -3   13    3    -16.75     -0.02
   -1   13    3     10.53      0.32
    1   13    3    -44.71      0.37
    3   13    3    -27.31      0.28
    5   13    3     -8.10     -0.23
    7   13    3     23.42     -0.09
    9   13    3     13.08     -0.45
   11   13    3     -0.70      0.12
   13   13    3      0.25      0.16
   15   13    3      5.60      0.01
   17   13    3     -8.67     -0.13
   19   13    3     -2.17     -0.51
   21   13    3    -12.68     -0.04
   23   13    3     -3.91     -0.39
   25   13    3      7.93      0.09
  -26   14    3     10.13      0.24
  -24   14    3     -1.34      0.00
  -22   14    3     -1.99     -0.13
  -20   14    3      4.13     -0.11
  -18   14    3      2.17      0.20
  -16   14    3     11.67      0.59
  -14   14    3      4.09      1.56
  -12   14    3      1.31      0.00
  -10   14    3      3.45      0.20
   -8   14    3     10.04     -0.01
   -6   14    3     -8.33      0.11
   -4   14    3    -14.80      0.36
   -2   14    3      2.09     -0.01
    0   14    3    -80.45     -0.19
    2   14    3    -16.66     -0.85
    4   14    3      9.92     -0.54
    6   14    3     14.58     -0.16
    8   14    3     -8.28     -0.11
   10   14    3      1.58     -0.10
   12   14    3     -2.38      0.15
   14   14    3     -3.45      0.43
   16   14    3     -6.39      0.23
   18   14    3    -10.56     -0.28
   20   14    3    -14.56     -0.39
   22   14    3      0.26     -0.14
   24   14    3     -7.89     -0.22
  -25   15    3      0.21      0.16
  -23   15    3    -13.22     -0.07
  -21   15    3     -5.46      0.25
  -19   15    3      1.82      0.14
  -17   15    3     13.40      0.09
  -15   15    3      2.12     -0.05
  -13   15    3     14.82     -0.09
  -11   15    3      5.39      0.22
   -9   15    3     -7.38      0.13
   -7   15    3     10.14      0.35
   -5   15    3    -10.83      0.51
   -3   15    3    -11.80     -0.56
   -1   15    3      5.17      0.16
    1   15    3     -5.91     -0.24
    3   15    3    -34.94     -0.23
    5   15    3    -16.53     -0.59
    7   15    3     10.32     -0.09
    9   15    3     -3.12      0.07
   11   15    3      8.61      0.56
   13   15    3     10.28      0.36
   15   15    3     12.65      0.11
   17   15    3     -2.92      0.07
   19   15    3      6.94     -0.19
   21   15    3     -4.48     -0.03
   23   15    3      1.55     -0.51
   25   15    3     -7.76     -0.21
  -26   16    3      0.27      0.14
  -24   16    3      1.36      0.02
  -22   16    3     -4.10     -0.14
  -20   16    3      0.64     -0.31
  -18   16    3      3.40     -0.20
  -16   16    3      0.18      0.14
  -14   16    3      6.37      0.35
  -12   16    3      2.33     -0.04
  -10   16    3     15.59     -0.39
   -8   16    3     15.60      0.13
   -6   16    3     19.95      0.31
   -4   16    3      0.33      0.09
   -2   16    3     40.97      0.52
    0   16    3      4.89      0.89
    2   16    3      2.20      0.16
    4   16    3     12.73      0.44
    6   16    3     11.04      0.68
    8   16    3     34.46      0.16
   10   16    3     12.46     -0.60
   12   16    3     -0.13     -0.24
   14   16    3     15.40     -0.13
   16   16    3      2.01     -0.17
   18   16    3     -1.08     -0.39
   20   16    3      7.75     -0.23
   22   16    3     21.24     -0.11
   24   16    3      4.24     -0.02
  -25   17    3     17.79      0.35
  -23   17    3      1.14     -0.16
  -21   17    3      1.04      0.39
  -19   17    3     -2.78      0.26
  -17   17    3     10.89      0.36
  -15   17    3      3.02      0.54
  -13   17    3      6.65      0.10
  -11   17    3      8.87      0.86
   -9   17    3      4.59      0.38
   -7   17    3     23.47     -0.32
   -5   17    3     -7.21     -0.02
   -3   17    3     36.98     -0.62
   -1   17    3    -10.45      0.81
    1   17    3     11.44      0.29
    3   17    3     17.73     -0.02
    5   17    3     21.30     -0.28
    7   17    3      4.86      0.62
    9   17    3     -1.71      0.14
   11   17    3      5.54     -0.15
   13   17    3     -2.06     -0.56
   15   17    3      3.18      0.14
   17   17    3    -12.23      0.60
   19   17    3     -3.28      0.10
   21   17    3      0.92      0.12
   23   17    3      9.05      0.11
  -24   18    3     -0.20      0.00
  -22   18    3     -3.44      0.08
  -20   18    3     -0.15      0.05
  -18   18    3     13.28     -0.05
  -16   18    3     -3.06      0.18
  -14   18    3      4.05     -0.03
  -12   18    3     -0.24      0.47
  -10   18    3     -4.16     -0.20
   -8   18    3    -23.35      0.12
   -6   18    3     -2.45     -0.22
   -4   18    3    -36.87     -0.61
   -2   18    3    -11.90      0.20
    0   18    3      5.98      0.30
    2   18    3    -33.63     -0.36
    4   18    3    -24.23     -0.49
    6   18    3    -29.72      0.68
    8   18    3     -3.42      1.45
   10   18    3    -23.53      0.40
   12   18    3    -20.47      0.23
   14   18    3     -1.66      0.34
   16   18    3     -0.61      0.25
   18   18    3     -0.79      0.36
   20   18    3     -2.91      0.26
   22   18    3      4.87     -0.31
   24   18    3     -9.90      0.22
  -25   19    3      5.10      0.25
  -23   19    3     -9.85     -0.35
  -21   19    3      0.33      0.21
  -19   19    3     -2.40     -0.32
  -17   19    3      3.49     -0.39
  -15   19    3      9.08     -0.02
  -13   19    3      6.94     -0.49
  -11   19    3     -8.71      0.13
   -9   19    3    -13.53     -0.43
   -7   19    3     26.04     -0.50
   -5   19    3     14.66      0.03
   -3   19    3     43.19     -0.45
   -1   19    3    -20.96      0.45
    1   19    3      1.91      0.33
    3   19    3     16.16      0.76
    5   19    3     28.26      0.44
    7   19    3      4.20      1.02
    9   19    3     11.39      0.37
   11   19    3     -2.52     -0.30
   13   19    3     -5.21     -0.11
   15   19    3      0.38     -0.04
   17   19    3     -1.40      0.37
   19   19    3      5.44      0.10
   21   19    3      8.56     -0.12
   23   19    3      8.55      0.26
  -24   20    3     -4.14     -0.18
  -22   20    3      4.71     -0.18
  -20   20    3      6.11     -0.24
  -18   20    3      1.27     -0.43
  -16   20    3    -19.05     -0.23
  -14   20    3      2.12     -0.22
  -12   20    3     13.59      0.55
  -10   20    3     17.99      0.48
   -8   20    3     -1.36     -0.25
   -6   20    3     -6.33     -0.63
   -4   20    3    -14.18      0.47
   -2   20    3     23.80      0.51
    0   20    3     51.82      0.53
    2   20    3     17.13     -0.06
    4   20    3      8.45     -0.10
    6   20    3    -21.32      1.42
    8   20    3      8.89      0.85
   10   20    3     20.89     -0.26
   12   20    3     22.65     -0.26
   14   20    3     -2.49     -0.14
   16   20    3      1.57      0.26
   18   20    3      3.82      0.40
   20   20    3      1.77      0.16
   22   20    3      1.87     -0.15
  -25   21    3      5.56     -0.11
  -23   21    3     -3.42     -0.59
  -21   21    3      7.39     -0.12
  -19   21    3      4.14     -0.07
  -17   21    3     -0.89     -0.08
  -15   21    3     -1.16     -0.07
  -13   21    3     -3.64     -0.40
  -11   21    3    -15.30      0.15
   -9   21    3    -24.23      0.34
   -7   21    3     -1.61      0.67
   -5   21    3    -13.13      0.17
   -3   21    3    -21.86      0.06
   -1   21    3    -24.41      0.05
    1   21    3    -22.80     -0.17
    3   21    3    -32.25     -0.16
    5   21    3     -8.78     -0.69
    7   21    3    -26.43      0.30
    9   21    3     -2.38      1.37
   11   21    3    -15.92      0.25
   13   21    3     -9.98      0.46
   15   21    3    -14.80      0.11
   17   21    3      3.73      0.46
   19   21    3     -2.03      0.12
   21   21    3     -8.23     -0.34
   23   21    3     -8.74      0.03
  -24   22    3     -8.06     -0.02
  -22   22    3     -0.44      0.03
  -20   22    3      6.00     -0.02
  -18   22    3      0.37      0.08
  -16   22    3     -4.14     -0.09
  -14   22    3      9.58     -0.10
  -12   22    3      2.34     -0.23
  -10   22    3    -16.57      0.20
   -8   22    3    -16.56     -0.11
   -6   22    3    -13.00     -0.62
   -4   22    3      8.54      0.85
   -2   22    3     14.47      0.31
    0   22    3     -2.38      0.23
    2   22    3    -17.19     -0.23
    4   22    3     -6.73     -0.20
    6   22    3    -14.16     -0.75
    8   22    3     -3.85     -0.93
   10   22    3      0.21     -0.59
   12   22    3      4.64      0.25
   14   22    3    -17.90      0.16
   16   22    3     -0.97      0.07
   18   22    3      0.83      0.02
   20   22    3     -4.94      0.11
   22   22    3    -11.88     -0.11
  -23   23    3     -7.97     -0.20
  -21   23    3      0.92     -0.03
  -19   23    3      4.92      0.12
  -17   23    3     -1.45      0.04
  -15   23    3     -0.21      0.29
  -13   23    3     -1.80      0.01
  -11   23    3     -3.29      0.26
   -9   23    3      0.68     -0.02
   -7   23    3      4.22      0.01
   -5   23    3     10.87      0.35
   -3   23    3      6.12      0.84
   -1   23    3     42.65     -0.10
    1   23    3      6.97      0.01
    3   23    3     -7.33     -0.57
    5   23    3     19.82      0.06
    7   23    3     13.31     -1.83
    9   23    3     20.70     -1.26
   11   23    3     13.41     -0.24
   13   23    3     19.12      0.27
   15   23    3      3.72     -0.06
   17   23    3     28.87      0.23
   19   23    3     12.89     -0.07
   21   23    3      7.48     -0.07
   23   23    3     -1.42      0.29
  -24   24    3     -0.47      0.25
  -22   24    3      2.39      0.20
  -20   24    3      4.77     -0.29
  -18   24    3      0.67      0.31
  -16   24    3     -6.38      0.22
  -14   24    3     -9.49      0.54
  -12   24    3      9.12     -0.31
  -10   24    3     -1.11     -0.60
   -8   24    3      3.72      0.42
   -6   24    3    -12.92      0.00
   -4   24    3     -3.16      0.35
   -2   24    3      8.86      0.00
    0   24    3     14.85     -0.64
    2   24    3      0.25     -0.65
    4   24    3     -6.86     -0.41
    6   24    3     -1.85     -2.71
    8   24    3     -2.16     -0.68
   10   24    3      5.27     -0.08
   12   24    3      8.34      0.23
   14   24    3     -6.34      0.32
   16   24    3     -3.94      0.65
   18   24    3      2.44     -0.04
   20   24    3      1.71     -0.23
   22   24    3     -7.56     -0.17
  -23   25    3      0.83      0.09
  -21   25    3     -7.66      0.04
  -19   25    3      5.96      0.21
  -17   25    3     -0.03     -0.06
  -15   25    3      3.01      0.28
  -13   25    3     -2.88     -0.43
  -11   25    3     -9.05     -0.62
   -9   25    3      6.38     -0.37
   -7   25    3     -8.66     -0.34
   -5   25    3     -3.33     -0.54
   -3   25    3     -3.32      0.37
   -1   25    3     20.98     -0.28
    1   25    3    -20.43      0.46
    3   25    3    -19.53     -0.10
    5   25    3     -6.77      0.83
    7   25    3      3.38     -1.85
    9   25    3    -10.80     -0.79
   11   25    3    -13.90     -0.07
   13   25    3    -15.16      0.24
   15   25    3    -10.54      0.03
   17   25    3      9.46     -0.06
   19   25    3     -8.94      0.15
   21   25    3     -3.48     -0.06
  -22   26    3     -9.79     -0.01
  -20   26    3    -11.23     -0.19
  -18   26    3      1.09      0.18
  -16   26    3     10.65      0.16
  -14   26    3     -1.21      0.03
  -12   26    3      5.39     -0.27
  -10   26    3     -9.90     -0.56
   -8   26    3      9.06     -0.37
   -6   26    3     15.58     -0.45
   -4   26    3     13.63     -0.33
   -2   26    3      5.73      0.18
    0   26    3     -0.59     -0.32
    2   26    3    -10.17     -0.53
    4   26    3     14.28      0.27
    6   26    3     41.11     -1.41
    8   26    3      6.94     -0.92
   10   26    3     -9.42     -0.56
   12   26    3     -7.28      0.33
   14   26    3     10.51     -0.28
   16   26    3      9.16      0.35
   18   26    3     12.75     -0.02
   20   26    3      9.52      0.20
   22   26    3      3.36      0.30
  -23   27    3     -0.41     -0.33
  -21   27    3     -4.33     -0.42
  -19   27    3     10.40     -0.03
  -17   27    3      0.29     -0.01
  -15   27    3     -1.51      0.43
  -13   27    3      9.80      0.17
  -11   27    3      7.62     -0.56
   -9   27    3     21.77     -0.39
   -7   27    3      8.98      0.15
   -5   27    3      0.62     -0.67
   -3   27    3     -2.94      0.19
   -1   27    3     15.89     -0.32
    1   27    3      7.48     -0.05
    3   27    3     18.14     -0.66
    5   27    3      7.15     -0.64
    7   27    3     14.08     -1.03
    9   27    3     -2.33      1.18
   11   27    3     11.17     -0.23
   13   27    3      1.37      0.29
   15   27    3      0.86      0.50
   17   27    3     -6.87      0.26
   19   27    3     -8.40      0.18
   21   27    3      2.39     -0.41
  -22   28    3     -0.99     -0.28
  -20   28    3      6.98      0.07
  -18   28    3      5.01     -0.47
  -16   28    3      7.43     -0.13
  -14   28    3      5.14     -0.21
  -12   28    3     -2.15     -0.14
  -10   28    3      2.76     -0.02
   -8   28    3     18.94     -0.39
   -6   28    3      7.38     -0.05
   -4   28    3    -15.05     -0.05
   -2   28    3     -5.19      0.42
    0   28    3     -6.51     -0.19
    2   28    3     -8.93     -0.33
    4   28    3     -5.67      0.87
    6   28    3      0.68      1.41
    8   28    3    -11.95      0.62
   10   28    3     -8.37     -0.51
   12   28    3    -16.71     -0.15
   14   28    3      2.22     -0.41
   16   28    3     -4.55      0.05
   18   28    3     -8.35     -0.15
   20   28    3     -0.77      0.06
  -21   29    3     -0.73     -0.21
  -19   29    3     -0.74      0.07
  -17   29    3      1.17      0.00
  -15   29    3      2.09     -0.26
  -13   29    3      9.68     -0.26
  -11   29    3     -7.15     -0.15
   -9   29    3     -7.15     -0.40
   -7   29    3      6.75     -0.17
   -5   29    3      6.77     -0.54
   -3   29    3     -9.73     -0.47
   -1   29    3    -16.83     -0.39
    1   29    3    -22.09     -0.15
    3   29    3     -1.17     -0.28
    5   29    3      4.43      0.59
    7   29    3     -3.05      0.50
    9   29    3    -19.46      0.48
   11   29    3     -0.09     -0.87
   13   29    3     -0.02     -0.30
   15   29    3      2.85     -0.20
   17   29    3    -10.12      0.06
   19   29    3      1.25      0.47
  -20   30    3     16.11      0.34
  -18   30    3     -0.11     -0.37
  -16   30    3      6.96     -0.22
  -14   30    3     14.60     -0.31
  -12   30    3     -6.26     -0.20
  -10   30    3     -1.98      0.29
   -8   30    3      8.04     -0.20
   -6   30    3     16.63      0.01
   -4   30    3     -4.92     -0.24
   -2   30    3      5.31      0.06
    0   30    3     -4.10     -0.08
    2   30    3      3.91     -0.69
    4   30    3     13.68     -0.72
    6   30    3     14.93      0.36
    8   30    3      9.11      0.92
   10   30    3      5.91      0.02
   12   30    3      1.29      0.08
   14   30    3     15.90      0.26
   16   30    3      1.89      0.29
   18   30    3    -17.59      0.39
   20   30    3     -1.22     -0.02
  -21   31    3     -4.07     -0.21
  -19   31    3     -7.91      0.04
  -17   31    3     -9.15      0.08
  -15   31    3     -4.37      0.05
  -13   31    3      2.52     -0.04
  -11   31    3     -2.81     -0.10
   -9   31    3      1.11     -0.46
   -7   31    3     12.52     -0.25
   -5   31    3      4.43      0.43
   -3   31    3     -2.76      0.16
   -1   31    3    -13.03      0.28
    1   31    3    -14.80      0.23
    3   31    3      2.17     -0.35
    5   31    3      1.70      0.26
    7   31    3    -12.14      0.64
    9   31    3     -3.08     -0.42
   11   31    3      6.18      0.03
   13   31    3      7.33      0.02
   15   31    3      8.73      0.14
   17   31    3     -5.73      0.22
   19   31    3      5.12      0.44
  -20   32    3     15.04      0.08
  -18   32    3    -16.17      0.14
  -16   32    3     -4.59      0.01
  -14   32    3     -5.15     -0.18
  -12   32    3     -8.41     -0.21
  -10   32    3      2.56      0.31
   -8   32    3     -5.84     -0.55
   -6   32    3      4.27     -0.33
   -4   32    3    -11.95     -0.31
   -2   32    3     -2.04     -0.48
    0   32    3     -1.45      0.16
    2   32    3     -8.63     -0.44
    4   32    3      1.46      0.14
    6   32    3     -4.04      0.53
    8   32    3     -0.66      0.30
   10   32    3     -1.81     -0.56
   12   32    3     -0.28     -0.34
   14   32    3      6.41      0.32
   16   32    3      9.57      0.16
   18   32    3     -1.26      0.40
  -19   33    3      0.11      0.25
  -17   33    3     -6.47      0.19
  -15   33    3      1.88      0.16
  -13   33    3      4.91     -0.17
  -11   33    3      3.48     -0.54
   -9   33    3     -8.31     -0.42
   -7   33    3      4.21     -0.39
   -5   33    3      4.85     -0.05
   -3   33    3      3.49     -0.14
   -1   33    3     -5.90      0.05
    1   33    3      1.35     -0.13
    3   33    3     10.37     -0.28
    5   33    3     11.51     -0.52
    7   33    3      2.73      0.51
    9   33    3     11.80     -0.68
   11   33    3      4.75      0.74
   13   33    3      4.59      0.28
   15   33    3      7.01      0.19
   17   33    3     -2.46      0.46
  -18   34    3    -12.01      0.35
  -16   34    3      7.10      0.36
  -14   34    3     -0.99     -0.05
  -12   34    3      0.09     -0.53
  -10   34    3     -1.16     -0.11
   -8   34    3     -7.39     -0.38
   -6   34    3     11.37     -0.26
   -4   34    3     18.35      0.33
   -2   34    3      8.56     -0.11
    0   34    3      2.98      0.45
    2   34    3     -5.39     -0.14
    4   34    3     16.71     -0.31
    6   34    3      8.30     -0.36
    8   34    3     13.66     -0.10
   10   34    3      2.14      0.14
   12   34    3     -7.22      0.18
   14   34    3     -6.70      0.25
   16   34    3      5.51      0.00
   18   34    3      0.98     -0.02
  -19   35    3      3.49      0.15
  -17   35    3     -1.09      0.14
  -15   35    3      1.64      0.11
  -13   35    3      2.63      0.21
  -11   35    3     12.19     -0.14
   -9   35    3     -9.12     -0.05
   -7   35    3      2.46      0.04
   -5   35    3      5.68     -0.14
   -3   35    3      3.75     -0.06
   -1   35    3      0.60     -0.25
    1   35    3     -1.18     -0.75
    3   35    3     -5.03     -0.10
    5   35    3      2.64     -1.06
    7   35    3     -1.44      0.08
    9   35    3      6.30     -0.76
   11   35    3     -4.38      0.15
   13   35    3     -5.53      0.10
   15   35    3      3.71     -0.17
   17   35    3     12.77      0.22
  -18   36    3      2.67      0.12
  -16   36    3      1.84      0.35
  -14   36    3     -1.77     -0.29
  -12   36    3      3.73      0.15
  -10   36    3     -9.88      0.65
   -8   36    3    -21.96      1.07
   -6   36    3    -17.26     -0.01
   -4   36    3     -6.04     -0.58
   -2   36    3     -5.42     -0.85
    0   36    3      9.21     -0.49
    2   36    3      2.47     -0.04
    4   36    3      1.81     -0.06
    6   36    3    -10.83     -0.07
    8   36    3     -6.08     -0.32
   10   36    3     -8.96     -0.35
   12   36    3    -20.48     -0.20
   14   36    3    -20.08     -0.17
   16   36    3     -6.58      0.08
  -17   37    3     20.29      0.06
  -15   37    3     11.27      0.04
  -13   37    3     11.12     -0.21
  -11   37    3     10.49     -0.38
   -9   37    3    -12.60      0.02
   -7   37    3     -7.25      0.38
   -5   37    3     -6.95     -0.05
   -3   37    3      3.03      0.07
   -1   37    3     17.04     -0.63
    1   37    3     14.87     -0.85
    3   37    3      8.15     -0.01
    5   37    3      2.05     -0.74
    7   37    3     -3.56      0.47
    9   37    3      5.86     -0.44
   11   37    3      2.21     -0.34
   13   37    3     -3.93      0.13
   15   37    3    -15.61     -0.38
  -16   38    3     10.39      0.13
  -14   38    3     16.25     -0.29
  -12   38    3      4.18      0.25
  -10   38    3    -12.28     -1.05
   -8   38    3    -13.31      0.47
   -6   38    3      1.99      0.91
   -4   38    3      4.59      0.14
   -2   38    3      9.35     -0.30
    0   38    3     -1.59     -1.47
    2   38    3    -14.44     -0.72
    4   38    3     -2.76     -0.65
    6   38    3      1.69     -0.86
    8   38    3     -2.62     -0.28
   10   38    3      1.82     -0.22
   12   38    3     -4.06     -0.31
   14   38    3     10.36     -0.14
  -15   39    3    -12.41      0.30
  -13   39    3     -6.65      0.03
  -11   39    3    -11.06      0.49
   -9   39    3     -9.82      0.03
   -7   39    3    -12.76      0.33
   -5   39    3    -22.23      0.11
   -3   39    3     -6.60     -0.58
   -1   39    3      8.17     -0.63
    1   39    3     -5.16     -0.36
    3   39    3    -15.75      0.07
    5   39    3    -18.73      0.04
    7   39    3    -10.37      0.27
    9   39    3     -5.25     -0.27
   11   39    3     -6.01     -0.23
   13   39    3     -2.97      0.09
  -14   40    3      5.57     -0.57
  -12   40    3      2.75     -0.34
  -10   40    3     -0.20     -0.48
   -8   40    3     -6.24      1.11
   -6   40    3     -1.73      0.67
   -4   40    3     -8.51     -0.20
   -2   40    3     21.88      0.23
    0   40    3     12.59     -0.71
    2   40    3     -1.78      0.42
    4   40    3     -5.94      0.10
    6   40    3     -6.16      0.03
    8   40    3     -8.50      0.34
   10   40    3      2.68     -0.30
   12   40    3      0.89     -0.02
  -13   41    3      2.64     -0.18
  -11   41    3     -6.72     -0.39
   -9   41    3      8.53     -2.03
   -7   41    3      2.21     -0.91
   -5   41    3    -14.42      0.98
   -3   41    3      6.07      0.03
   -1   41    3     18.72     -0.09
    1   41    3      1.10     -0.48
    3   41    3     -9.45     -0.12
    5   41    3    -17.35      0.06
    7   41    3     -8.85     -0.40
    9   41    3      8.44      0.22
   11   41    3      7.99     -0.32
  -12   42    3     -8.50     -0.15
  -10   42    3     -7.84      0.08
   -8   42    3      0.30     -1.12
   -6   42    3      6.95     -0.66
   -4   42    3      1.98     -0.63
   -2   42    3      6.18      0.05
    0   42    3     -8.52     -0.32
    2   42    3    -19.40      0.23
    4   42    3    -14.53     -0.15
    6   42    3      1.64      0.19
    8   42    3      1.95      0.17
   10   42    3     -0.53     -0.07
  -11   43    3      8.55     -0.05
   -9   43    3      3.68     -0.50
   -7   43    3      3.75     -1.63
   -5   43    3    -11.51     -0.21
   -3   43    3      8.43      0.30
   -1   43    3     14.27      0.47
    1   43    3     13.61      0.06
    3   43    3      7.74      0.30
    5   43    3     -8.30      0.22
    7   43    3    -11.47     -0.09
    9   43    3     -0.41      0.24
  -10   44    3      6.15      0.19
   -8   44    3      8.85     -2.24
   -6   44    3     -9.42     -0.27
   -4   44    3     -0.96     -0.69
   -2   44    3      0.43     -0.59
    0   44    3     13.20     -0.12
    2   44    3      0.55      0.42
    4   44    3     -4.79      0.27
    6   44    3     -2.62     -0.03
    8   44    3      8.49     -0.21
   -9   45    3    -10.69      0.06
   -7   45    3      4.75     -1.59
   -5   45    3     -5.12     -0.25
   -3   45    3     -0.30     -0.06
   -1   45    3     -9.19     -0.16
    1   45    3     17.07     -0.30
    3   45    3     12.61     -0.10
    5   45    3      2.53      0.04
    7   45    3     -0.80     -0.13
   -6   46    3     -5.45     -0.33
   -4   46    3      9.23     -0.55
   -2   46    3      5.29     -0.16
    0   46    3     21.57     -0.31
    2   46    3     14.71      0.09
    4   46    3     20.64      0.32
   -3   47    3     10.47     -0.07
   -1   47    3     -6.67      0.01
    1   47    3     16.80      0.19
  -28    0    4      1.31      0.68
  -26    0    4     -0.87     -3.44
  -24    0    4     19.30     -2.32
  -22    0    4      3.11     -1.50
  -20    0    4     22.49     -0.87
  -18    0    4     18.86     -0.50
  -16    0    4    -11.94      0.53
  -14    0    4      2.54      0.08
  -12    0    4     53.86     -0.39
  -10    0    4     52.18     -0.10
   -8    0    4    -28.91     -0.30
   -6    0    4      9.74      0.08
   -4    0    4    -49.42      0.62
   -2    0    4    -41.62     -0.50
    0    0    4    249.34      0.00
    2    0    4     90.27     -0.38
    4    0    4    -92.72     -0.13
    6    0    4    -71.98     -0.20
    8    0    4    -18.04     -0.17
   10    0    4     -4.78      0.13
   12    0    4      9.58      0.09
   14    0    4      0.62      0.17
   16    0    4     -5.88      0.26
   18    0    4      9.83      0.21
   20    0    4      7.90      1.28
   22    0    4      3.93     -0.07
   24    0    4      3.82     -0.09
   26    0    4     -2.23      0.09
  -27    1    4     -7.72      1.42
  -25    1    4      5.02      0.05
  -23    1    4     -3.67      0.85
  -21    1    4     -7.84      1.01
  -19    1    4    -16.24      1.39
  -17    1    4      0.92      0.70
  -15    1    4    -10.36     -0.06
  -13    1    4    -12.94     -1.35
  -11    1    4    -29.32     -0.25
   -9    1    4    -43.56      0.17
   -7    1    4      8.88      0.23
   -5    1    4     43.54      0.56
   -3    1    4     98.64     -0.36
   -1    1    4   -189.05      0.04
    1    1    4    -48.39     -0.11
    3    1    4    -86.37      0.10
    5    1    4     47.45     -0.08
    7    1    4    -37.32      0.15
    9    1    4      5.31      0.23
   11    1    4    -10.09     -0.42
   13    1    4     -7.15      0.69
   15    1    4     -5.83     -0.22
   17    1    4     16.30      0.06
   19    1    4    -11.11     -0.33
   21    1    4    -10.06     -0.09
   23    1    4      2.08      0.02
   25    1    4      0.95     -0.18
  -28    2    4     -0.10      1.09
  -26    2    4     -2.96      0.97
  -24    2    4      7.52      1.85
  -22    2    4     -5.20     -0.12
  -20    2    4     -8.84      1.02
  -18    2    4    -14.42     -0.07
  -16    2    4     -8.76     -0.05
  -14    2    4     -5.68      0.67
  -12    2    4    -16.07      0.34
  -10    2    4    -28.40      0.01
   -8    2    4    -48.05     -0.04
   -6    2    4     -4.03     -0.31
   -4    2    4     14.83      0.55
   -2    2    4      7.45     -0.41
    0    2    4     25.12      0.38
    2    2    4    -51.07      0.01
    4    2    4    -32.84     -0.22
    6    2    4     11.13     -0.16
    8    2    4     -2.26     -0.29
   10    2    4    -17.74     -0.19
   12    2    4    -16.48      0.13
   14    2    4     -6.11     -0.11
   16    2    4      9.52      0.27
   18    2    4     -3.66     -0.50
   20    2    4    -20.81      0.17
   22    2    4     -9.75     -0.35
   24    2    4      5.70      0.20
   26    2    4     -0.69      0.06
  -27    3    4     -4.48     -1.94
  -25    3    4     11.78     -5.58
  -23    3    4     -4.02     -1.22
  -21    3    4     -6.06     -0.22
  -19    3    4     12.13      0.17
  -17    3    4     12.85      0.06
  -15    3    4     -2.57      0.03
  -13    3    4     18.59     -0.93
  -11    3    4     30.95     -0.35
   -9    3    4    -16.74      0.56
   -7    3    4     32.85     -0.08
   -5    3    4     46.85      0.46
   -3    3    4    -21.53     -0.47
   -1    3    4     23.20      0.06
    1    3    4    124.38     -0.01
    3    3    4    -69.10      0.34
    5    3    4      2.58      0.14
    7    3    4     28.21     -0.18
    9    3    4     26.97     -0.08
   11    3    4    -13.75     -0.56
   13    3    4      7.75      0.28
   15    3    4     -4.51      0.13
   17    3    4      3.93      0.25
   19    3    4      3.73      0.27
   21    3    4      0.65      0.36
   23    3    4    -10.38     -0.04
   25    3    4      9.68      0.06
  -26    4    4     -2.75      0.66
  -24    4    4     -4.76      1.55
  -22    4    4      2.40     -0.50
  -20    4    4      0.11      0.55
  -18    4    4     -5.07      0.23
  -16    4    4      4.65     -0.55
  -14    4    4      0.22     -0.96
  -12    4    4     12.72     -0.23
  -10    4    4     42.66     -0.46
   -8    4    4     40.87      0.08
   -6    4    4    -32.05      0.35
   -4    4    4    -22.99      0.53
   -2    4    4    120.46     -0.55
    0    4    4     86.86      0.26
    2    4    4     34.02      0.11
    4    4    4    -19.57     -0.31
    6    4    4     -4.21      0.11
    8    4    4      3.20      0.35
   10    4    4     41.71     -0.24
   12    4    4     21.77      0.08
   14    4    4     -5.81     -0.26
   16    4    4     10.49     -0.01
   18    4    4      1.67      0.12
   20    4    4      1.23      0.30
   22    4    4     -5.89     -0.07
   24    4    4      4.79      0.36
   26    4    4     -3.36     -0.23
  -27    5    4      0.68      0.52
  -25    5    4      2.86      0.09
  -23    5    4    -10.87      1.35
  -21    5    4    -15.01      1.24
  -19    5    4     -4.67      1.25
  -17    5    4      2.02     -0.49
  -15    5    4      3.57      0.49
  -13    5    4     -8.09      0.75
  -11    5    4      6.96      0.14
   -9    5    4     -3.59      1.19
   -7    5    4     -2.13     -0.40
   -5    5    4     12.30      0.00
   -3    5    4    -19.51     -0.71
   -1    5    4    163.96     -0.16
    1    5    4     81.64      0.20
    3    5    4     13.71      0.00
    5    5    4     17.64      0.19
    7    5    4     44.84     -0.20
    9    5    4     19.52     -0.03
   11    5    4     -9.14     -0.10
   13    5    4      4.31     -0.14
   15    5    4     -3.90     -0.11
   17    5    4     -2.15     -0.23
   19    5    4    -12.62     -0.23
   21    5    4     -9.12     -0.08
   23    5    4    -18.63      0.38
   25    5    4      5.49      0.10
  -26    6    4      5.83     -0.83
  -24    6    4      3.07     -0.52
  -22    6    4     -3.34     -0.22
  -20    6    4     -4.71     -0.26
  -18    6    4      8.37      0.37
  -16    6    4      1.93      0.30
  -14    6    4     -7.60      0.34
  -12    6    4     -4.29      0.73
  -10    6    4    -41.59     -0.40
   -8    6    4     -4.52      0.06
   -6    6    4     34.98      0.27
   -4    6    4    -30.63      0.22
   -2    6    4    -22.57     -0.09
    0    6    4    -25.49     -0.03
    2    6    4     11.01      0.05
    4    6    4     -7.36      0.00
    6    6    4     74.90      0.24
    8    6    4     26.80      0.11
   10    6    4    -17.04     -0.28
   12    6    4     -9.78     -0.18
   14    6    4     -0.45     -0.10
   16    6    4     -1.49      0.09
   18    6    4    -14.69      0.00
   20    6    4      4.23     -0.35
   22    6    4    -16.34     -0.30
   24    6    4      1.97      0.02
  -27    7    4      4.44      0.14
  -25    7    4      0.49      0.68
  -23    7    4      2.06     -0.78
  -21    7    4      6.72      0.64
  -19    7    4      7.78      0.93
  -17    7    4     20.25     -0.26
  -15    7    4     32.67     -0.34
  -13    7    4     -4.65      0.07
  -11    7    4     11.34     -0.66
   -9    7    4     41.64     -0.45
   -7    7    4     -8.55     -1.18
   -5    7    4     -2.64     -0.09
   -3    7    4    -18.86     -0.57
   -1    7    4    125.13     -0.50
    1    7    4    -12.94      0.11
    3    7    4     69.96     -0.05
    5    7    4     -5.04      0.30
    7    7    4      7.04      0.00
    9    7    4      4.25      0.13
   11    7    4     18.76      0.22
   13    7    4     -4.01      0.48
   15    7    4      0.20      0.32
   17    7    4     12.86     -0.06
   19    7    4      8.38      0.14
   21    7    4     12.08     -0.10
   23    7    4     -2.30      0.55
   25    7    4      4.39      0.50
  -26    8    4      1.89      1.38
  -24    8    4      0.55      0.56
  -22    8    4      0.52      0.09
  -20    8    4     -3.69      0.07
  -18    8    4      8.09      0.31
  -16    8    4     -1.71      0.36
  -14    8    4     -7.10      0.70
  -12    8    4     19.62      0.18
  -10    8    4    -10.42     -0.36
   -8    8    4      3.76     -0.21
   -6    8    4     19.49     -0.19
   -4    8    4     -9.46     -0.07
   -2    8    4      0.42      0.21
    0    8    4     38.27      0.34
    2    8    4     78.38     -0.07
    4    8    4     30.59     -0.15
    6    8    4     16.25      0.16
    8    8    4    -11.65     -0.37
   10    8    4    -17.45      0.33
   12    8    4     13.67      0.39
   14    8    4     -2.15     -0.07
   16    8    4    -14.58     -0.13
   18    8    4     -9.56      0.22
   20    8    4      9.13     -0.08
   22    8    4      3.66      0.15
   24    8    4     -8.23      0.26
  -27    9    4      0.10      0.19
  -25    9    4      3.58      0.86
  -23    9    4     -0.72     -0.49
  -21    9    4     -8.87      0.76
  -19    9    4      0.17      0.10
  -17    9    4     -6.43      0.70
  -15    9    4    -15.06     -0.22
  -13    9    4    -28.33      0.16
  -11    9    4    -48.47     -0.10
   -9    9    4    -49.38     -0.33
   -7    9    4    -45.99     -0.09
   -5    9    4      4.73      0.26
   -3    9    4    -95.35     -0.34
   -1    9    4    -57.52      0.20
    1    9    4    -75.78      0.36
    3    9    4     41.51      0.32
    5    9    4    -19.54      0.52
    7    9    4      8.18      0.08
    9    9    4    -35.44      0.11
   11    9    4     -5.93     -0.23
   13    9    4    -15.38     -0.42
   15    9    4     -4.75     -0.15
   17    9    4    -13.06     -0.14
   19    9    4     -2.79     -0.05
   21    9    4     -4.99     -0.32
   23    9    4    -17.08     -0.35
   25    9    4     -2.98     -0.23
  -26   10    4     -2.43      0.81
  -24   10    4      3.99     -0.29
  -22   10    4      8.53     -0.54
  -20   10    4      2.97      0.35
  -18   10    4     -2.73      0.15
  -16   10    4     13.49      0.40
  -14   10    4      5.43      0.37
  -12   10    4      8.09     -0.06
  -10   10    4     -3.46     -0.65
   -8   10    4      0.13     -0.66
   -6   10    4    -17.05     -0.54
   -4   10    4      3.22      0.13
   -2   10    4    -27.08      0.39
    0   10    4    -39.93      0.20
    2   10    4    -16.01      0.08
    4   10    4     35.80      0.19
    6   10    4    -17.85      0.40
    8   10    4    -27.16      0.03
   10   10    4    -10.66      0.24
   12   10    4     11.56      0.59
   14   10    4     -1.29      0.70
   16   10    4     -0.25      0.18
   18   10    4      8.12      0.60
   20   10    4     -4.85      0.23
   22   10    4     12.44     -0.04
   24   10    4     -7.72      0.39
  -27   11    4     -0.05     -0.26
  -25   11    4      0.16      0.24
  -23   11    4     -3.05     -0.31
  -21   11    4     -7.72      0.42
  -19   11    4      9.62     -0.15
  -17   11    4     12.48      0.43
  -15   11    4      5.07      0.08
  -13   11    4     25.05      0.27
  -11   11    4     -6.23      0.33
   -9   11    4    -31.58     -0.42
   -7   11    4     21.02     -0.40
   -5   11    4    105.75      0.53
   -3   11    4     14.06      0.05
   -1   11    4    -34.85      0.64
    1   11    4    -15.69      0.14
    3   11    4     23.12      0.11
    5   11    4     11.03      0.03
    7   11    4     30.15     -0.67
    9   11    4    -39.25     -0.28
   11   11    4      1.61      0.47
   13   11    4     -2.69      0.10
   15   11    4     -3.71     -0.07
   17   11    4     -8.04     -0.14
   19   11    4      4.81      0.12
   21   11    4      2.40      0.07
   23   11    4     -1.16      0.03
   25   11    4     -5.91      0.21
  -26   12    4    -15.31      0.49
  -24   12    4      2.05      0.36
  -22   12    4     -0.77     -0.15
  -20   12    4     10.75     -0.32
  -18   12    4    -17.18     -0.12
  -16   12    4    -27.76      0.42
  -14   12    4    -28.94     -0.11
  -12   12    4     -8.57      0.40
  -10   12    4    -16.46     -0.45
   -8   12    4    -29.59      0.22
   -6   12    4    -70.49      0.40
   -4   12    4    -49.90      0.13
   -2   12    4    -29.55      0.22
    0   12    4     55.65      0.25
    2   12    4      4.92      0.43
    4   12    4     -7.02      0.65
    6   12    4    -53.78      0.06
    8   12    4    -18.32     -0.19
   10   12    4      3.64     -0.61
   12   12    4      8.64     -0.47
   14   12    4      6.67     -0.37
   16   12    4    -10.29     -0.63
   18   12    4      2.40     -0.39
   20   12    4    -13.66     -0.57
   22   12    4     -0.36     -0.47
   24   12    4     -9.93     -0.13
  -27   13    4      8.64      0.11
  -25   13    4      7.58      0.29
  -23   13    4      2.33      0.21
  -21   13    4     -4.02      0.45
  -19   13    4     -4.26      0.57
  -17   13    4      0.88     -0.01
  -15   13    4     -4.26     -0.25
  -13   13    4     -6.22     -0.66
  -11   13    4     -3.65      0.01
   -9   13    4      2.61      0.63
   -7   13    4     14.10      0.15
   -5   13    4     25.28      0.26
   -3   13    4     -6.82      0.13
   -1   13    4    -46.96      0.30
    1   13    4    -14.89      0.18
    3   13    4    -19.37      0.41
    5   13    4      1.88     -0.25
    7   13    4     -7.00     -0.13
    9   13    4    -22.52      0.03
   11   13    4     20.48      0.21
   13   13    4      7.17      0.12
   15   13    4      2.06      0.24
   17   13    4      1.26      0.02
   19   13    4     -4.37     -0.08
   21   13    4    -12.55      0.17
   23   13    4      0.83      0.12
   25   13    4     -3.20      0.05
  -26   14    4    -11.17      0.26
  -24   14    4     13.47      0.87
  -22   14    4     -2.41      0.24
  -20   14    4      8.91     -0.49
  -18   14    4     11.13     -0.15
  -16   14    4     14.13      0.08
  -14   14    4     18.60     -0.26
  -12   14    4     39.97      0.37
  -10   14    4      5.28     -0.55
   -8   14    4      5.35     -0.63
   -6   14    4     33.97      0.13
   -4   14    4     40.91     -0.16
   -2   14    4      6.76     -0.15
    0   14    4     70.09     -0.09
    2   14    4    -14.19     -0.33
    4   14    4    -32.22      0.32
    6   14    4      4.88     -0.65
    8   14    4     10.81     -0.38
   10   14    4    -14.04     -0.32
   12   14    4     -5.61      0.16
   14   14    4      9.59      0.21
   16   14    4      0.94     -0.11
   18   14    4      2.86     -0.08
   20   14    4    -17.26     -0.13
   22   14    4      0.75      0.03
   24   14    4      5.63      0.40
  -25   15    4     -1.22     -0.18
  -23   15    4     -3.65      0.05
  -21   15    4     -7.19     -0.26
  -19   15    4     -9.38      0.07
  -17   15    4     -4.42     -0.28
  -15   15    4      6.30     -0.23
  -13   15    4     -9.22     -0.58
  -11   15    4     -9.63     -0.40
   -9   15    4     -5.36     -0.12
   -7   15    4      0.23      0.02
   -5   15    4      1.33     -0.47
   -3   15    4     19.46     -0.41
   -1   15    4     12.76     -0.76
    1   15    4     41.45     -0.03
    3   15    4      4.87      0.98
    5   15    4     31.03     -0.03
    7   15    4      7.69     -0.08
    9   15    4     17.82     -0.48
   11   15    4      4.33     -0.22
   13   15    4      8.51      0.12
   15   15    4     15.54     -0.20
   17   15    4      4.93     -0.44
   19   15    4      2.08     -1.45
   21   15    4     -8.60     -0.32
   23   15    4     -2.70      0.03
  -26   16    4     -2.11     -0.05
  -24   16    4     16.75      0.70
  -22   16    4     -6.33      0.28
  -20   16    4    -13.05     -0.05
  -18   16    4     -5.28     -0.11
  -16   16    4    -11.30     -0.76
  -14   16    4    -22.23     -0.70
  -12   16    4     10.17     -0.83
  -10   16    4     23.45     -0.18
   -8   16    4     11.96     -0.38
   -6   16    4     -7.99      0.14
   -4   16    4    -21.44     -0.20
   -2   16    4    -27.00     -0.67
    0   16    4     32.70     -0.17
    2   16    4      9.58     -0.22
    4   16    4    -39.93      0.11
    6   16    4    -14.44     -0.66
    8   16    4     -9.25      0.51
   10   16    4      4.95      0.19
   12   16    4     12.15     -0.25
   14   16    4     -0.28     -0.14
   16   16    4      7.61      0.03
   18   16    4      1.67     -0.08
   20   16    4     -6.89     -0.05
   22   16    4     -1.00      0.03
   24   16    4      4.20      0.23
  -25   17    4      9.89     -0.29
  -23   17    4     15.33      0.10
  -21   17    4     -0.04     -0.02
  -19   17    4     -3.84      0.15
  -17   17    4      7.34     -0.05
  -15   17    4     11.28     -0.39
  -13   17    4      6.93     -0.52
  -11   17    4     20.39      0.07
   -9   17    4      7.65      0.13
   -7   17    4     19.69      0.93
   -5   17    4     11.45     -0.59
   -3   17    4    -16.59     -0.73
   -1   17    4    -14.52     -0.70
    1   17    4     10.63      0.35
    3   17    4    -49.13      1.24
    5   17    4     -3.84     -0.07
    7   17    4     -0.28      0.47
    9   17    4     16.02      0.35
   11   17    4    -25.97     -0.35
   13   17    4     -8.05      0.22
   15   17    4      5.68      0.02
   17   17    4      5.71      0.33
   19   17    4      1.41     -0.32
   21   17    4     -7.35      0.01
   23   17    4      1.99     -0.43
  -26   18    4     -0.11     -0.19
  -24   18    4      8.00      0.24
  -22   18    4     -4.36     -0.08
  -20   18    4    -15.54      0.01
  -18   18    4     -3.89      0.02
  -16   18    4      1.82     -0.34
  -14   18    4      5.33      0.44
  -12   18    4     -0.10     -0.25
  -10   18    4      0.78      0.51
   -8   18    4     -2.88     -0.52
   -6   18    4     14.56     -0.23
   -4   18    4     28.91      0.49
   -2   18    4      7.73      0.17
    0   18    4    -11.99      0.39
    2   18    4     41.67     -0.30
    4   18    4     43.07     -0.73
    6   18    4     47.68     -0.95
    8   18    4     15.81      0.36
   10   18    4      3.15      0.06
   12   18    4     -2.31      0.13
   14   18    4     -3.18      0.11
   16   18    4     11.19      0.00
   18   18    4     -8.86     -0.37
   20   18    4      0.67     -0.30
   22   18    4     -2.57     -0.20
   24   18    4      7.14      0.08
  -25   19    4     -9.23     -0.22
  -23   19    4     -6.16     -0.20
  -21   19    4     -6.84     -0.18
  -19   19    4     -1.85      0.22
  -17   19    4     -1.50      0.10
  -15   19    4    -19.74     -0.12
  -13   19    4    -19.74     -0.46
  -11   19    4      8.87      0.08
   -9   19    4     -0.71     -0.21
   -7   19    4      0.82      0.29
   -5   19    4    -11.22     -0.28
   -3   19    4    -32.97     -0.48
   -1   19    4     -9.94     -0.79
    1   19    4     19.35      0.12
    3   19    4    -18.23     -0.42
    5   19    4     -1.66     -1.26
    7   19    4    -15.19     -0.08
    9   19    4     -0.57      0.34
   11   19    4     -9.84     -0.62
   13   19    4     -4.47     -0.52
   15   19    4     -6.76     -0.45
   17   19    4      5.58     -0.04
   19   19    4      9.57      0.11
   21   19    4      0.73     -0.01
   23   19    4     -2.91     -0.17
  -24   20    4     -1.63      0.18
  -22   20    4     10.87      0.02
  -20   20    4      1.44      0.05
  -18   20    4      3.24      0.05
  -16   20    4    -13.09     -0.26
  -14   20    4     -6.40      0.49
  -12   20    4     -4.51     -0.15
  -10   20    4      2.10      0.45
   -8   20    4    -17.66      0.62
   -6   20    4     -2.13      0.50
   -4   20    4    -25.42      0.40
   -2   20    4    -27.82      0.11
    0   20    4    -25.41      0.16
    2   20    4      6.01      0.44
    4   20    4     -9.03     -0.50
    6   20    4    -15.89     -0.48
    8   20    4    -16.34      0.68
   10   20    4     -7.41     -0.29
   12   20    4     -4.90     -0.50
   14   20    4     -5.93      0.07
   16   20    4     -3.83     -0.10
   18   20    4    -14.62     -0.23
   20   20    4      1.59      0.11
   22   20    4     -5.97     -0.47
  -25   21    4     -7.15      0.16
  -23   21    4    -11.76     -0.18
  -21   21    4     -5.48     -0.05
  -19   21    4      0.57      0.45
  -17   21    4     -0.36      0.21
  -15   21    4      0.24      0.18
  -13   21    4     -4.34     -0.37
  -11   21    4     -6.62      0.49
   -9   21    4    -15.96      0.38
   -7   21    4    -10.89     -0.18
   -5   21    4     -2.67      0.74
   -3   21    4     -1.51      0.54
   -1   21    4     -5.74      0.27
    1   21    4      3.35      0.77
    3   21    4     16.90     -0.72
    5   21    4     21.53      0.69
    7   21    4      6.90      0.80
    9   21    4     -4.38      0.39
   11   21    4      3.33     -0.17
   13   21    4     -6.13      0.06
   15   21    4     -9.88     -0.08
   17   21    4     -0.40     -0.10
   19   21    4      2.33      0.48
   21   21    4     -5.76     -0.14
   23   21    4     -2.37      0.03
  -24   22    4    -24.92     -0.13
  -22   22    4      2.42     -0.28
  -20   22    4      3.42     -0.32
  -18   22    4     13.68      0.18
  -16   22    4     -3.58     -0.29
  -14   22    4     -5.45     -0.11
  -12   22    4     -6.13     -0.30
  -10   22    4      3.27      0.12
   -8   22    4    -21.69      0.36
   -6   22    4      3.52     -0.10
   -4   22    4    -23.63     -0.03
   -2   22    4     -2.53     -0.13
    0   22    4     12.11     -0.14
    2   22    4     -1.07      0.06
    4   22    4      1.79     -1.51
    6   22    4     -3.03     -0.06
    8   22    4     -9.01     -0.79
   10   22    4    -13.35     -0.52
   12   22    4      0.63     -0.30
   14   22    4      3.87     -0.27
   16   22    4     -2.00     -0.11
   18   22    4     -4.08     -0.28
   20   22    4      1.70      0.35
   22   22    4     -9.25      0.08
  -23   23    4    -10.86     -0.24
  -21   23    4     -4.02     -0.22
  -19   23    4      7.13     -0.04
  -17   23    4      7.82      0.02
  -15   23    4      9.65      0.30
  -13   23    4      6.13      0.19
  -11   23    4     -3.02      0.10
   -9   23    4    -10.09      0.25
   -7   23    4    -10.56      0.26
   -5   23    4     -6.80      0.78
   -3   23    4     -4.26     -0.02
   -1   23    4     -3.24      0.01
    1   23    4     -0.89      0.58
    3   23    4      5.00     -0.45
    5   23    4    -13.59      0.06
    7   23    4     -9.33     -1.31
    9   23    4    -12.39      0.19
   11   23    4     12.21     -0.58
   13   23    4      3.19      0.11
   15   23    4     -5.84     -0.10
   17   23    4    -10.16     -0.56
   19   23    4     -6.65      0.14
   21   23    4     -9.51     -0.21
  -24   24    4     -4.71      0.15
  -22   24    4      9.69      0.12
  -20   24    4      4.36      0.01
  -18   24    4      7.82      0.24
  -16   24    4      2.76      0.00
  -14   24    4      0.14      0.28
  -12   24    4     -5.08      0.11
  -10   24    4     10.48      0.61
   -8   24    4    -12.17      0.47
   -6   24    4    -12.82      0.32
   -4   24    4    -23.85      0.63
   -2   24    4     14.34     -0.19
    0   24    4     34.99     -0.06
    2   24    4      2.95      0.85
    4   24    4      1.90      1.71
    6   24    4      7.51      4.80
    8   24    4     13.39      0.06
   10   24    4      4.71     -0.16
   12   24    4      6.79      0.29
   14   24    4     -1.74      0.00
   16   24    4     -0.39      0.15
   18   24    4      3.61     -0.35
   20   24    4     -2.53     -0.09
   22   24    4     -4.46     -0.38
  -23   25    4     10.35     -0.05
  -21   25    4      2.17     -0.11
  -19   25    4      4.88     -0.13
  -17   25    4     14.22      0.06
  -15   25    4      8.79     -0.08
  -13   25    4      9.19      0.12
  -11   25    4     10.15      0.11
   -9   25    4      6.57      0.27
   -7   25    4     12.25      0.37
   -5   25    4     16.09     -0.03
   -3   25    4      4.90     -0.80
   -1   25    4      7.17     -0.30
    1   25    4      4.87      0.35
    3   25    4     10.04     -0.40
    5   25    4     10.71      0.09
    7   25    4     14.82     -1.51
    9   25    4     -9.29      0.45
   11   25    4     -1.51     -0.22
   13   25    4      6.10     -0.08
   15   25    4      4.28     -0.36
   17   25    4      0.82     -0.21
   19   25    4     -6.60     -0.15
   21   25    4     -7.03     -0.23
  -22   26    4     -3.32     -0.18
  -20   26    4      0.90     -0.18
  -18   26    4     13.18      0.05
  -16   26    4     19.91     -0.17
  -14   26    4     11.25      0.42
  -12   26    4      6.08     -0.01
  -10   26    4      9.39      0.24
   -8   26    4     12.33      0.56
   -6   26    4      4.70      0.08
   -4   26    4      7.53     -0.02
   -2   26    4      9.06     -0.16
    0   26    4     14.23     -0.34
    2   26    4      1.70     -0.06
    4   26    4      2.53     -0.79
    6   26    4      9.50     -0.08
    8   26    4     10.39     -0.82
   10   26    4      2.21      0.03
   12   26    4     -4.05     -0.30
   14   26    4     -4.87     -0.24
   16   26    4     -1.09     -0.40
   18   26    4      1.93     -0.36
   20   26    4     -8.27     -0.08
  -23   27    4     23.12     -0.03
  -21   27    4     -2.42      0.11
  -19   27    4     -2.11      0.35
  -17   27    4      2.70      0.17
  -15   27    4     -4.21      0.28
  -13   27    4     -7.96      0.05
  -11   27    4     -6.53      0.14
   -9   27    4     -3.34      0.14
   -7   27    4      0.86      0.16
   -5   27    4      3.61      0.14
   -3   27    4     -4.59      0.03
   -1   27    4      4.93      0.14
    1   27    4      3.03      0.72
    3   27    4      4.32      0.16
    5   27    4     14.90      1.92
    7   27    4     14.01      0.57
    9   27    4     -5.27      0.37
   11   27    4     -7.00      0.45
   13   27    4     -0.04      0.27
   15   27    4     -0.34     -0.15
   17   27    4      7.15     -0.01
   19   27    4     -6.40     -0.25
   21   27    4     -0.59     -0.18
  -22   28    4      9.00      0.08
  -20   28    4      3.43      0.13
  -18   28    4     -4.11      0.43
  -16   28    4     -2.48     -0.06
  -14   28    4    -10.63      0.25
  -12   28    4     17.76      0.10
  -10   28    4      7.05      0.18
   -8   28    4     19.20      0.34
   -6   28    4      8.56     -0.14
   -4   28    4     10.08     -0.31
   -2   28    4    -11.86     -0.21
    0   28    4      5.77     -0.61
    2   28    4      2.78     -0.28
    4   28    4     -0.30     -0.47
    6   28    4      3.77     -0.94
    8   28    4     -3.69      1.07
   10   28    4     -2.66      0.08
   12   28    4     -1.64     -0.75
   14   28    4      3.89     -0.14
   16   28    4     -9.18     -0.18
   18   28    4      0.65     -0.11
   20   28    4     -7.25     -0.45
  -21   29    4    -11.91      0.05
  -19   29    4     11.23      0.34
  -17   29    4     10.14     -0.38
  -15   29    4      5.79      0.14
  -13   29    4      1.89     -0.31
  -11   29    4      2.12     -0.54
   -9   29    4     15.30     -0.05
   -7   29    4     15.76      0.01
   -5   29    4     10.70     -0.46
   -3   29    4     -0.95     -0.10
   -1   29    4      2.06     -0.55
    1   29    4      5.65      0.05
    3   29    4      3.76     -0.80
    5   29    4      4.29     -0.68
    7   29    4      2.93     -0.11
    9   29    4      5.28      0.16
   11   29    4      4.64     -0.02
   13   29    4      4.01     -0.20
   15   29    4      1.14     -0.25
   17   29    4      8.28      0.10
   19   29    4     -4.34      0.00
  -20   30    4    -17.80      0.00
  -18   30    4    -16.14      0.06
  -16   30    4     -6.38     -0.27
  -14   30    4    -19.79     -0.25
  -12   30    4     -5.62      0.00
  -10   30    4    -27.98      0.22
   -8   30    4     -8.18     -0.18
   -6   30    4     -1.60     -0.17
   -4   30    4      9.84      0.11
   -2   30    4    -17.51      0.31
    0   30    4     -8.78      0.48
    2   30    4    -14.53      0.25
    4   30    4      2.26      0.03
    6   30    4     14.57     -0.93
    8   30    4      0.14      0.90
   10   30    4    -10.54      0.31
   12   30    4    -12.61      0.54
   14   30    4      2.28      0.30
   16   30    4    -13.11     -0.21
   18   30    4      1.15     -0.30
   20   30    4     -6.80     -0.02
  -21   31    4     -7.80     -0.09
  -19   31    4     -3.97      0.27
  -17   31    4    -15.59     -0.09
  -15   31    4    -18.23      0.46
  -13   31    4     -8.59      0.48
  -11   31    4      2.06      0.05
   -9   31    4      8.41      0.23
   -7   31    4      2.81      0.03
   -5   31    4      1.03     -0.25
   -3   31    4     -7.75      0.11
   -1   31    4      2.61     -0.46
    1   31    4      6.91      0.21
    3   31    4    -15.50      0.24
    5   31    4     -8.66     -0.17
    7   31    4      0.36      0.79
    9   31    4      6.30      0.53
   11   31    4      6.64     -0.15
   13   31    4      7.03      0.22
   15   31    4     -4.77     -0.05
   17   31    4      0.28      0.15
   19   31    4    -10.02     -0.06
  -20   32    4     -5.54      0.14
  -18   32    4      2.03     -0.14
  -16   32    4     -1.50     -0.03
  -14   32    4    -11.14     -0.17
  -12   32    4      2.01      0.09
  -10   32    4      8.12      0.48
   -8   32    4     12.45      0.13
   -6   32    4     -1.57      0.08
   -4   32    4     -0.87     -0.16
   -2   32    4     -2.99     -0.21
    0   32    4     14.39      0.25
    2   32    4     10.55      0.19
    4   32    4     -2.98      0.25
    6   32    4     -3.65     -0.35
    8   32    4      4.08      0.45
   10   32    4      9.12     -0.07
   12   32    4      7.06      0.27
   14   32    4     12.47      0.24
   16   32    4      6.44      0.31
   18   32    4     13.15     -0.14
  -19   33    4     -6.04     -0.11
  -17   33    4      2.56     -0.07
  -15   33    4     -7.99      0.15
  -13   33    4    -13.82      0.50
  -11   33    4    -14.09      0.15
   -9   33    4     -8.70     -0.12
   -7   33    4     -9.13     -0.27
   -5   33    4     -3.92      0.29
   -3   33    4     -5.12      0.60
   -1   33    4     -1.38      0.33
    1   33    4      3.87      0.48
    3   33    4    -18.66      0.21
    5   33    4     -3.82     -0.62
    7   33    4      2.26     -0.10
    9   33    4      8.07      0.06
   11   33    4     -1.87      0.21
   13   33    4     -5.89      0.49
   15   33    4    -15.12     -0.23
   17   33    4      9.46     -0.49
  -18   34    4      2.33     -0.07
  -16   34    4      3.82      0.04
  -14   34    4     -0.88     -0.18
  -12   34    4     -5.93      0.17
  -10   34    4      1.51      0.64
   -8   34    4     -9.25      0.13
   -6   34    4      0.59      0.49
   -4   34    4     -1.12     -0.06
   -2   34    4      0.59      0.08
    0   34    4     -3.54      0.27
    2   34    4    -12.09     -0.08
    4   34    4    -20.43      0.31
    6   34    4      1.52     -0.39
    8   34    4      7.87      0.07
   10   34    4      4.49      0.15
   12   34    4      0.53      0.23
   14   34    4     -3.66      0.22
   16   34    4      2.99      0.01
  -19   35    4     -1.87      0.14
  -17   35    4      3.46      0.09
  -15   35    4    -12.86     -0.10
  -13   35    4      0.34     -0.14
  -11   35    4     12.05      0.32
   -9   35    4     11.51      0.06
   -7   35    4      0.82     -0.09
   -5   35    4     -1.98      0.21
   -3   35    4      5.99      0.30
   -1   35    4     -2.35      0.61
    1   35    4     10.74      0.69
    3   35    4     -7.84      0.30
    5   35    4     -5.46     -0.31
    7   35    4     -4.62      0.22
    9   35    4      6.72      0.15
   11   35    4      5.80      0.42
   13   35    4     -0.07      0.35
   15   35    4     -9.11      0.17
   17   35    4     19.35      0.00
  -18   36    4      8.40      0.18
  -16   36    4     12.51     -0.16
  -14   36    4      4.40     -0.14
  -12   36    4     -0.91      0.01
  -10   36    4     13.92      0.62
   -8   36    4     -6.35     -0.16
   -6   36    4     -0.87      0.40
   -4   36    4    -17.13     -0.28
   -2   36    4      2.37      0.09
    0   36    4      8.70      0.17
    2   36    4      6.81     -0.10
    4   36    4     -1.40      0.29
    6   36    4      3.13     -0.34
    8   36    4      0.50      0.20
   10   36    4      1.07      0.01
   12   36    4     -5.77     -0.51
   14   36    4    -15.80      0.11
   16   36    4      3.59     -0.25
  -17   37    4      4.04     -0.23
  -15   37    4     -3.76     -0.28
  -13   37    4      6.45     -0.25
  -11   37    4     11.44      0.41
   -9   37    4      2.45     -0.50
   -7   37    4      3.03      0.08
   -5   37    4     -7.68      0.39
   -3   37    4    -13.27      0.01
   -1   37    4    -20.93      0.55
    1   37    4     -2.03      0.21
    3   37    4      1.32      0.24
    5   37    4      6.35     -0.14
    7   37    4     -5.05     -0.21
    9   37    4     -4.83     -0.01
   11   37    4      3.44      0.23
   13   37    4     -7.65      0.10
   15   37    4    -15.00      0.19
  -16   38    4      2.63     -0.03
  -14   38    4      6.74      0.10
  -12   38    4      7.14     -0.48
  -10   38    4     17.14      0.09
   -8   38    4      3.15     -0.73
   -6   38    4     16.25      0.32
   -4   38    4      1.43      0.21
   -2   38    4      1.60      0.41
    0   38    4     -5.56      0.45
    2   38    4     -8.06      0.24
    4   38    4      3.90      0.27
    6   38    4     12.07      0.52
    8   38    4      1.87      0.48
   10   38    4     -1.88      0.38
   12   38    4      2.58     -0.01
   14   38    4     -1.06      0.31
  -15   39    4     -6.68      0.24
  -13   39    4     -4.54      0.49
  -11   39    4     11.44     -0.23
   -9   39    4      2.46     -0.82
   -7   39    4      9.98     -0.25
   -5   39    4      0.26     -0.22
   -3   39    4     -7.88     -0.43
   -1   39    4      5.23      0.12
    1   39    4      7.25     -0.06
    3   39    4     18.99      0.53
    5   39    4     14.19      0.25
    7   39    4     -8.05      0.06
    9   39    4    -14.78      0.52
   11   39    4     -1.91      0.07
   13   39    4     -8.22      0.11
  -14   40    4     -3.72     -0.30
  -12   40    4    -13.04     -0.18
  -10   40    4      8.05      0.03
   -8   40    4      6.07     -0.15
   -6   40    4      9.56      0.54
   -4   40    4     -8.94     -0.05
   -2   40    4     -9.74     -0.25
    0   40    4     -0.79      0.48
    2   40    4     -7.81      0.41
    4   40    4      5.67      0.06
    6   40    4      3.93      0.18
    8   40    4    -12.04     -0.30
   10   40    4    -11.52      0.51
   12   40    4    -13.99     -0.05
  -13   41    4     -1.16      0.09
  -11   41    4      9.01     -0.56
   -9   41    4      0.97      1.29
   -7   41    4      8.48      0.64
   -5   41    4      7.42      0.47
   -3   41    4    -17.51      0.36
   -1   41    4     -6.49      0.58
    1   41    4     -6.40     -0.05
    3   41    4      4.06     -0.24
    5   41    4     -4.36     -0.14
    7   41    4     -8.54     -0.33
    9   41    4    -11.03     -0.26
   11   41    4     12.03     -0.02
  -12   42    4    -22.67     -0.11
  -10   42    4     -6.39     -1.05
   -8   42    4     -8.30      0.43
   -6   42    4     14.96     -1.09
   -4   42    4      5.75     -0.61
   -2   42    4      2.07     -0.33
    0   42    4      1.31     -0.24
    2   42    4     -1.53     -0.07
    4   42    4     21.20     -0.35
    6   42    4     14.25      0.03
    8   42    4     -8.02      0.06
   10   42    4     -2.69      0.42
  -11   43    4     -0.51     -0.48
   -9   43    4     13.54      0.23
   -7   43    4      4.41     -1.27
   -5   43    4      7.27      0.28
   -3   43    4     -9.20     -0.39
   -1   43    4     -1.47      0.48
    1   43    4      7.28      0.06
    3   43    4     -0.01     -0.43
    5   43    4     -5.37     -0.03
    7   43    4      3.05     -0.50
    9   43    4      1.14     -0.02
  -10   44    4      1.27      1.14
   -8   44    4    -14.05      5.05
   -6   44    4     12.82      0.28
   -4   44    4     -4.01     -0.08
   -2   44    4    -15.43      0.18
    0   44    4    -19.87     -0.14
    2   44    4     -5.02      0.06
    4   44    4      7.55     -0.68
    6   44    4     10.47     -0.42
    8   44    4     -0.35     -0.31
   -9   45    4      5.44     -0.16
   -7   45    4     -7.19     -1.74
   -5   45    4     -7.12     -0.06
   -3   45    4     -9.68     -0.52
   -1   45    4    -11.66      0.16
    1   45    4     11.66     -0.43
    3   45    4      5.75     -0.54
    5   45    4      7.72      0.04
    7   45    4     10.24     -0.33
   -6   46    4     10.59     -1.00
   -4   46    4     10.08     -0.58
   -2   46    4      2.90     -0.40
    0   46    4     -4.05     -0.24
    2   46    4      7.67     -0.11
    4   46    4      4.89     -0.12
   -3   47    4      5.23      0.17
   -1   47    4    -15.18     -0.02
    1   47    4     -5.89     -0.52
  -28    0    5      6.19     -0.94
  -26    0    5     -9.48      3.24
  -24    0    5     -0.37      3.27
  -22    0    5     15.15     -3.35
  -20    0    5     -6.75     -1.44
  -18    0    5    -18.40     -1.32
  -16    0    5    -13.84     -0.27
  -14    0    5     -1.71     -0.18
  -12    0    5    -25.06     -0.26
  -10    0    5     18.12     -0.02
   -8    0    5    -19.35      0.00
   -6    0    5    -74.75     -0.29
   -4    0    5    -39.34     -0.02
   -2    0    5    -20.29     -0.53
    0    0    5   -346.88      0.01
    2    0    5    -14.53     -0.70
    4    0    5    -54.07     -0.19
    6    0    5    -63.99     -0.36
    8    0    5   -129.03      0.15
   10    0    5     -7.83      0.23
   12    0    5     -8.39     -0.38
   14    0    5    -18.83      0.04
   16    0    5     -6.07      0.25
   18    0    5     -6.54     -0.23
   20    0    5     12.72     -0.34
   22    0    5      1.87     -0.46
   24    0    5      6.25      0.39
  -27    1    5      6.33      0.52
  -25    1    5     -0.24      0.56
  -23    1    5     11.43      0.90
  -21    1    5     -1.35      0.39
  -19    1    5      7.52     -0.26
  -17    1    5      4.32     -0.55
  -15    1    5     -7.05      0.35
  -13    1    5    -19.19     -0.29
  -11    1    5     15.01     -0.21
   -9    1    5    -23.15      0.65
   -7    1    5      5.99      0.20
   -5    1    5     67.69     -0.47
   -3    1    5     32.71      0.21
   -1    1    5    -99.24      0.01
    1    1    5    -32.37      0.45
    3    1    5     56.65      0.50
    5    1    5     18.40     -0.01
    7    1    5     33.69     -0.25
    9    1    5     18.79      0.14
   11    1    5      0.93     -0.19
   13    1    5     17.65     -0.37
   15    1    5      2.46      0.24
   17    1    5    -12.21      0.08
   19    1    5      2.22     -0.32
   21    1    5      1.26      0.17
   23    1    5     -4.79     -0.25
   25    1    5     -4.52      0.12
  -28    2    5     -0.19      0.10
  -26    2    5     -3.76      1.19
  -24    2    5      2.44      2.81
  -22    2    5      6.94     -0.01
  -20    2    5     -4.78      0.13
  -18    2    5     -3.09      0.23
  -16    2    5     -6.67      3.43
  -14    2    5      7.52      0.72
  -12    2    5     -2.55      0.56
  -10    2    5     17.02      0.39
   -8    2    5     -6.50     -0.35
   -6    2    5     54.78      0.08
   -4    2    5     43.79      0.94
   -2    2    5     35.39      0.68
    0    2    5   -100.74      0.93
    2    2    5    125.28     -0.27
    4    2    5     44.48     -0.57
    6    2    5     73.40     -0.53
    8    2    5      7.58      0.12
   10    2    5     21.63      0.39
   12    2    5     12.06     -0.18
   14    2    5     14.99      0.13
   16    2    5      2.45     -0.15
   18    2    5     -8.69     -0.16
   20    2    5      6.72     -0.08
   22    2    5     -5.84     -0.50
   24    2    5      3.85     -0.01
  -27    3    5      7.79     -0.27
  -25    3    5     -1.88      1.31
  -23    3    5      8.70     -0.55
  -21    3    5     12.37     -0.92
  -19    3    5     -9.86      0.30
  -17    3    5      0.60      0.30
  -15    3    5     12.84      0.45
  -13    3    5    -21.40     -0.68
  -11    3    5    -19.35     -0.05
   -9    3    5      4.55      0.23
   -7    3    5     -3.20      0.26
   -5    3    5     -3.53      0.20
   -3    3    5     63.57      0.18
   -1    3    5    -64.28     -0.51
    1    3    5   -107.32     -0.29
    3    3    5    -23.53     -0.43
    5    3    5    -40.79     -0.21
    7    3    5    -59.08     -0.32
    9    3    5    -28.87      0.09
   11    3    5    -20.38     -0.49
   13    3    5    -17.92     -0.32
   15    3    5     -6.04     -0.18
   17    3    5     12.46     -0.01
   19    3    5      2.44     -0.09
   21    3    5      8.75      0.00
   23    3    5      7.87      0.29
   25    3    5     -0.98      0.23
  -28    4    5     -1.86      0.06
  -26    4    5      6.94     -0.28
  -24    4    5      0.99      1.41
  -22    4    5      9.16     -0.17
  -20    4    5     12.55     -0.77
  -18    4    5     10.86     -1.26
  -16    4    5    -19.09      1.28
  -14    4    5    -20.71      0.04
  -12    4    5     -6.39     -0.01
  -10    4    5     25.85     -0.46
   -8    4    5    -18.14      0.13
   -6    4    5     -1.70     -0.62
   -4    4    5    -86.40     -0.01
   -2    4    5    -10.88     -0.07
    0    4    5    104.63      0.22
    2    4    5     80.45     -0.14
    4    4    5    -56.42     -0.38
    6    4    5    -35.41     -0.22
    8    4    5     13.20     -0.19
   10    4    5      0.29      0.62
   12    4    5      3.92      0.05
   14    4    5     11.87     -0.17
   16    4    5     -4.15      0.04
   18    4    5      4.25      0.28
   20    4    5      8.78      0.57
   22    4    5      0.21      0.27
   24    4    5    -11.87      0.16
  -27    5    5      2.68     -0.02
  -25    5    5     -2.96      0.69
  -23    5    5     -8.98      1.88
  -21    5    5      3.36      1.18
  -19    5    5    -10.48      0.45
  -17    5    5     -0.27      0.49
  -15    5    5      3.99     -0.25
  -13    5    5     -8.09     -0.73
  -11    5    5      3.33      0.26
   -9    5    5     30.77     -0.27
   -7    5    5     26.49     -0.11
   -5    5    5     -3.28     -0.03
   -3    5    5      9.35     -0.01
   -1    5    5     49.89      0.23
    1    5    5    132.14     -0.13
    3    5    5     85.86     -0.09
    5    5    5     27.54     -0.23
    7    5    5     16.64      0.30
    9    5    5     30.61      0.86
   11    5    5     26.75     -0.40
   13    5    5     13.84     -0.20
   15    5    5      4.39     -0.48
   17    5    5      7.85     -0.18
   19    5    5     -8.82      0.07
   21    5    5     -1.44     -0.15
   23    5    5     -8.96     -0.36
   25    5    5     -0.91     -0.62
  -26    6    5      6.97      0.85
  -24    6    5     -4.70      1.21
  -22    6    5     12.95     -1.97
  -20    6    5      2.19     -1.17
  -18    6    5     -6.45     -1.05
  -16    6    5     17.92     -0.45
  -14    6    5     17.73     -0.67
  -12    6    5    -11.58      0.40
  -10    6    5     21.78     -0.02
   -8    6    5     31.05      0.93
   -6    6    5     16.75     -0.18
   -4    6    5     26.89      0.47
   -2    6    5     75.24     -0.15
    0    6    5     82.14     -0.67
    2    6    5    -62.44     -0.54
    4    6    5      0.33     -0.41
    6    6    5    -10.30      0.38
    8    6    5     28.43     -0.14
   10    6    5    -13.09     -0.12
   12    6    5    -16.67     -0.22
   14    6    5     -2.67     -0.64
   16    6    5      5.07     -0.24
   18    6    5     15.86      0.12
   20    6    5    -14.59      0.10
   22    6    5     17.15      0.07
   24    6    5     -2.89      0.30
  -27    7    5     -0.95     -0.22
  -25    7    5      6.23     -1.31
  -23    7    5     -5.35      0.54
  -21    7    5     -3.21     -0.67
  -19    7    5     -2.74     -0.84
  -17    7    5      1.73     -0.80
  -15    7    5     -4.67     -0.14
  -13    7    5     -3.29      0.48
  -11    7    5    -12.44      0.69
   -9    7    5    -42.88      0.96
   -7    7    5    -26.66      0.03
   -5    7    5    -17.42     -0.29
   -3    7    5    -97.78     -0.68
   -1    7    5    -88.18     -0.12
    1    7    5     -6.01     -0.63
    3    7    5    -41.94      0.25
    5    7    5    -21.55      0.08
    7    7    5     29.34     -0.11
    9    7    5      0.41      0.02
   11    7    5    -12.73      0.10
   13    7    5      1.58      0.20
   15    7    5     -2.21     -0.08
   17    7    5      1.44     -0.05
   19    7    5     -5.50     -0.21
   21    7    5      1.63     -0.03
   23    7    5    -10.69      0.00
   25    7    5     -1.10     -0.21
  -26    8    5     -5.02      1.29
  -24    8    5    -11.39      1.67
  -22    8    5      5.99      0.00
  -20    8    5      5.98      0.00
  -18    8    5    -12.33      0.07
  -16    8    5     -6.45     -0.39
  -14    8    5    -14.87     -0.78
  -12    8    5     -7.10      0.67
  -10    8    5     27.15     -0.25
   -8    8    5     17.38      0.60
   -6    8    5    -98.41     -0.18
   -4    8    5    -57.53     -0.12
   -2    8    5    -16.46     -0.14
    0    8    5    102.19     -0.59
    2    8    5      6.48      0.08
    4    8    5     25.94     -0.30
    6    8    5    -43.10     -0.18
    8    8    5      5.84     -0.05
   10    8    5     16.71     -0.72
   12    8    5      8.28     -0.40
   14    8    5     -1.28     -0.54
   16    8    5     -9.74     -0.06
   18    8    5     14.50      0.06
   20    8    5    -13.15     -0.13
   22    8    5     11.16     -0.40
   24    8    5    -12.71     -0.67
  -27    9    5      1.75      0.50
  -25    9    5     -0.82      0.01
  -23    9    5     -8.10      0.15
  -21    9    5    -11.50     -1.07
  -19    9    5    -14.43     -0.08
  -17    9    5      2.59     -0.98
  -15    9    5     18.36     -0.07
  -13    9    5      7.10      0.28
  -11    9    5     30.69      0.59
   -9    9    5     36.47      2.33
   -7    9    5     36.20      0.30
   -5    9    5     66.91      0.19
   -3    9    5     52.33     -0.14
   -1    9    5      7.74     -0.16
    1    9    5    -40.68     -0.50
    3    9    5     -0.18     -0.08
    5    9    5     27.55      0.03
    7    9    5     47.70      0.01
    9    9    5     10.17     -0.31
   11    9    5      8.05      0.02
   13    9    5      0.18     -0.06
   15    9    5     -7.62     -0.23
   17    9    5     13.15     -0.06
   19    9    5      4.63      0.53
   21    9    5      2.14      0.40
   23    9    5      5.81     -0.19
   25    9    5      0.22     -0.32
  -26   10    5     -5.97      0.38
  -24   10    5      4.36      0.77
  -22   10    5      4.27      0.35
  -20   10    5      0.93     -0.44
  -18   10    5     -0.95      0.13
  -16   10    5     -1.40     -0.06
  -14   10    5      3.37      0.64
  -12   10    5     18.82      1.34
  -10   10    5    -43.46      0.54
   -8   10    5    -44.01      0.14
   -6   10    5    -53.86     -0.14
   -4   10    5     33.52     -0.28
   -2   10    5    -83.85     -0.12
    0   10    5    -53.00     -0.44
    2   10    5    -59.71     -0.22
    4   10    5     -9.30      0.09
    6   10    5     22.37     -0.47
    8   10    5     16.08     -0.38
   10   10    5    -20.10     -0.48
   12   10    5    -11.33      0.39
   14   10    5     11.30      0.00
   16   10    5     -4.55      0.47
   18   10    5      2.84      0.31
   20   10    5    -13.12      0.10
   22   10    5      4.03      0.17
   24   10    5     -1.82     -0.29
  -27   11    5      4.84     -0.28
  -25   11    5    -10.03     -0.37
  -23   11    5    -11.13     -0.02
  -21   11    5     -1.67      0.06
  -19   11    5      0.98      0.81
  -17   11    5     -2.82      0.26
  -15   11    5      3.21      0.56
  -13   11    5    -31.17      0.61
  -11   11    5     -9.08     -0.13
   -9   11    5     -0.20      0.81
   -7   11    5    -38.39     -0.52
   -5   11    5    -29.56     -0.52
   -3   11    5    -11.60     -0.22
   -1   11    5    -22.84     -1.00
    1   11    5    -89.93     -0.39
    3   11    5    -13.22      0.22
    5   11    5    -18.07      0.19
    7   11    5     -5.39     -0.04
    9   11    5    -12.77     -0.54
   11   11    5     -8.99     -0.37
   13   11    5    -15.02      0.12
   15   11    5     -9.29      0.26
   17   11    5      5.40     -0.10
   19   11    5     17.40      0.00
   21   11    5     -0.76      0.16
   23   11    5     -2.79     -0.33
   25   11    5     -1.28      0.06
  -26   12    5     -6.12     -0.19
  -24   12    5     -6.08      0.19
  -22   12    5     -3.56      0.03
  -20   12    5     -5.74     -0.60
  -18   12    5     -3.00     -0.38
  -16   12    5     -7.51     -0.83
  -14   12    5    -13.43      0.61
  -12   12    5     30.24     -0.24
  -10   12    5     25.91      0.75
   -8   12    5     38.90      0.32
   -6   12    5      6.41      0.36
   -4   12    5     63.57      0.65
   -2   12    5      4.12      0.14
    0   12    5     11.02      0.10
    2   12    5     32.48     -0.44
    4   12    5     -9.59      0.32
    6   12    5      5.58     -0.32
    8   12    5     -2.58      0.27
   10   12    5      6.84      0.48
   12   12    5     18.74      0.73
   14   12    5      4.67      0.09
   16   12    5     -6.02      0.07
   18   12    5      2.63      0.48
   20   12    5     -1.67      0.60
   22   12    5      3.91      0.24
   24   12    5      3.85     -0.37
  -27   13    5      5.63     -0.30
  -25   13    5     -1.15     -0.11
  -23   13    5      7.20      0.00
  -21   13    5      9.90     -0.02
  -19   13    5     10.75     -0.04
  -17   13    5      6.17      0.48
  -15   13    5      9.23      0.04
  -13   13    5      1.14      0.33
  -11   13    5     -0.13      0.20
   -9   13    5    -14.39      0.27
   -7   13    5     -9.86      0.11
   -5   13    5     25.15     -0.12
   -3   13    5     12.93      0.15
   -1   13    5     10.35     -0.22
    1   13    5    -24.97      0.08
    3   13    5     -3.35      0.14
    5   13    5    -17.50      0.56
    7   13    5     32.37      0.10
    9   13    5     19.24     -0.45
   11   13    5     -3.68     -0.12
   13   13    5      6.12      0.09
   15   13    5     12.54      0.23
   17   13    5     -9.16      0.36
   19   13    5      2.42     -0.01
   21   13    5    -13.37      0.40
   23   13    5     -4.13     -0.19
  -26   14    5      7.02     -0.30
  -24   14    5      7.28      0.06
  -22   14    5      8.62     -0.14
  -20   14    5      5.30     -0.43
  -18   14    5      0.18      0.09
  -16   14    5      8.98      0.48
  -14   14    5     -7.34      2.05
  -12   14    5    -20.69      0.09
  -10   14    5     -7.53      0.42
   -8   14    5      4.12      0.05
   -6   14    5    -13.05     -0.33
   -4   14    5     11.51      0.36
   -2   14    5     -2.28     -0.32
    0   14    5    -69.07     -0.41
    2   14    5      0.62     -1.08
    4   14    5      1.78      0.24
    6   14    5     -0.58      0.19
    8   14    5    -12.20      0.35
   10   14    5     -8.55     -0.03
   12   14    5    -10.92      0.07
   14   14    5     -4.87      0.24
   16   14    5     -6.36      0.21
   18   14    5    -12.75      0.17
   20   14    5     -1.16     -0.13
   22   14    5     -3.36      0.26
   24   14    5      3.57      0.07
  -25   15    5    -11.51     -0.29
  -23   15    5     -0.39      0.01
  -21   15    5     -0.98      0.32
  -19   15    5     -7.57     -0.06
  -17   15    5      3.00      0.17
  -15   15    5     -8.03     -0.33
  -13   15    5     -7.81     -0.24
  -11   15    5     -4.14      0.07
   -9   15    5     -6.34     -0.23
   -7   15    5      9.11      0.21
   -5   15    5     31.79      0.35
   -3   15    5     24.99     -0.32
   -1   15    5     24.21     -0.54
    1   15    5     34.58     -0.50
    3   15    5     -5.22      0.02
    5   15    5    -42.61      0.45
    7   15    5     -7.39      0.19
    9   15    5     -5.36      0.28
   11   15    5     -7.01      0.50
   13   15    5     -2.00      0.12
   15   15    5      1.19      0.01
   17   15    5    -10.11      0.30
   19   15    5      1.49      0.08
   21   15    5    -10.02      0.35
   23   15    5     -2.74     -0.36
  -26   16    5      0.79     -0.05
  -24   16    5     15.50      0.18
  -22   16    5     20.52      0.08
  -20   16    5     11.91     -0.41
  -18   16    5     -3.53     -0.48
  -16   16    5      2.15     -0.03
  -14   16    5      2.31      0.44
  -12   16    5     -9.62     -0.26
  -10   16    5     15.43     -0.35
   -8   16    5     11.03      0.09
   -6   16    5     28.47      0.04
   -4   16    5     20.52      0.02
   -2   16    5     52.58     -0.07
    0   16    5      5.67     -0.05
    2   16    5     42.90     -0.63
    4   16    5      9.98      0.55
    6   16    5      2.65      0.57
    8   16    5     35.60     -0.07
   10   16    5     21.69     -0.45
   12   16    5     -6.25     -0.37
   14   16    5      7.45      0.00
   16   16    5      4.07     -0.05
   18   16    5     -6.66      0.20
   20   16    5      9.41     -0.05
   22   16    5      6.34      0.10
   24   16    5      3.32      0.03
  -25   17    5     10.49      0.12
  -23   17    5     20.31      0.10
  -21   17    5     16.87      0.20
  -19   17    5     -3.96      0.04
  -17   17    5      7.67      0.23
  -15   17    5      3.02      0.21
  -13   17    5     -3.18     -0.07
  -11   17    5    -10.21      0.39
   -9   17    5      7.16      0.12
   -7   17    5      7.31     -0.22
   -5   17    5      7.81     -0.24
   -3   17    5     33.84     -0.94
   -1   17    5    -17.45     -0.39
    1   17    5     13.86     -0.48
    3   17    5     22.79     -0.28
    5   17    5      6.03     -0.43
    7   17    5    -10.72     -0.02
    9   17    5      2.61      0.39
   11   17    5      4.47      0.05
   13   17    5     -0.99     -0.28
   15   17    5      6.00      0.01
   17   17    5     -0.92      0.87
   19   17    5      7.59      0.44
   21   17    5      5.76      0.45
   23   17    5     11.25     -0.05
  -26   18    5    -12.65     -0.07
  -24   18    5     -1.22      0.27
  -22   18    5      0.24      0.31
  -20   18    5     -7.34      0.10
  -18   18    5     -7.40     -0.20
  -16   18    5     -9.37     -0.20
  -14   18    5    -11.98     -0.57
  -12   18    5    -17.92     -0.12
  -10   18    5     -3.35     -0.43
   -8   18    5    -32.70     -0.22
   -6   18    5      7.40     -0.34
   -4   18    5    -11.31     -0.71
   -2   18    5     10.25     -0.03
    0   18    5    -12.13     -0.09
    2   18    5     -6.55     -0.02
    4   18    5    -30.65     -0.25
    6   18    5    -31.42     -0.49
    8   18    5     -9.49     -0.03
   10   18    5    -22.45      0.70
   12   18    5    -23.44      0.09
   14   18    5     -3.83      0.33
   16   18    5      5.23     -0.02
   18   18    5     -0.82      0.27
   20   18    5      2.43      0.49
   22   18    5      2.82     -0.14
  -25   19    5      4.80      0.08
  -23   19    5     -2.39     -0.08
  -21   19    5      2.44      0.17
  -19   19    5    -11.76     -0.33
  -17   19    5     -1.29     -0.35
  -15   19    5      3.00     -0.38
  -13   19    5      4.56     -0.57
  -11   19    5    -11.66     -0.28
   -9   19    5     -1.15     -0.53
   -7   19    5      9.59     -0.34
   -5   19    5     23.39     -0.31
   -3   19    5     42.17     -0.39
   -1   19    5    -32.13      0.22
    1   19    5     -4.89     -0.13
    3   19    5     18.12      0.30
    5   19    5     28.79     -1.24
    7   19    5      1.47     -1.23
    9   19    5     19.81      0.28
   11   19    5      3.33     -0.29
   13   19    5     -0.33      0.06
   15   19    5      0.65     -0.31
   17   19    5      2.10      0.19
   19   19    5     10.53      0.23
   21   19    5     12.84      0.29
   23   19    5      5.25     -0.05
  -24   20    5     -3.89      0.23
  -22   20    5      2.61     -0.12
  -20   20    5      5.77     -0.13
  -18   20    5      3.45     -0.10
  -16   20    5    -13.40     -0.13
  -14   20    5      0.16     -0.17
  -12   20    5     11.35      0.18
  -10   20    5     34.93      0.35
   -8   20    5     -4.30     -0.30
   -6   20    5    -11.59     -0.51
   -4   20    5    -19.05      0.01
   -2   20    5      6.31      0.29
    0   20    5     15.40      0.14
    2   20    5     19.21      0.36
    4   20    5      3.48     -0.56
    6   20    5     -8.88     -0.11
    8   20    5      3.22     -0.39
   10   20    5     17.33      0.18
   12   20    5     27.07     -0.16
   14   20    5     14.54      0.07
   16   20    5     13.19      0.14
   18   20    5     12.61      0.15
   20   20    5     14.08      0.31
   22   20    5     10.83     -0.32
  -25   21    5      4.99      0.05
  -23   21    5    -17.38     -0.03
  -21   21    5    -12.31      0.16
  -19   21    5    -14.82     -0.04
  -17   21    5     -1.64      0.52
  -15   21    5    -11.00      0.00
  -13   21    5     -9.58     -0.06
  -11   21    5     -7.48      0.06
   -9   21    5    -10.46      0.15
   -7   21    5    -12.14      0.79
   -5   21    5     -7.00     -0.11
   -3   21    5    -18.71      0.25
   -1   21    5    -43.38      0.32
    1   21    5    -18.00      0.31
    3   21    5    -17.50      0.86
    5   21    5     -6.79     -1.27
    7   21    5    -28.66     -1.21
    9   21    5     -9.88      1.36
   11   21    5    -18.31      0.40
   13   21    5      0.02      0.39
   15   21    5    -11.74     -0.10
   17   21    5      0.15      0.08
   19   21    5     -1.23      0.00
   21   21    5      3.47      0.12
   23   21    5    -11.21     -0.04
  -24   22    5     -7.85      0.27
  -22   22    5    -14.59      0.09
  -20   22    5    -17.26      0.02
  -18   22    5     -9.86      0.05
  -16   22    5    -13.50     -0.23
  -14   22    5     14.45      0.12
  -12   22    5      9.48     -0.15
  -10   22    5      3.82      0.18
   -8   22    5    -18.73     -0.21
   -6   22    5    -26.84     -0.25
   -4   22    5     -0.33      0.60
   -2   22    5    -14.38      0.68
    0   22    5    -14.09      0.16
    2   22    5    -11.55      0.55
    4   22    5    -13.19     -0.09
    6   22    5    -12.58     -0.78
    8   22    5     -9.10     -1.07
   10   22    5     -0.94     -0.40
   12   22    5      3.11     -0.12
   14   22    5    -10.51      0.13
   16   22    5    -16.37     -0.16
   18   22    5     -8.26     -0.14
   20   22    5     -8.00      0.34
   22   22    5     -8.89     -0.18
  -23   23    5    -12.57     -0.01
  -21   23    5     -0.93      0.06
  -19   23    5     -0.91     -0.19
  -17   23    5      6.93      0.19
  -15   23    5      5.08      0.12
  -13   23    5      0.99      0.31
  -11   23    5     13.52      0.46
   -9   23    5     15.60     -0.09
   -7   23    5     -0.80      0.08
   -5   23    5     -1.86      0.31
   -3   23    5     -7.64      1.06
   -1   23    5     13.16      0.22
    1   23    5     17.26      0.29
    3   23    5     -0.21      0.21
    5   23    5      6.00      0.94
    7   23    5     16.36     -0.61
    9   23    5     18.95     -0.88
   11   23    5      9.76     -0.01
   13   23    5     18.99      0.21
   15   23    5     -6.62     -0.24
   17   23    5     10.58      0.06
   19   23    5      2.68     -0.31
   21   23    5     12.86     -0.07
  -24   24    5     -2.56      0.38
  -22   24    5      3.94      0.56
  -20   24    5     -7.85     -0.15
  -18   24    5      5.66      0.20
  -16   24    5     -3.35      0.08
  -14   24    5      0.66      0.54
  -12   24    5      9.93      0.12
  -10   24    5     11.05     -0.19
   -8   24    5     12.99      0.60
   -6   24    5    -13.01      0.92
   -4   24    5      5.26      0.40
   -2   24    5    -11.96      0.05
    0   24    5     22.72     -1.13
    2   24    5     22.03      0.53
    4   24    5     -8.27      0.92
    6   24    5    -15.38     -0.57
    8   24    5     -3.70      0.35
   10   24    5      4.11      0.82
   12   24    5      1.54      0.10
   14   24    5     -9.55      0.27
   16   24    5    -29.24      0.36
   18   24    5     -8.07     -0.06
   20   24    5     -5.96     -0.05
   22   24    5     -8.49     -0.14
  -23   25    5      6.91      0.24
  -21   25    5     -2.89      0.08
  -19   25    5     -4.87     -0.28
  -17   25    5     -3.38     -0.59
  -15   25    5     12.33     -0.12
  -13   25    5      0.70     -0.11
  -11   25    5     -3.62     -0.20
   -9   25    5      3.54     -0.56
   -7   25    5    -15.93     -0.29
   -5   25    5    -15.92     -0.25
   -3   25    5    -10.82      0.22
   -1   25    5      2.13      0.11
    1   25    5     -9.19      0.52
    3   25    5    -24.20      0.67
    5   25    5    -33.02      2.38
    7   25    5     -0.82     -0.13
    9   25    5     -7.02     -0.62
   11   25    5     -7.91      0.14
   13   25    5    -15.57      0.27
   15   25    5    -19.94     -0.27
   17   25    5     -2.35     -0.11
   19   25    5    -13.08      0.08
   21   25    5     -3.46     -0.10
  -22   26    5     17.72      0.18
  -20   26    5     -6.98     -0.53
  -18   26    5      4.09     -0.33
  -16   26    5     12.83     -0.48
  -14   26    5      2.26     -0.26
  -12   26    5     -1.39      0.23
  -10   26    5    -15.22      0.01
   -8   26    5      3.59     -0.16
   -6   26    5      1.06      0.25
   -4   26    5     15.55     -0.20
   -2   26    5     -8.32      0.38
    0   26    5      1.86     -0.74
    2   26    5     -2.45      0.01
    4   26    5     -1.07      0.24
    6   26    5     24.37     -0.10
    8   26    5     25.21     -1.14
   10   26    5     -1.22     -0.01
   12   26    5     -4.59      0.08
   14   26    5      7.06     -0.35
   16   26    5     -4.76      0.01
   18   26    5     10.76     -0.14
   20   26    5      9.09      0.05
  -23   27    5     12.28      0.07
  -21   27    5      7.09     -0.18
  -19   27    5     13.42     -0.03
  -17   27    5      0.55     -0.05
  -15   27    5      2.28      0.36
  -13   27    5      1.91      0.43
  -11   27    5      2.14     -0.09
   -9   27    5     15.71     -0.15
   -7   27    5      9.32      0.57
   -5   27    5      9.96     -0.17
   -3   27    5     15.10     -0.14
   -1   27    5     18.62      0.15
    1   27    5     23.43     -0.08
    3   27    5     20.96      0.01
    5   27    5     -4.02     -0.45
    7   27    5     14.29     -1.55
    9   27    5      1.81      1.19
   11   27    5      9.51      0.11
   13   27    5     -5.41      0.26
   15   27    5     -0.43      0.09
   17   27    5     -6.11      0.13
   19   27    5     -2.45      0.15
  -22   28    5     19.89     -0.09
  -20   28    5      5.96      0.01
  -18   28    5      0.26     -0.09
  -16   28    5      4.56     -0.19
  -14   28    5     -0.42     -0.07
  -12   28    5     -6.75      0.25
  -10   28    5     -7.20      0.05
   -8   28    5      8.58     -0.50
   -6   28    5      0.08      0.05
   -4   28    5     -3.71     -0.49
   -2   28    5     -5.92      0.52
    0   28    5     -7.45     -0.28
    2   28    5     -5.99      0.11
    4   28    5    -12.79      0.13
    6   28    5     -9.90      0.99
    8   28    5     -3.34     -0.93
   10   28    5     -9.31     -0.09
   12   28    5     -7.62     -0.51
   14   28    5      7.25     -0.39
   16   28    5      5.33     -0.15
   18   28    5     -1.04     -0.28
   20   28    5      7.99     -0.05
  -21   29    5      9.37     -0.37
  -19   29    5      6.94     -0.02
  -17   29    5     -6.11      0.18
  -15   29    5     -2.37      0.02
  -13   29    5     -1.18      0.34
  -11   29    5    -19.47      0.22
   -9   29    5    -22.30      0.16
   -7   29    5    -10.08     -0.04
   -5   29    5      5.60     -0.50
   -3   29    5     -2.87     -0.49
   -1   29    5    -20.91      0.08
    1   29    5    -14.79     -0.28
    3   29    5     -3.15     -0.63
    5   29    5     -4.32     -1.15
    7   29    5      1.07     -1.73
    9   29    5     -9.17      0.19
   11   29    5      2.12     -0.84
   13   29    5      5.37     -0.38
   15   29    5     20.38     -0.32
   17   29    5      0.15     -0.02
   19   29    5     11.84      0.27
  -20   30    5     16.22      0.41
  -18   30    5      0.32      0.14
  -16   30    5      0.82     -0.09
  -14   30    5      2.29      0.08
  -12   30    5     -8.09      0.28
  -10   30    5     -5.80      0.53
   -8   30    5     -0.40      0.05
   -6   30    5     12.49      0.18
   -4   30    5     14.19     -0.34
   -2   30    5     19.26      0.35
    0   30    5      4.04     -0.28
    2   30    5     14.35     -0.39
    4   30    5     13.67     -1.28
    6   30    5      6.54     -1.02
    8   30    5      5.95     -0.77
   10   30    5     -2.05      0.23
   12   30    5     -1.74     -0.35
   14   30    5     13.20      0.34
   16   30    5      8.41      0.08
   18   30    5    -21.60      0.18
  -21   31    5     -6.96     -0.27
  -19   31    5     -2.45      0.01
  -17   31    5    -13.55      0.16
  -15   31    5     -0.24      0.02
  -13   31    5      1.92      0.45
  -11   31    5     -7.34      0.07
   -9   31    5     -1.18      0.15
   -7   31    5      3.68     -0.24
   -5   31    5      9.34      0.04
   -3   31    5      1.72     -0.04
   -1   31    5    -17.48     -0.10
    1   31    5     -3.91      0.15
    3   31    5      5.30     -0.62
    5   31    5     -7.49     -0.49
    7   31    5    -19.63     -0.59
    9   31    5     -4.66     -0.36
   11   31    5      2.15     -0.08
   13   31    5      0.73     -0.31
   15   31    5      9.21      0.04
   17   31    5    -11.08      0.03
   19   31    5      0.23      0.21
  -20   32    5     20.83     -0.12
  -18   32    5     -9.97      0.14
  -16   32    5     -2.18     -0.19
  -14   32    5     -2.89      0.01
  -12   32    5    -13.64      0.09
  -10   32    5     -6.75      0.81
   -8   32    5    -15.31      0.23
   -6   32    5     -8.02     -0.15
   -4   32    5    -15.98     -0.31
   -2   32    5    -14.28     -0.33
    0   32    5    -13.70     -0.08
    2   32    5     -2.68     -0.31
    4   32    5     -5.59      0.08
    6   32    5    -14.00     -0.01
    8   32    5     -4.09      0.15
   10   32    5      3.90     -0.45
   12   32    5      7.34     -0.63
   14   32    5     14.68      0.29
   16   32    5      9.17      0.04
   18   32    5     -4.87      0.22
  -19   33    5      2.59     -0.16
  -17   33    5    -10.43     -0.05
  -15   33    5      3.64      0.11
  -13   33    5     -6.84      0.27
  -11   33    5     -9.51     -0.21
   -9   33    5     -7.83      0.28
   -7   33    5     -5.06     -0.02
   -5   33    5      6.60      0.02
   -3   33    5      6.23      0.28
   -1   33    5    -12.92     -0.11
    1   33    5      8.46      0.31
    3   33    5     10.73     -0.29
    5   33    5     -7.42      0.02
    7   33    5    -17.22      0.07
    9   33    5      3.82     -0.59
   11   33    5     10.24      0.65
   13   33    5      0.70     -0.07
   15   33    5     -1.53      0.13
   17   33    5     -8.78      0.14
  -18   34    5    -15.80      0.17
  -16   34    5      6.93      0.05
  -14   34    5      5.52      0.04
  -12   34    5     -5.48     -0.43
  -10   34    5     -1.35      0.37
   -8   34    5     -9.11      0.52
   -6   34    5      2.20      0.13
   -4   34    5     15.05      0.24
   -2   34    5      4.25     -0.38
    0   34    5     -7.18      0.32
    2   34    5      2.59      0.04
    4   34    5      1.76      0.43
    6   34    5     -3.90     -0.08
    8   34    5      4.18      0.46
   10   34    5      7.54      0.01
   12   34    5     -0.46     -0.01
   14   34    5     -8.38     -0.05
   16   34    5    -19.74     -0.09
  -19   35    5      1.09      0.10
  -17   35    5     -3.39      0.13
  -15   35    5      6.20      0.20
  -13   35    5     -6.99      0.31
  -11   35    5      4.65      0.04
   -9   35    5      2.75      0.45
   -7   35    5     -0.56      0.47
   -5   35    5      1.81     -0.02
   -3   35    5     -2.81      0.27
   -1   35    5    -10.48      0.08
    1   35    5      0.52      0.05
    3   35    5     -4.04      0.18
    5   35    5     -6.58      0.30
    7   35    5     -0.22      0.27
    9   35    5     12.33     -0.26
   11   35    5     18.34      0.27
   13   35    5      9.01     -0.33
   15   35    5      1.40     -0.31
  -18   36    5    -12.08      0.26
  -16   36    5     -9.61      0.46
  -14   36    5    -12.27     -0.14
  -12   36    5     -6.72     -0.21
  -10   36    5      0.42      0.56
   -8   36    5    -11.51      1.02
   -6   36    5     -9.86      0.08
   -4   36    5      3.48     -0.18
   -2   36    5     -3.60     -0.43
    0   36    5     -0.68      0.31
    2   36    5     13.57      0.20
    4   36    5     -6.25      0.59
    6   36    5    -11.68      0.14
    8   36    5    -12.38      0.11
   10   36    5     -1.64     -0.34
   12   36    5     -1.48     -0.49
   14   36    5     -7.63     -0.55
   16   36    5    -17.69      0.20
  -17   37    5     15.70      0.14
  -15   37    5     11.71      0.40
  -13   37    5      8.22     -0.09
  -11   37    5     10.81     -0.30
   -9   37    5      6.67     -0.23
   -7   37    5     -1.52      0.05
   -5   37    5      3.91     -0.05
   -3   37    5      4.20      0.09
   -1   37    5      7.51      0.12
    1   37    5     10.54     -0.32
    3   37    5      5.01      0.29
    5   37    5     -3.27     -0.08
    7   37    5      7.11      0.04
    9   37    5      3.07     -0.26
   11   37    5      7.17     -0.19
   13   37    5      3.49     -0.04
   15   37    5    -20.62     -0.20
  -16   38    5     11.95      0.29
  -14   38    5     14.75      0.12
  -12   38    5     12.59      0.51
  -10   38    5      9.01     -0.96
   -8   38    5      4.53     -0.38
   -6   38    5     17.81      0.04
   -4   38    5     16.17      0.58
   -2   38    5     10.37      0.14
    0   38    5     -0.33     -0.66
    2   38    5     -1.66     -0.58
    4   38    5     -1.78      0.09
    6   38    5     18.30     -0.20
    8   38    5     10.43     -0.02
   10   38    5     11.10      0.27
   12   38    5      3.92     -0.41
   14   38    5     10.23     -0.18
  -15   39    5    -14.69      0.56
  -13   39    5      1.68     -0.08
  -11   39    5     -4.93      0.44
   -9   39    5     12.64     -1.16
   -7   39    5     -1.85     -1.49
   -5   39    5     -0.97     -0.15
   -3   39    5      0.84     -0.62
   -1   39    5      6.23      0.20
    1   39    5      4.00     -0.23
    3   39    5    -10.34      0.35
    5   39    5    -15.83      0.24
    7   39    5      5.05      0.10
    9   39    5    -11.92     -0.24
   11   39    5    -10.93     -0.05
   13   39    5     -3.58      0.04
  -14   40    5     12.33     -0.14
  -12   40    5     10.15      0.05
  -10   40    5      0.71     -0.58
   -8   40    5     -7.18      0.65
   -6   40    5      1.47     -0.18
   -4   40    5     -1.74      0.23
   -2   40    5      9.92      0.39
    0   40    5      5.12     -0.40
    2   40    5     -0.30      0.07
    4   40    5     -6.90     -0.05
    6   40    5      2.11      0.07
    8   40    5     -3.39      0.00
   10   40    5     -7.85      0.20
   12   40    5    -11.54     -0.15
  -13   41    5     16.21      0.37
  -11   41    5    -13.23      0.74
   -9   41    5     10.69     -1.61
   -7   41    5      0.77     -1.57
   -5   41    5     -8.19      1.26
   -3   41    5     -1.78      0.30
   -1   41    5      6.15      0.38
    1   41    5     10.05     -0.39
    3   41    5     -2.93      0.14
    5   41    5     -4.73      0.23
    7   41    5      9.56     -0.33
    9   41    5      4.54      0.10
   11   41    5      3.13      0.05
  -12   42    5    -11.71      0.07
  -10   42    5    -17.86     -0.01
   -8   42    5     -6.49     -0.92
   -6   42    5     -1.52     -1.14
   -4   42    5      4.21     -0.20
   -2   42    5     -4.47      0.05
    0   42    5    -19.89     -0.05
    2   42    5    -20.92      0.09
    4   42    5    -18.26     -0.33
    6   42    5      0.92      0.40
    8   42    5      2.48     -0.14
   10   42    5    -11.39      0.09
  -11   43    5    -13.45      0.36
   -9   43    5     -9.41      0.45
   -7   43    5    -11.78     -0.81
   -5   43    5    -19.69      0.13
   -3   43    5     -0.86      0.70
   -1   43    5     -7.94      0.54
    1   43    5      2.93      0.04
    3   43    5     -7.16      0.12
    5   43    5    -12.51      0.12
    7   43    5     -7.14     -0.12
    9   43    5     -5.70      0.37
  -10   44    5     -6.19      1.35
   -8   44    5      2.68     -0.42
   -6   44    5    -17.72      0.46
   -4   44    5     -3.50      0.44
   -2   44    5     -4.39     -0.32
    0   44    5     -7.56      0.43
    2   44    5     -6.04      0.39
    4   44    5    -10.04     -0.05
    6   44    5      2.85      0.17
    8   44    5     14.79     -0.26
   -9   45    5     -8.44      0.63
   -7   45    5      1.18     -0.96
   -5   45    5     -7.06     -0.19
   -3   45    5     -0.14      0.41
   -1   45    5    -27.58      0.04
    1   45    5      1.98     -0.03
    3   45    5     -2.41     -0.25
    5   45    5     -5.82     -0.10
   -6   46    5    -10.47     -1.14
   -4   46    5      0.92      0.00
   -2   46    5      7.93      0.04
    0   46    5     -0.12      0.26
    2   46    5      3.61     -0.05
    4   46    5     -0.74     -0.09
   -1   47    5     -5.06      0.29
  -28    0    6      2.11     -0.76
  -26    0    6      2.91     -5.02
  -24    0    6     14.45     -5.04
  -22    0    6     12.06     -1.19
  -20    0    6     34.35     -1.52
  -18    0    6     30.27     -0.75
  -16    0    6      7.17     -0.19
  -14    0    6      3.00      0.40
  -12    0    6     33.03     -0.42
  -10    0    6     41.80     -0.32
   -8    0    6    -69.71     -0.03
   -6    0    6    -71.89     -0.46
   -4    0    6   -112.31     -0.60
   -2    0    6     54.44     -0.92
    0    0    6    103.68     -0.42
    2    0    6     75.78     -0.33
    4    0    6    -31.79      0.05
    6    0    6     17.45      0.21
    8    0    6     20.30     -0.34
   10    0    6     23.03      0.56
   12    0    6     16.35      0.06
   14    0    6     35.28      0.12
   16    0    6     12.30      0.28
   18    0    6     18.04      0.55
   20    0    6      9.77      0.87
   22    0    6      3.92      0.31
   24    0    6      9.52     -0.20
  -27    1    6    -13.11      1.15
  -25    1    6     -8.90     -1.67
  -23    1    6     -9.14      1.81
  -21    1    6     -0.55      0.51
  -19    1    6     -7.90      1.24
  -17    1    6      2.86      0.90
  -15    1    6     -7.23      1.33
  -13    1    6     -1.05     -0.98
  -11    1    6    -39.98     -0.24
   -9    1    6    -17.08      0.06
   -7    1    6    -25.30      0.42
   -5    1    6      8.79      0.13
   -3    1    6    140.94     -0.09
   -1    1    6     -8.12     -0.39
    1    1    6    -64.61      0.32
    3    1    6    -39.89      0.14
    5    1    6     67.03     -0.04
    7    1    6      3.45      0.31
    9    1    6      0.75      0.43
   11    1    6     -3.28      0.00
   13    1    6     -0.97      0.58
   15    1    6     -6.71     -0.20
   17    1    6     13.53      0.28
   19    1    6    -14.96     -0.37
   21    1    6     -9.13      0.14
   23    1    6      4.02     -0.12
   25    1    6      9.89     -0.06
  -28    2    6     -9.10      1.00
  -26    2    6    -10.73      0.71
  -24    2    6     -3.12      0.58
  -22    2    6     -2.58      0.89
  -20    2    6      4.15      0.24
  -18    2    6    -12.56     -0.24
  -16    2    6     -4.06     -1.30
  -14    2    6      6.73      1.64
  -12    2    6    -14.33      0.15
  -10    2    6    -12.77     -0.84
   -8    2    6    -39.51      0.19
   -6    2    6    -14.86     -0.63
   -4    2    6     15.28      0.57
   -2    2    6    131.26      0.23
    0    2    6      9.76      0.69
    2    2    6    -35.30      0.69
    4    2    6    -11.63      0.10
    6    2    6     27.18      0.41
    8    2    6     -9.99     -0.55
   10    2    6    -16.88      0.85
   12    2    6    -32.60      0.39
   14    2    6     -7.58      0.25
   16    2    6     -1.07      0.22
   18    2    6     -2.98     -0.24
   20    2    6    -19.30     -0.23
   22    2    6     -6.01     -0.12
   24    2    6      8.09      0.01
  -27    3    6      6.53     -3.04
  -25    3    6     22.02     -9.67
  -23    3    6      6.66     -2.74
  -21    3    6      4.72     -0.90
  -19    3    6     19.41      0.64
  -17    3    6     21.32      0.50
  -15    3    6     -1.28      1.81
  -13    3    6     14.55     -0.73
  -11    3    6      7.52     -0.39
   -9    3    6    -23.18      0.24
   -7    3    6    -12.93      0.09
   -5    3    6    -18.15     -0.12
   -3    3    6    -94.30     -0.45
   -1    3    6    -60.54     -0.14
    1    3    6     20.20      0.61
    3    3    6    -16.85      0.95
    5    3    6     -8.62      0.29
    7    3    6     29.04     -0.05
    9    3    6     27.99     -0.15
   11    3    6      0.81     -0.22
   13    3    6     14.13      0.45
   15    3    6      9.26     -0.05
   17    3    6     10.56      0.24
   19    3    6      8.25     -0.04
   21    3    6      7.60      0.50
   23    3    6     -5.55     -0.15
   25    3    6      7.34     -0.19
  -28    4    6      5.25     -0.72
  -26    4    6      4.82     -0.71
  -24    4    6     -0.86     -0.79
  -22    4    6     -3.88     -0.27
  -20    4    6      7.67     -0.01
  -18    4    6    -12.66      0.83
  -16    4    6     -6.17     -0.19
  -14    4    6      4.14      0.12
  -12    4    6    -14.22      0.09
  -10    4    6     27.68     -0.92
   -8    4    6     54.33      0.03
   -6    4    6    -23.62      0.04
   -4    4    6    -59.33      0.71
   -2    4    6     13.51      0.10
    0    4    6     13.64      0.61
    2    4    6     13.89      0.77
    4    4    6      9.65     -0.49
    6    4    6    -32.81      0.01
    8    4    6    -25.68     -0.17
   10    4    6     33.10      0.55
   12    4    6     12.55      0.05
   14    4    6     -8.13      0.16
   16    4    6     -1.53     -0.08
   18    4    6      6.73      0.09
   20    4    6      5.26      0.27
   22    4    6      4.64      0.34
   24    4    6     -2.86      0.25
  -27    5    6     -2.65      0.60
  -25    5    6      5.19     -2.08
  -23    5    6    -11.23      0.97
  -21    5    6    -15.06      0.61
  -19    5    6    -15.54      1.53
  -17    5    6    -10.40     -0.73
  -15    5    6      1.69      0.39
  -13    5    6      4.66      0.08
  -11    5    6      9.18     -0.44
   -9    5    6     16.24      0.39
   -7    5    6     47.16      0.03
   -5    5    6     25.35     -0.03
   -3    5    6    -45.60     -0.11
   -1    5    6     60.90      0.17
    1    5    6     16.73      0.64
    3    5    6     19.03      0.28
    5    5    6    -46.43      0.40
    7    5    6    -12.36     -0.16
    9    5    6     -5.47     -0.01
   11    5    6    -19.52      0.31
   13    5    6    -12.34      0.29
   15    5    6    -10.71     -0.01
   17    5    6    -10.76      0.08
   19    5    6    -11.45      0.04
   21    5    6     -6.88      0.14
   23    5    6    -12.03      0.27
   25    5    6     -2.09      0.23
  -28    6    6      5.90     -0.78
  -26    6    6     16.38     -2.54
  -24    6    6     15.45     -2.87
  -22    6    6    -10.09     -0.35
  -20    6    6     -1.10     -0.50
  -18    6    6      2.40      0.23
  -16    6    6     -4.08     -0.13
  -14    6    6      4.21     -0.63
  -12    6    6    -13.06      0.46
  -10    6    6    -37.69     -0.94
   -8    6    6      9.77      0.01
   -6    6    6     29.36      0.08
   -4    6    6    -33.40     -0.17
   -2    6    6   -164.48     -0.21
    0    6    6   -104.61      0.03
    2    6    6    -41.21      0.31
    4    6    6      3.04     -0.15
    6    6    6      4.35      0.27
    8    6    6     10.08      0.09
   10    6    6     -8.07     -0.11
   12    6    6     -7.40     -0.32
   14    6    6      3.94     -0.02
   16    6    6     -2.96      0.03
   18    6    6     -8.75     -0.10
   20    6    6      3.01     -0.34
   22    6    6    -12.23      0.11
   24    6    6    -17.49      0.11
  -27    7    6     10.20     -0.58
  -25    7    6      8.36     -0.51
  -23    7    6     -3.01     -0.49
  -21    7    6      0.99      0.19
  -19    7    6    -11.69      0.74
  -17    7    6     -5.01     -0.75
  -15    7    6     24.94     -1.46
  -13    7    6      0.46     -0.65
  -11    7    6      1.54     -0.67
   -9    7    6     42.43     -0.84
   -7    7    6     33.16     -0.41
   -5    7    6    -24.50      0.00
   -3    7    6    -46.69      0.04
   -1    7    6     48.83     -0.16
    1    7    6    -53.10      0.20
    3    7    6     42.52     -0.41
    5    7    6    -18.70      0.13
    7    7    6    -16.78      0.03
    9    7    6      7.00      0.21
   11    7    6     24.01      0.01
   13    7    6      8.71      0.24
   15    7    6      1.96      0.20
   17    7    6      3.69     -0.25
   19    7    6      9.44      0.27
   21    7    6      6.98      0.08
   23    7    6     -1.33      0.56
   25    7    6     -8.72      0.61
  -26    8    6     -4.73      1.08
  -24    8    6     -1.89      0.54
  -22    8    6    -14.32      0.33
  -20    8    6    -14.44     -0.27
  -18    8    6     -8.72      0.08
  -16    8    6    -12.07      0.20
  -14    8    6      4.63     -0.09
  -12    8    6     23.23     -0.05
  -10    8    6     10.97     -0.71
   -8    8    6     46.27      0.31
   -6    8    6     34.39      0.15
   -4    8    6     31.43      0.18
   -2    8    6    -18.41      0.26
    0    8    6     25.53      0.33
    2    8    6     18.29     -0.43
    4    8    6     30.11     -0.40
    6    8    6    -27.68      0.23
    8    8    6     -6.74     -0.19
   10    8    6    -18.70      0.14
   12    8    6     11.88      0.44
   14    8    6      3.60     -0.06
   16    8    6    -17.08     -0.20
   18    8    6    -11.59      0.01
   20    8    6      7.13     -0.25
   22    8    6      8.41      0.12
   24    8    6     -6.39      0.13
  -27    9    6      5.46     -0.36
  -25    9    6      6.97      0.26
  -23    9    6     -2.26     -0.37
  -21    9    6     -4.79      0.63
  -19    9    6      0.43     -0.43
  -17    9    6     -4.48      0.27
  -15    9    6     -2.85     -0.92
  -13    9    6    -11.09     -0.10
  -11    9    6    -21.41      0.03
   -9    9    6    -21.20     -0.78
   -7    9    6    -16.73      0.42
   -5    9    6    -26.15     -0.01
   -3    9    6    -60.70     -0.44
   -1    9    6    -52.60     -0.18
    1    9    6    -86.53     -0.02
    3    9    6      1.30     -0.48
    5    9    6    -14.55      0.15
    7    9    6     -1.52      0.49
    9    9    6    -12.92      0.22
   11    9    6     -3.00     -0.45
   13    9    6     -0.14     -0.63
   15    9    6      3.60     -0.16
   17    9    6    -16.80     -0.49
   19    9    6     -1.77     -0.34
   21    9    6     -8.39     -0.46
   23    9    6    -12.10     -0.30
  -26   10    6      5.22      0.18
  -24   10    6      6.77     -0.36
  -22   10    6      6.30     -0.50
  -20   10    6      2.96     -0.01
  -18   10    6     -5.48     -0.20
  -16   10    6     12.63      0.01
  -14   10    6     15.42     -0.06
  -12   10    6      3.32     -0.03
  -10   10    6      1.66     -0.38
   -8   10    6     16.02      0.14
   -6   10    6    -41.40     -0.39
   -4   10    6     -6.37      0.37
   -2   10    6     17.86      0.74
    0   10    6    -13.62      0.49
    2   10    6    -43.23     -0.23
    4   10    6     62.04     -0.14
    6   10    6     -1.69      0.48
    8   10    6      6.01      0.09
   10   10    6    -11.38      0.14
   12   10    6     17.44      0.36
   14   10    6      9.48      0.51
   16   10    6      0.24     -0.15
   18   10    6      7.71      0.14
   20   10    6      4.66      0.03
   22   10    6     15.40      0.15
   24   10    6      4.54      0.11
  -27   11    6      1.75     -0.52
  -25   11    6     -0.07     -0.58
  -23   11    6     -4.30     -0.60
  -21   11    6     -9.80      0.50
  -19   11    6      8.06     -0.13
  -17   11    6     11.59      1.01
  -15   11    6      7.39      0.37
  -13   11    6     18.29      0.57
  -11   11    6      2.88      0.68
   -9   11    6    -25.25     -0.21
   -7   11    6     16.08      0.17
   -5   11    6     55.71      0.55
   -3   11    6     60.84      0.37
   -1   11    6      9.19      0.52
    1   11    6      7.89     -0.08
    3   11    6      7.46     -0.55
    5   11    6     13.70      0.02
    7   11    6     25.53     -0.21
    9   11    6    -13.41     -0.36
   11   11    6      0.21      0.48
   13   11    6      3.89      0.07
   15   11    6      5.40     -0.01
   17   11    6    -10.69     -0.43
   19   11    6     13.79     -0.12
   21   11    6     13.43      0.05
   23   11    6     20.78     -0.11
  -26   12    6     -9.63     -0.22
  -24   12    6     -3.03     -0.51
  -22   12    6      1.73     -0.22
  -20   12    6     21.07     -0.18
  -18   12    6     -3.42      0.01
  -16   12    6    -13.27      0.80
  -14   12    6    -14.23      0.44
  -12   12    6     -5.67      0.60
  -10   12    6      3.27     -0.45
   -8   12    6     -8.40      0.29
   -6   12    6    -75.83      0.24
   -4   12    6    -59.92     -0.18
   -2   12    6      6.29      0.28
    0   12    6     41.81      0.20
    2   12    6     -6.66      0.02
    4   12    6     12.79      0.11
    6   12    6    -50.82      0.46
    8   12    6     -4.00      0.05
   10   12    6     -4.78     -0.18
   12   12    6      3.74     -0.47
   14   12    6      6.45     -0.13
   16   12    6     -1.90     -0.50
   18   12    6     -0.52     -0.31
   20   12    6     -1.54     -0.76
   22   12    6      2.70     -0.06
   24   12    6      0.05     -0.16
  -27   13    6     17.10      0.07
  -25   13    6      8.77     -0.75
  -23   13    6      5.37     -0.15
  -21   13    6      0.18      0.39
  -19   13    6      7.51      0.36
  -17   13    6      6.01      0.28
  -15   13    6      5.48     -0.28
  -13   13    6    -12.70     -0.45
  -11   13    6    -15.28     -0.18
   -9   13    6     -6.65      0.56
   -7   13    6      8.97      0.15
   -5   13    6    -21.63      0.14
   -3   13    6      5.29      0.60
   -1   13    6    -29.40      0.64
    1   13    6      5.09      0.57
    3   13    6     11.31      0.09
    5   13    6     22.55      0.31
    7   13    6     -6.60      0.53
    9   13    6    -17.10      0.44
   11   13    6     10.61      0.54
   13   13    6     -0.40      0.21
   15   13    6      5.18      0.37
   17   13    6     -3.79      0.18
   19   13    6      3.93      0.19
   21   13    6     -9.62      0.30
   23   13    6      8.12      0.07
  -26   14    6     -4.35     -0.38
  -24   14    6      6.74     -0.12
  -22   14    6     -1.00      0.33
  -20   14    6     12.29     -0.28
  -18   14    6      3.89     -0.30
  -16   14    6      7.13      0.04
  -14   14    6     13.49     -0.02
  -12   14    6     18.01      0.53
  -10   14    6     -9.87     -0.39
   -8   14    6    -19.72     -0.99
   -6   14    6      3.12      0.04
   -4   14    6     24.82     -0.38
   -2   14    6     28.24      0.31
    0   14    6     51.59      0.06
    2   14    6     10.61     -0.43
    4   14    6    -14.35      0.44
    6   14    6     -6.27      0.30
    8   14    6     18.73      0.09
   10   14    6     -3.44      0.13
   12   14    6     -8.42     -0.03
   14   14    6      0.46      0.24
   16   14    6     10.12      0.00
   18   14    6      1.59      0.35
   20   14    6     -3.92     -0.20
   22   14    6      5.54      0.32
   24   14    6      8.12      0.23
  -25   15    6    -14.24     -1.22
  -23   15    6     -6.26     -0.49
  -21   15    6      0.45     -0.25
  -19   15    6     -3.80     -0.07
  -17   15    6    -14.16     -0.06
  -15   15    6      9.65     -0.30
  -13   15    6     -2.68     -0.22
  -11   15    6    -14.95     -0.57
   -9   15    6     -4.71     -0.06
   -7   15    6      5.71     -0.09
   -5   15    6    -20.58     -0.54
   -3   15    6     24.22     -0.02
   -1   15    6     12.08     -0.37
    1   15    6     21.82      0.28
    3   15    6     25.47      0.30
    5   15    6     19.28      0.67
    7   15    6    -10.57      0.70
    9   15    6     13.99      0.15
   11   15    6      8.91     -0.20
   13   15    6     -6.44     -0.08
   15   15    6      8.18     -0.26
   17   15    6      0.83     -0.15
   19   15    6      2.96     -0.92
   21   15    6     -8.94     -0.29
   23   15    6     -4.68      0.14
  -26   16    6     -0.86     -0.23
  -24   16    6      6.99      0.15
  -22   16    6     -0.63      0.29
  -20   16    6      2.20     -0.18
  -18   16    6     -5.52     -0.31
  -16   16    6     -9.72     -0.85
  -14   16    6    -11.87     -0.49
  -12   16    6     -5.12     -0.86
  -10   16    6     10.58     -0.15
   -8   16    6      7.13     -0.71
   -6   16    6    -15.94      0.71
   -4   16    6    -30.10      0.15
   -2   16    6    -13.64      0.02
    0   16    6     13.21      0.04
    2   16    6     32.51     -0.48
    4   16    6    -15.26      0.22
    6   16    6    -13.18     -0.42
    8   16    6    -17.65      0.74
   10   16    6     13.49      0.50
   12   16    6      2.21     -0.29
   14   16    6    -15.12     -0.26
   16   16    6      2.50     -0.24
   18   16    6     -4.82      0.08
   20   16    6     -6.91     -0.34
   22   16    6     -7.54      0.11
  -25   17    6      1.35     -0.78
  -23   17    6     13.36     -0.16
  -21   17    6     12.76      0.05
  -19   17    6     -2.88     -0.04
  -17   17    6     -1.79      0.16
  -15   17    6      9.08     -0.37
  -13   17    6      9.32     -0.26
  -11   17    6      4.07     -0.14
   -9   17    6     -5.89     -0.09
   -7   17    6     -3.75      0.37
   -5   17    6     -8.17     -0.71
   -3   17    6     -1.53     -0.77
   -1   17    6      1.04     -0.84
    1   17    6     -6.82     -0.16
    3   17    6    -16.08      0.48
    5   17    6    -10.61      0.32
    7   17    6     -1.85     -0.02
    9   17    6     22.34      0.15
   11   17    6     -2.09     -0.32
   13   17    6     -8.94     -0.05
   15   17    6      3.67     -0.08
   17   17    6     16.36      0.15
   19   17    6      3.76     -0.33
   21   17    6     -3.75      0.11
   23   17    6     -3.98     -0.33
  -26   18    6     -0.43     -0.10
  -24   18    6      0.43     -0.04
  -22   18    6     -2.97     -0.11
  -20   18    6     -7.61     -0.14
  -18   18    6    -10.41     -0.14
  -16   18    6      0.20     -0.55
  -14   18    6     19.73      0.42
  -12   18    6     -0.66     -0.56
  -10   18    6      1.00      0.40
   -8   18    6      6.89     -0.84
   -6   18    6     13.50     -0.18
   -4   18    6     28.20      0.05
   -2   18    6     31.39      0.13
    0   18    6    -28.55      0.31
    2   18    6     18.67     -0.54
    4   18    6     30.67     -0.40
    6   18    6     41.93     -1.26
    8   18    6      2.37     -0.13
   10   18    6     23.69     -0.07
   12   18    6      0.82     -0.02
   14   18    6     -0.23      0.17
   16   18    6     11.03     -0.21
   18   18    6     -5.88     -0.27
   20   18    6      2.68     -0.29
   22   18    6     -0.79      0.16
  -25   19    6     -7.93     -0.27
  -23   19    6     -9.96      0.05
  -21   19    6     -0.78     -0.06
  -19   19    6     -3.35      0.16
  -17   19    6      8.35      0.38
  -15   19    6    -10.63     -0.13
  -13   19    6     -9.61     -0.50
  -11   19    6      3.93     -0.38
   -9   19    6     14.93     -0.44
   -7   19    6      1.08     -0.03
   -5   19    6     -4.54     -0.04
   -3   19    6     -9.35     -0.26
   -1   19    6      3.67     -0.43
    1   19    6    -13.32     -0.38
    3   19    6    -11.42     -0.66
    5   19    6     -2.42     -1.60
    7   19    6     -6.65     -1.40
    9   19    6     -0.28     -0.49
   11   19    6     -0.63     -0.32
   13   19    6     -2.59     -0.64
   15   19    6     -8.56     -0.48
   17   19    6     12.06     -0.26
   19   19    6      7.52     -0.25
   21   19    6     10.64      0.29
   23   19    6     -3.82     -0.03
  -24   20    6      4.33      0.13
  -22   20    6      9.86      0.25
  -20   20    6      5.85      0.26
  -18   20    6      6.85      0.47
  -16   20    6     -4.29      0.36
  -14   20    6     -1.97      0.63
  -12   20    6     -3.77     -0.67
  -10   20    6      9.67     -0.20
   -8   20    6     -2.06     -0.03
   -6   20    6     -2.16     -0.03
   -4   20    6    -13.14     -0.35
   -2   20    6     -1.42     -0.48
    0   20    6    -32.01     -0.60
    2   20    6     -2.22      0.05
    4   20    6     -0.84     -0.19
    6   20    6     -2.06     -0.90
    8   20    6    -17.49     -0.65
   10   20    6      6.46     -0.13
   12   20    6      0.41     -0.53
   14   20    6      8.72      0.47
   16   20    6      6.42      0.10
   18   20    6     -3.43     -0.36
   20   20    6      8.09      0.21
   22   20    6      2.75      0.03
  -25   21    6      5.05      0.30
  -23   21    6    -14.44      0.12
  -21   21    6     -6.27     -0.12
  -19   21    6     -9.91      0.20
  -17   21    6      2.68      0.18
  -15   21    6      0.01      0.21
  -13   21    6      8.48     -0.23
  -11   21    6     -4.23     -0.15
   -9   21    6     14.17     -0.20
   -7   21    6      0.72     -1.09
   -5   21    6      7.93     -0.12
   -3   21    6     12.84      0.05
   -1   21    6     -0.53      0.61
    1   21    6    -24.38      0.48
    3   21    6      2.30      0.10
    5   21    6     19.68      1.16
    7   21    6      3.11      1.57
    9   21    6     -3.81      0.15
   11   21    6      6.11      0.17
   13   21    6      6.24      0.28
   15   21    6      2.54      0.23
   17   21    6      7.94      0.19
   19   21    6      4.46      0.29
   21   21    6      8.60      0.32
  -24   22    6    -18.94     -0.01
  -22   22    6     -8.51      0.06
  -20   22    6     -8.49     -0.23
  -18   22    6      3.24      0.07
  -16   22    6      1.51     -0.04
  -14   22    6     -8.52     -0.15
  -12   22    6     -5.09     -0.55
  -10   22    6     14.09     -0.26
   -8   22    6      2.85     -0.05
   -6   22    6      4.22     -0.76
   -4   22    6    -19.15      0.16
   -2   22    6     -2.60      0.14
    0   22    6    -13.95     -0.25
    2   22    6    -10.05      0.44
    4   22    6      9.07     -1.08
    6   22    6      1.16      1.44
    8   22    6     -7.43     -1.06
   10   22    6    -16.81     -0.17
   12   22    6     -1.15     -0.59
   14   22    6     11.79     -0.10
   16   22    6      0.27      0.21
   18   22    6     -4.76     -0.21
   20   22    6      6.52      0.40
   22   22    6      6.06      0.21
  -23   23    6    -13.95     -0.17
  -21   23    6     -3.37      0.05
  -19   23    6     -5.52     -0.02
  -17   23    6      2.55      0.17
  -15   23    6     -0.40      0.43
  -13   23    6     10.25      0.44
  -11   23    6     -9.21     -0.33
   -9   23    6      9.44     -0.19
   -7   23    6      0.72     -0.52
   -5   23    6     -5.15      0.28
   -3   23    6     -2.15      0.03
   -1   23    6    -12.92      0.48
    1   23    6     -7.47     -0.06
    3   23    6      9.99      0.14
    5   23    6     -2.82      0.90
    7   23    6    -19.90      1.16
    9   23    6     -7.12      0.47
   11   23    6      6.80     -0.23
   13   23    6      1.38      0.24
   15   23    6     -4.82      0.15
   17   23    6    -12.57     -0.15
   19   23    6     -3.39      0.04
   21   23    6     -1.61      0.18
  -24   24    6     -4.56      0.07
  -22   24    6     11.04      0.19
  -20   24    6      5.62      0.23
  -18   24    6     -5.55     -0.04
  -16   24    6     -1.10     -0.25
  -14   24    6     -0.08      0.01
  -12   24    6     -4.85      0.00
  -10   24    6      9.50      0.39
   -8   24    6      7.09      0.13
   -6   24    6     -8.04     -0.56
   -4   24    6    -26.76      0.67
   -2   24    6      6.43     -0.24
    0   24    6     10.72     -0.24
    2   24    6     -6.28      1.01
    4   24    6      0.70      1.87
    6   24    6    -12.37      8.54
    8   24    6      9.12      1.89
   10   24    6     -1.99      0.57
   12   24    6      7.87      0.31
   14   24    6      1.25      0.24
   16   24    6     -1.33      0.33
   18   24    6      3.30     -0.09
   20   24    6     -1.75      0.04
  -23   25    6     -7.76     -0.02
  -21   25    6      1.88      0.17
  -19   25    6    -10.41     -0.51
  -17   25    6      1.46     -0.12
  -15   25    6      2.58     -0.32
  -13   25    6      6.50      0.24
  -11   25    6     -4.25     -0.10
   -9   25    6      2.25      0.21
   -7   25    6     12.45     -0.33
   -5   25    6     -1.49     -0.04
   -3   25    6     -2.98     -0.35
   -1   25    6    -18.12      0.29
    1   25    6     -5.78     -0.11
    3   25    6      9.95     -0.26
    5   25    6      1.70      0.71
    7   25    6     -1.90      0.91
    9   25    6      0.64      0.36
   11   25    6      1.24      0.25
   13   25    6      6.28      0.18
   15   25    6      7.79     -0.06
   17   25    6     -0.81      0.22
   19   25    6      3.86     -0.01
   21   25    6      0.76      0.14
  -22   26    6     -2.45     -0.25
  -20   26    6     -6.14     -0.02
  -18   26    6     -6.94     -0.25
  -16   26    6      3.23     -0.36
  -14   26    6     11.44      0.31
  -12   26    6      2.10      0.12
  -10   26    6     -8.35      0.07
   -8   26    6      3.97      0.33
   -6   26    6     -0.77      0.14
   -4   26    6      1.87      0.41
   -2   26    6     13.81      0.06
    0   26    6      3.15     -0.37
    2   26    6     -6.49     -0.36
    4   26    6      8.61     -1.04
    6   26    6     -2.45      2.18
    8   26    6     16.92     -0.44
   10   26    6      9.12      0.25
   12   26    6      3.30      0.02
   14   26    6     -4.79      0.23
   16   26    6     -2.26     -0.16
   18   26    6     10.23     -0.04
   20   26    6     -6.03      0.15
  -23   27    6     12.74     -0.01
  -21   27    6     12.19      0.24
  -19   27    6     -0.99      0.08
  -17   27    6     -2.67      0.20
  -15   27    6      1.31     -0.17
  -13   27    6     -7.96     -0.06
  -11   27    6     -9.78     -0.20
   -9   27    6    -16.93      0.24
   -7   27    6      1.36     -0.16
   -5   27    6     -7.15      0.22
   -3   27    6      7.60     -0.14
   -1   27    6      2.51      0.55
    1   27    6     -3.13      0.54
    3   27    6     -1.22     -0.02
    5   27    6      0.02      2.27
    7   27    6      8.02      1.91
    9   27    6      0.13      0.06
   11   27    6     -7.94      1.14
   13   27    6     -8.00      0.46
   15   27    6      6.27      0.11
   17   27    6     12.59      0.20
   19   27    6      4.03     -0.01
  -22   28    6      7.84      0.01
  -20   28    6     -0.63      0.03
  -18   28    6     -0.61      0.30
  -16   28    6     -5.42      0.06
  -14   28    6     -0.11      0.11
  -12   28    6     18.77     -0.28
  -10   28    6     -5.15     -0.38
   -8   28    6      2.43     -0.01
   -6   28    6     -2.48      0.07
   -4   28    6      5.55     -0.21
   -2   28    6     -2.92      0.24
    0   28    6     -3.85     -0.27
    2   28    6     -7.13     -0.22
    4   28    6      1.65     -0.71
    6   28    6     -0.96     -0.98
    8   28    6      4.03     -0.09
   10   28    6      2.59      0.02
   12   28    6     -1.94     -0.44
   14   28    6      6.35      0.21
   16   28    6      0.50      0.13
   18   28    6     18.02      0.28
   20   28    6      1.47     -0.09
  -21   29    6    -12.20     -0.14
  -19   29    6      7.07      0.07
  -17   29    6      5.92      0.03
  -15   29    6     11.14      0.26
  -13   29    6      3.65     -0.05
  -11   29    6      8.42     -0.72
   -9   29    6     -5.16     -0.24
   -7   29    6      2.33      0.11
   -5   29    6     -0.87     -0.01
   -3   29    6     16.37     -0.08
   -1   29    6     10.78      0.11
    1   29    6     -2.52     -0.05
    3   29    6      6.45     -0.97
    5   29    6     10.99     -0.80
    7   29    6     10.82     -1.07
    9   29    6      8.22     -0.83
   11   29    6      7.86      0.47
   13   29    6     -2.64     -0.16
   15   29    6     14.70      0.16
   17   29    6     20.42      0.25
   19   29    6      2.56      0.26
  -22   30    6      1.99      0.07
  -20   30    6    -11.00     -0.12
  -18   30    6      1.27      0.33
  -16   30    6     -4.96     -0.01
  -14   30    6     -3.65     -0.21
  -12   30    6      9.60     -0.16
  -10   30    6    -24.92     -0.05
   -8   30    6    -18.63     -0.06
   -6   30    6    -13.15      0.29
   -4   30    6     13.22      0.19
   -2   30    6      0.84      0.51
    0   30    6     -7.55      0.25
    2   30    6    -14.12      0.25
    4   30    6      0.84     -0.01
    6   30    6     12.34     -1.17
    8   30    6     -4.17      0.23
   10   30    6    -18.98      0.11
   12   30    6    -29.09      0.46
   14   30    6     -4.33      0.28
   16   30    6     -8.13     -0.02
   18   30    6      4.53     -0.05
  -21   31    6     -4.40      0.01
  -19   31    6     11.82      0.06
  -17   31    6      1.80     -0.02
  -15   31    6      2.16      0.34
  -13   31    6      9.56      0.29
  -11   31    6     13.96     -0.21
   -9   31    6     -0.56     -0.02
   -7   31    6    -10.66     -0.02
   -5   31    6    -10.32     -0.37
   -3   31    6      1.59      0.03
   -1   31    6      7.30     -0.20
    1   31    6     -6.27      0.01
    3   31    6    -12.21      0.30
    5   31    6     -4.56      0.16
    7   31    6     -3.22      0.12
    9   31    6     -5.49     -0.01
   11   31    6     -7.25     -0.25
   13   31    6    -14.87     -0.28
   15   31    6     -3.73     -0.06
   17   31    6      5.39      0.13
  -20   32    6     -6.30     -0.15
  -18   32    6     10.96     -0.13
  -16   32    6      0.22     -0.13
  -14   32    6      0.68     -0.32
  -12   32    6     13.88     -0.09
  -10   32    6      5.05      0.07
   -8   32    6      5.80      0.21
   -6   32    6    -16.56      0.45
   -4   32    6     -2.18     -0.08
   -2   32    6      0.73     -0.45
    0   32    6     -2.89     -0.55
    2   32    6     12.57      0.15
    4   32    6      8.85      0.40
    6   32    6      2.09      0.01
    8   32    6     -7.65      0.45
   10   32    6      4.05     -0.36
   12   32    6      3.26     -0.06
   14   32    6     11.56     -0.02
   16   32    6      6.41      0.34
   18   32    6      9.83      0.11
  -19   33    6      2.46     -0.39
  -17   33    6      1.08     -0.25
  -15   33    6     -0.94      0.01
  -13   33    6      1.96      0.39
  -11   33    6    -16.66     -0.09
   -9   33    6    -12.34     -0.22
   -7   33    6    -16.30     -0.18
   -5   33    6    -10.99      0.40
   -3   33    6     -1.74      0.58
   -1   33    6      0.96     -0.09
    1   33    6     -9.77      0.12
    3   33    6    -13.10      0.23
    5   33    6     -6.37      0.05
    7   33    6     -8.44      0.44
    9   33    6     -5.85      0.06
   11   33    6     -9.02      0.05
   13   33    6    -10.14      0.24
   15   33    6    -15.95     -0.32
   17   33    6      3.53     -0.38
  -18   34    6      3.23     -0.32
  -16   34    6      7.03     -0.24
  -14   34    6      7.42     -0.37
  -12   34    6      4.11      0.03
  -10   34    6     -1.05      0.35
   -8   34    6     -3.95      0.41
   -6   34    6    -12.28      0.80
   -4   34    6     -2.38      0.08
   -2   34    6     11.43     -0.37
    0   34    6    -16.38     -0.41
    2   34    6    -10.36      0.11
    4   34    6    -12.49      0.76
    6   34    6     -2.03      0.76
    8   34    6     -6.63      0.43
   10   34    6     -3.43     -0.02
   12   34    6     -2.32      0.07
   14   34    6     -5.46     -0.04
   16   34    6     -5.02     -0.20
  -19   35    6     -9.32     -0.37
  -17   35    6    -11.73     -0.27
  -15   35    6    -19.49     -0.25
  -13   35    6      0.06     -0.14
  -11   35    6     -0.38     -0.08
   -9   35    6     16.79     -0.03
   -7   35    6     -1.02     -0.13
   -5   35    6     -9.63      0.52
   -3   35    6      6.95      0.12
   -1   35    6      2.24      0.13
    1   35    6      2.47      0.85
    3   35    6      9.01      0.67
    5   35    6      1.08      0.41
    7   35    6     -1.38      0.92
    9   35    6      5.74      0.04
   11   35    6     13.66      0.32
   13   35    6     16.81      0.14
   15   35    6     -2.49     -0.14
  -18   36    6    -11.80      0.17
  -16   36    6      1.02     -0.26
  -14   36    6     -1.99     -0.34
  -12   36    6     -1.95     -0.54
  -10   36    6      7.74     -0.25
   -8   36    6      2.71     -0.31
   -6   36    6     -4.39      0.57
   -4   36    6    -17.44      0.08
   -2   36    6     10.35     -0.04
    0   36    6     -4.28      0.00
    2   36    6      5.16     -0.09
    4   36    6      6.17      0.31
    6   36    6      0.63      0.38
    8   36    6      2.06      0.30
   10   36    6      3.81     -0.02
   12   36    6      9.80     -0.45
   14   36    6      6.76     -0.15
  -17   37    6     -4.15      0.01
  -15   37    6     -7.63     -0.19
  -13   37    6      3.74     -0.22
  -11   37    6      5.80      0.11
   -9   37    6     15.20     -0.37
   -7   37    6     12.04     -0.23
   -5   37    6     -2.87      0.63
   -3   37    6     -5.30      0.12
   -1   37    6    -10.69      0.45
    1   37    6     -4.80      0.59
    3   37    6     12.77      0.24
    5   37    6      5.60      0.02
    7   37    6     -3.33     -0.03
    9   37    6     -6.30     -0.24
   11   37    6      3.71      0.57
   13   37    6      0.01      0.24
   15   37    6     -2.61      0.09
  -16   38    6     -2.79     -0.06
  -14   38    6     -0.50      0.39
  -12   38    6      8.53     -0.21
  -10   38    6     18.41      0.08
   -8   38    6      7.74     -0.91
   -6   38    6     12.62     -0.13
   -4   38    6      6.08      0.35
   -2   38    6     18.37      0.50
    0   38    6      0.49      0.81
    2   38    6      2.93      0.31
    4   38    6     13.60      0.27
    6   38    6      7.48      0.70
    8   38    6     12.42      0.31
   10   38    6     -1.92      0.02
   12   38    6      6.27      0.08
   14   38    6     11.17      0.12
  -15   39    6     -1.85     -0.17
  -13   39    6      3.67      0.14
  -11   39    6     17.62     -0.79
   -9   39    6     10.14     -1.31
   -7   39    6     10.59     -0.96
   -5   39    6      0.96     -0.92
   -3   39    6     -6.65     -0.48
   -1   39    6     13.30     -0.17
    1   39    6     12.01     -0.17
    3   39    6     27.46      0.12
    5   39    6     10.92     -0.03
    7   39    6     -4.93     -0.17
    9   39    6     -7.89     -0.01
   11   39    6     -0.74      0.10
   13   39    6     -8.56     -0.03
  -14   40    6      3.74     -0.36
  -12   40    6      1.65     -0.25
  -10   40    6      8.56      0.15
   -8   40    6      5.87     -0.12
   -6   40    6     12.39     -0.40
   -4   40    6     -0.94     -0.08
   -2   40    6      1.89     -0.57
    0   40    6      6.52      0.57
    2   40    6      6.58      0.11
    4   40    6     15.72     -0.31
    6   40    6     -2.88      0.21
    8   40    6     -6.69     -0.28
   10   40    6    -16.25      0.09
   12   40    6    -19.84      0.06
  -13   41    6      9.30      0.65
  -11   41    6      8.52      0.30
   -9   41    6     -5.32      2.23
   -7   41    6     -3.40      2.28
   -5   41    6      7.20      0.28
   -3   41    6    -10.81      0.47
   -1   41    6      4.88      0.47
    1   41    6      4.64      0.06
    3   41    6     22.13      0.13
    5   41    6     -1.80     -0.23
    7   41    6     -5.63     -0.21
    9   41    6    -10.18     -0.65
   11   41    6     -2.81     -0.15
  -12   42    6     -3.93     -0.09
  -10   42    6     -8.29     -1.06
   -8   42    6    -13.15      1.85
   -6   42    6      7.34     -1.13
   -4   42    6      0.24     -0.25
   -2   42    6      5.72     -0.74
    0   42    6      2.32     -0.14
    2   42    6      6.81     -0.03
    4   42    6     22.40     -0.39
    6   42    6      4.45      0.21
    8   42    6     -6.82     -0.11
   10   42    6     -4.43      0.08
  -11   43    6     -4.39      0.12
   -9   43    6      7.98      1.00
   -7   43    6     -2.20      1.00
   -5   43    6      5.84      0.26
   -3   43    6     -6.85     -0.31
   -1   43    6      4.64      0.22
    1   43    6      1.47      0.05
    3   43    6      6.56      0.22
    5   43    6    -15.62     -0.01
    7   43    6     -2.17      0.14
    9   43    6      1.11     -0.29
  -10   44    6     -9.97      1.98
   -8   44    6    -19.57      8.99
   -6   44    6      5.73      2.40
   -4   44    6     -3.29      1.06
   -2   44    6     -2.29      0.07
    0   44    6    -24.54      0.05
    2   44    6      2.03      0.51
    4   44    6      9.13     -0.44
    6   44    6      3.42     -0.03
   -7   45    6     -3.88      0.42
   -5   45    6    -10.55      0.16
   -3   45    6    -15.54      0.00
   -1   45    6     -9.13      0.37
    1   45    6     -3.36      0.00
    3   45    6      7.42      0.05
    5   45    6     -9.07     -0.10
   -6   46    6      6.07     -0.84
   -4   46    6      0.07     -0.19
   -2   46    6      8.71     -0.24
    0   46    6    -18.89     -0.16
    2   46    6      5.49      0.20
  -28    0    7     12.90     -2.31
  -26    0    7    -13.84      4.04
  -24    0    7    -20.73      2.93
  -22    0    7     -7.69     -1.11
  -20    0    7     -9.79     -0.18
  -18    0    7    -20.68     -0.11
  -16    0    7    -11.63     -0.06
  -14    0    7     -1.37     -0.08
  -12    0    7    -25.89      0.05
  -10    0    7      4.96     -0.06
   -8    0    7    -22.71     -0.50
   -6    0    7   -103.71     -0.20
   -4    0    7   -115.27     -0.45
   -2    0    7     37.06     -0.07
    0    0    7   -110.31     -0.34
    2    0    7     -5.89     -0.35
    4    0    7      4.11     -0.26
    6    0    7     -2.22     -0.50
    8    0    7    -74.79     -0.19
   10    0    7     13.55      0.12
   12    0    7      9.38     -0.60
   14    0    7     -1.80     -0.25
   16    0    7     -4.11     -0.22
   18    0    7     -1.35     -0.19
   20    0    7     16.09     -0.68
   22    0    7      1.40     -0.41
   24    0    7     18.36      0.10
  -27    1    7      2.91      1.37
  -25    1    7    -14.87      0.85
  -23    1    7      7.91      0.30
  -21    1    7     -9.06      0.47
  -19    1    7     12.36      0.33
  -17    1    7     21.23     -0.95
  -15    1    7      3.34      0.85
  -13    1    7      6.38      0.96
  -11    1    7     26.41     -0.19
   -9    1    7      3.97      0.17
   -7    1    7    -12.57      0.54
   -5    1    7     24.44     -0.32
   -3    1    7     -5.18      0.24
   -1    1    7     55.00     -0.27
    1    1    7    -35.03     -0.19
    3    1    7     31.77      0.55
    5    1    7    -21.44      0.35
    7    1    7     51.67      0.38
    9    1    7     13.23      0.02
   11    1    7     12.65      0.09
   13    1    7      3.69     -0.36
   15    1    7      3.30      0.02
   17    1    7    -17.79      0.07
   19    1    7     -0.46     -0.09
   21    1    7      4.21     -0.06
   23    1    7     -4.52     -0.22
   25    1    7     13.93      0.09
  -28    2    7     -2.15      0.36
  -26    2    7     -8.55      3.04
  -24    2    7     -3.34      1.23
  -22    2    7     -0.53      0.41
  -20    2    7      2.42      0.23
  -18    2    7      8.91     -0.08
  -16    2    7     12.02      3.93
  -14    2    7     22.59      1.71
  -12    2    7     19.31      0.88
  -10    2    7     28.45      0.53
   -8    2    7     -0.46     -0.82
   -6    2    7     46.65      0.05
   -4    2    7     16.18      0.56
   -2    2    7     42.61      0.79
    0    2    7    -35.88      0.19
    2    2    7     45.48      0.17
    4    2    7     14.93     -0.14
    6    2    7     40.83     -0.32
    8    2    7     -3.37      0.28
   10    2    7     16.94      0.31
   12    2    7     -2.60      0.04
   14    2    7      0.53      0.16
   16    2    7    -11.50     -0.14
   18    2    7     -8.26     -0.20
   20    2    7     10.76     -0.25
   22    2    7     -3.39     -0.18
   24    2    7      9.86      0.00
  -27    3    7      7.49     -0.01
  -25    3    7     -9.19      1.71
  -23    3    7      1.27     -0.04
  -21    3    7      2.24      0.24
  -19    3    7     -6.44      1.62
  -17    3    7     -6.51      0.66
  -15    3    7      0.69      1.52
  -13    3    7    -10.26      0.30
  -11    3    7    -43.63     -0.09
   -9    3    7    -15.14     -0.47
   -7    3    7    -29.82      0.11
   -5    3    7    -22.07     -0.16
   -3    3    7     -1.04      0.45
   -1    3    7     22.60     -0.60
    1    3    7    -64.64     -0.22
    3    3    7     -3.12      0.31
    5    3    7    -17.78      0.25
    7    3    7    -44.57      0.11
    9    3    7    -31.32     -0.21
   11    3    7      0.51     -0.15
   13    3    7     -9.94     -0.32
   15    3    7     -2.52     -0.07
   17    3    7      9.42     -0.22
   19    3    7      3.52     -0.03
   21    3    7     15.58     -0.29
   23    3    7     15.51      0.14
   25    3    7     14.06      0.10
  -28    4    7     -5.64      0.49
  -26    4    7     -0.71      1.63
  -24    4    7      0.83     -0.18
  -22    4    7     -0.94      0.13
  -20    4    7      8.71     -0.28
  -18    4    7     11.99     -0.89
  -16    4    7    -16.97      1.75
  -14    4    7    -24.50      1.25
  -12    4    7     -6.21      0.56
  -10    4    7      7.54     -0.18
   -8    4    7    -31.83     -0.14
   -6    4    7     22.09     -0.61
   -4    4    7    -60.49     -0.18
   -2    4    7    -51.45      0.13
    0    4    7     33.65      0.04
    2    4    7     45.42      0.34
    4    4    7    -37.09      0.14
    6    4    7    -48.60     -0.01
    8    4    7    -11.93     -0.29
   10    4    7      1.13      0.42
   12    4    7     -4.62      0.62
   14    4    7      4.78      0.16
   16    4    7    -11.32      0.34
   18    4    7      1.61      0.24
   20    4    7      9.59      0.21
   22    4    7      9.80      0.16
   24    4    7     -5.01      0.19
  -27    5    7     -5.01      1.25
  -25    5    7     -0.68      0.80
  -23    5    7     -6.92      0.48
  -21    5    7      0.93      0.80
  -19    5    7      1.50      0.29
  -17    5    7     -1.99      0.89
  -15    5    7      1.46      0.49
  -13    5    7     16.13     -1.36
  -11    5    7     -1.06      0.19
   -9    5    7     24.87     -1.44
   -7    5    7     43.56     -0.32
   -5    5    7     54.41      0.06
   -3    5    7    -15.95      0.46
   -1    5    7    -21.37      0.22
    1    5    7     58.98      0.17
    3    5    7     14.31      0.58
    5    5    7      3.18     -0.25
    7    5    7    -46.29      0.62
    9    5    7     -3.57      0.54
   11    5    7     13.50     -0.03
   13    5    7     -0.81      0.01
   15    5    7     -7.77      0.08
   17    5    7     -0.55     -0.16
   19    5    7     -6.45      0.23
   21    5    7      3.84     -0.18
   23    5    7      1.94     -0.04
  -28    6    7     -3.68     -1.21
  -26    6    7      2.53      1.62
  -24    6    7      0.84      0.89
  -22    6    7      8.55     -0.55
  -20    6    7      5.75     -0.46
  -18    6    7    -11.27     -0.20
  -16    6    7      1.64     -0.97
  -14    6    7     16.55     -1.26
  -12    6    7     -8.16     -0.20
  -10    6    7     -8.67     -0.34
   -8    6    7      0.65      0.41
   -6    6    7     45.59     -0.44
   -4    6    7     53.59      0.57
   -2    6    7     75.36      0.53
    0    6    7     59.58      0.18
    2    6    7    -61.47      0.28
    4    6    7      6.30      0.05
    6    6    7    -16.61      0.41
    8    6    7      1.91     -0.46
   10    6    7    -15.73     -0.23
   12    6    7    -15.30     -0.23
   14    6    7     -2.13     -0.62
   16    6    7      1.84     -0.22
   18    6    7     15.24      0.07
   20    6    7    -10.63      0.04
   22    6    7     26.13     -0.02
   24    6    7      5.65      0.31
  -27    7    7     -7.74      0.14
  -25    7    7      7.87     -0.97
  -23    7    7     -2.54      0.18
  -21    7    7    -10.82      0.02
  -19    7    7     -5.19     -0.66
  -17    7    7    -12.96     -0.50
  -15    7    7    -23.63     -0.36
  -13    7    7      0.30     -0.54
  -11    7    7    -13.39      1.31
   -9    7    7    -58.69      0.43
   -7    7    7     -9.52      0.37
   -5    7    7     21.42      0.14
   -3    7    7    -44.98     -0.32
   -1    7    7    -93.59      0.11
    1    7    7     18.31     -0.31
    3    7    7    -63.01      0.35
    5    7    7     -1.32     -0.51
    7    7    7     -2.16     -0.05
    9    7    7      6.84     -0.50
   11    7    7     -5.89     -0.04
   13    7    7      3.58      0.19
   15    7    7      5.19     -0.04
   17    7    7     -6.11     -0.04
   19    7    7     -7.39      0.00
   21    7    7     -4.37     -0.28
   23    7    7      3.91      0.12
  -26    8    7    -10.28      1.93
  -24    8    7     -9.71      1.20
  -22    8    7      0.87      0.15
  -20    8    7     12.24     -0.39
  -18    8    7    -11.58      0.28
  -16    8    7    -14.93     -0.75
  -14    8    7     -7.78     -1.47
  -12    8    7      0.31     -0.02
  -10    8    7     28.37     -1.08
   -8    8    7     27.71     -0.01
   -6    8    7    -32.04     -0.03
   -4    8    7    -24.49      0.33
   -2    8    7     -3.05      0.34
    0    8    7     81.38      0.04
    2    8    7    -48.41      0.53
    4    8    7     -1.64     -0.45
    6    8    7    -51.20     -0.38
    8    8    7     -9.69      0.12
   10    8    7      1.42     -0.36
   12    8    7      4.84     -0.49
   14    8    7     -2.40     -0.40
   16    8    7     -9.24     -0.05
   18    8    7      9.33     -0.11
   20    8    7     -8.37     -0.17
   22    8    7     17.74     -0.03
   24    8    7     -1.47     -0.18
  -27    9    7     -0.73      0.18
  -25    9    7      1.81      0.50
  -23    9    7      2.16      0.67
  -21    9    7     -7.49     -0.28
  -19    9    7     -7.49      0.10
  -17    9    7      0.32     -0.92
  -15    9    7     14.55     -0.91
  -13    9    7     15.37     -0.66
  -11    9    7     38.65      0.51
   -9    9    7     20.84      1.65
   -7    9    7     65.31      0.14
   -5    9    7     46.70      0.25
   -3    9    7     91.74      0.25
   -1    9    7     51.41      0.51
    1    9    7     17.06      0.03
    3    9    7    -46.43      0.09
    5    9    7     36.31     -0.11
    7    9    7     32.12      0.27
    9    9    7     11.23     -0.24
   11    9    7     -0.07      0.09
   13    9    7     -2.22      0.11
   15    9    7     -0.02     -0.35
   17    9    7     -0.22     -0.23
   19    9    7      5.01      0.61
   21    9    7     -8.39      0.22
   23    9    7     23.66      0.05
  -26   10    7     -1.08      0.86
  -24   10    7      8.96      0.59
  -22   10    7      1.40      0.61
  -20   10    7      3.80     -0.10
  -18   10    7      1.09     -0.16
  -16   10    7     -5.34     -0.69
  -14   10    7      0.65     -0.27
  -12   10    7     16.35      1.24
  -10   10    7    -33.08      0.46
   -8   10    7    -54.34      0.29
   -6   10    7    -43.53      0.29
   -4   10    7     28.37     -0.07
   -2   10    7    -38.07     -0.07
    0   10    7     20.71     -0.30
    2   10    7    -58.76     -0.11
    4   10    7     -5.44     -0.17
    6   10    7     22.07     -0.50
    8   10    7     32.29     -0.01
   10   10    7    -14.65     -0.56
   12   10    7     -9.78      0.34
   14   10    7      8.61     -0.02
   16   10    7      2.49      0.40
   18   10    7     -6.57      0.06
   20   10    7    -12.26     -0.08
   22   10    7      4.63      0.42
   24   10    7      6.86     -0.14
  -27   11    7      2.28      0.00
  -25   11    7    -11.46     -0.20
  -23   11    7     -9.60     -0.46
  -21   11    7     -8.30      0.06
  -19   11    7      1.77      0.77
  -17   11    7     -2.80      0.25
  -15   11    7      3.54     -0.22
  -13   11    7    -28.94      0.17
  -11   11    7     -3.05     -0.70
   -9   11    7     -7.97      0.36
   -7   11    7      0.24     -0.53
   -5   11    7    -58.62     -0.27
   -3   11    7     -2.20      0.25
   -1   11    7      6.41     -0.17
    1   11    7    -63.54      0.35
    3   11    7    -60.40      0.37
    5   11    7     -9.28      0.22
    7   11    7     -8.12      0.33
    9   11    7     -9.69     -0.26
   11   11    7    -10.46     -0.34
   13   11    7    -13.24     -0.03
   15   11    7     -0.58     -0.03
   17   11    7      2.35     -0.50
   19   11    7     25.22     -0.15
   21   11    7      1.05     -0.12
   23   11    7      9.29      0.14
  -26   12    7     -3.06      0.06
  -24   12    7     -4.07     -0.07
  -22   12    7     -7.04      0.13
  -20   12    7     -1.33      0.26
  -18   12    7     10.73     -0.06
  -16   12    7      4.98     -0.48
  -14   12    7     -5.61      0.12
  -12   12    7     26.87     -0.29
  -10   12    7     30.07      0.34
   -8   12    7     36.15      0.19
   -6   12    7     16.84      0.51
   -4   12    7     34.74      0.76
   -2   12    7     -2.96      0.57
    0   12    7     48.13      0.45
    2   12    7     18.83     -0.04
    4   12    7      4.26      0.49
    6   12    7      6.23     -0.17
    8   12    7      0.04      0.62
   10   12    7     -3.13      0.25
   12   12    7      7.27      1.09
   14   12    7     -2.15      0.01
   16   12    7     -0.08     -0.19
   18   12    7     -2.52      0.03
   20   12    7      1.10      0.30
   22   12    7     -0.69      0.36
   24   12    7     13.48     -0.31
  -27   13    7      8.72      0.08
  -25   13    7     -1.53      0.08
  -23   13    7      3.49     -0.48
  -21   13    7      3.40      0.38
  -19   13    7     17.46      0.17
  -17   13    7      8.69      0.68
  -15   13    7     10.20     -0.22
  -13   13    7      5.44      0.59
  -11   13    7      5.82     -0.07
   -9   13    7    -30.30      0.20
   -7   13    7    -17.37      0.14
   -5   13    7    -12.92      0.22
   -3   13    7     -7.47      0.36
   -1   13    7     21.66     -0.01
    1   13    7     -5.58      0.28
    3   13    7      4.32     -0.27
    5   13    7      2.31      0.45
    7   13    7     24.25      0.53
    9   13    7     14.73     -0.43
   11   13    7     -5.94     -0.10
   13   13    7     -2.40     -0.06
   15   13    7     10.90      0.29
   17   13    7     -3.86      0.27
   19   13    7     -0.83      0.06
   21   13    7    -14.22     -0.07
   23   13    7    -11.66     -0.05
  -26   14    7      2.96     -0.07
  -24   14    7     -3.78     -0.35
  -22   14    7     -5.90     -0.31
  -20   14    7     -0.74      0.06
  -18   14    7     -1.01     -0.07
  -16   14    7      1.66      0.31
  -14   14    7    -10.89      1.36
  -12   14    7    -26.97      0.00
  -10   14    7    -23.37      0.18
   -8   14    7     -2.51      0.04
   -6   14    7     -6.69     -0.26
   -4   14    7    -24.28      0.41
   -2   14    7    -29.90      0.36
    0   14    7    -64.60      0.46
    2   14    7    -25.00     -0.22
    4   14    7     21.41      0.09
    6   14    7      8.42      0.12
    8   14    7    -17.75      0.61
   10   14    7     -5.54     -0.35
   12   14    7     -8.88      0.01
   14   14    7     -7.22     -0.16
   16   14    7      1.28     -0.16
   18   14    7     -4.74      0.29
   20   14    7     11.20     -0.22
   22   14    7     -8.42      0.16
  -25   15    7    -18.59     -0.27
  -23   15    7    -10.25     -0.49
  -21   15    7     -4.62      0.65
  -19   15    7      5.78      0.18
  -17   15    7      0.83      0.56
  -15   15    7    -11.09     -0.41
  -13   15    7     -0.93      0.11
  -11   15    7     -4.36     -0.03
   -9   15    7    -12.50     -0.16
   -7   15    7      0.88      0.14
   -5   15    7     21.89      0.84
   -3   15    7    -11.61      0.33
   -1   15    7     18.00      0.23
    1   15    7     20.84      0.23
    3   15    7      9.75     -0.09
    5   15    7    -22.45      0.36
    7   15    7    -15.30      0.40
    9   15    7    -12.06     -0.08
   11   15    7     -3.19      0.36
   13   15    7     -5.07     -0.30
   15   15    7     -7.00     -0.22
   17   15    7     -3.14      0.02
   19   15    7     -1.59      0.24
   21   15    7     -6.54      0.15
   23   15    7     -8.95     -0.21
  -26   16    7      0.82      0.31
  -24   16    7      3.64     -0.10
  -22   16    7     14.58     -0.10
  -20   16    7     26.07     -0.08
  -18   16    7      4.75     -0.51
  -16   16    7      0.79      0.36
  -14   16    7      3.02      0.79
  -12   16    7      3.30      0.25
  -10   16    7      4.31      0.13
   -8   16    7      1.54      0.55
   -6   16    7     19.28      0.52
   -4   16    7    -16.55      0.47
   -2   16    7     29.66      0.16
    0   16    7     -0.01      0.06
    2   16    7     30.81     -0.75
    4   16    7     28.57     -0.26
    6   16    7      8.29      0.44
    8   16    7     15.22     -0.08
   10   16    7     21.76     -0.37
   12   16    7     -3.09     -0.33
   14   16    7     -5.86      0.18
   16   16    7     -2.91     -0.03
   18   16    7    -11.50      0.51
   20   16    7      4.93     -0.24
   22   16    7     -7.20      0.03
  -25   17    7     -3.53      0.16
  -23   17    7      4.48     -0.30
  -21   17    7     12.85      0.03
  -19   17    7     10.37     -0.15
  -17   17    7      1.98      0.26
  -15   17    7     -3.94      0.08
  -13   17    7      4.83      0.31
  -11   17    7    -21.75      0.27
   -9   17    7      0.27      0.36
   -7   17    7     -3.60     -0.03
   -5   17    7      0.95      0.18
   -3   17    7    -11.86     -0.77
   -1   17    7     -7.16     -0.16
    1   17    7    -14.00     -0.02
    3   17    7     11.84     -0.34
    5   17    7     15.01     -0.67
    7   17    7    -17.74     -0.04
    9   17    7     -5.35     -0.01
   11   17    7     13.32      0.15
   13   17    7      4.87     -0.25
   15   17    7      0.54     -0.14
   17   17    7      3.53      0.54
   19   17    7      4.74      0.42
   21   17    7      3.63      0.31
   23   17    7      3.98      0.01
  -26   18    7    -10.72      0.21
  -24   18    7     -5.10      0.05
  -22   18    7     -9.00      0.21
  -20   18    7      1.41      0.17
  -18   18    7     -6.78     -0.40
  -16   18    7     -1.04     -0.04
  -14   18    7    -12.89     -0.46
  -12   18    7     -7.01     -0.07
  -10   18    7    -11.43     -0.28
   -8   18    7    -31.30     -0.19
   -6   18    7      9.69     -0.31
   -4   18    7    -18.93     -0.42
   -2   18    7     19.66     -0.05
    0   18    7    -11.21      0.42
    2   18    7    -16.45      0.49
    4   18    7    -27.53      0.36
    6   18    7    -14.20     -0.33
    8   18    7    -11.19     -1.02
   10   18    7    -15.88      0.39
   12   18    7    -10.67     -0.24
   14   18    7     -4.71      0.14
   16   18    7      0.45     -0.27
   18   18    7     -6.86     -0.03
   20   18    7     -4.73      0.01
   22   18    7     -0.54      0.08
  -25   19    7     11.96      0.13
  -23   19    7      3.55     -0.15
  -21   19    7     10.41      0.16
  -19   19    7      6.63     -0.26
  -17   19    7     10.40     -0.10
  -15   19    7      9.80     -0.15
  -13   19    7     22.47      0.06
  -11   19    7    -11.67     -0.10
   -9   19    7      4.29      0.04
   -7   19    7      6.93      0.20
   -5   19    7     27.73      0.14
   -3   19    7     25.76     -0.52
   -1   19    7      5.46      0.10
    1   19    7    -13.37     -0.50
    3   19    7     -0.04      0.00
    5   19    7     28.78     -1.33
    7   19    7      2.04     -1.08
    9   19    7     12.86      0.25
   11   19    7      8.01      0.35
   13   19    7     -1.38      0.36
   15   19    7     -5.23     -0.10
   17   19    7     -0.18      0.07
   19   19    7      2.40     -0.08
   21   19    7      4.44      0.26
  -24   20    7     10.31      0.15
  -22   20    7      0.78     -0.01
  -20   20    7     19.75      0.17
  -18   20    7     10.18      0.15
  -16   20    7      4.86      0.31
  -14   20    7      0.02     -0.06
  -12   20    7     14.98      0.03
  -10   20    7     28.51      0.01
   -8   20    7      8.41     -0.16
   -6   20    7      1.62     -0.43
   -4   20    7    -20.86     -0.25
   -2   20    7     20.72     -0.64
    0   20    7     19.47     -0.13
    2   20    7     -1.42      0.34
    4   20    7     -8.47     -0.01
    6   20    7      7.06      0.00
    8   20    7     -0.74     -0.54
   10   20    7      6.20      0.24
   12   20    7     21.62      0.03
   14   20    7     22.17      0.11
   16   20    7     17.14      0.07
   18   20    7     11.89     -0.14
   20   20    7      2.15     -0.25
   22   20    7     10.89     -0.23
  -25   21    7     21.27      0.02
  -23   21    7     -6.04      0.05
  -21   21    7    -10.46      0.30
  -19   21    7    -15.08     -0.03
  -17   21    7      7.88      0.61
  -15   21    7    -13.20      0.00
  -13   21    7    -12.00      0.07
  -11   21    7    -14.12     -0.23
   -9   21    7     -2.10     -0.15
   -7   21    7      2.57      0.21
   -5   21    7     12.58     -0.63
   -3   21    7     -3.36     -0.31
   -1   21    7    -13.55      0.39
    1   21    7    -11.09      0.20
    3   21    7    -16.59      1.40
    5   21    7      5.54     -1.41
    7   21    7    -12.09     -1.22
    9   21    7    -14.26      0.91
   11   21    7    -14.97      0.64
   13   21    7      4.11      0.03
   15   21    7     -1.30     -0.20
   17   21    7      1.05     -0.02
   19   21    7     -7.65     -0.38
   21   21    7     -0.67      0.13
  -24   22    7     20.38      0.06
  -22   22    7     -8.32     -0.08
  -20   22    7     -6.52      0.35
  -18   22    7     -9.31      0.16
  -16   22    7    -11.19     -0.04
  -14   22    7      8.40      0.15
  -12   22    7      8.74      0.20
  -10   22    7     -3.12     -0.01
   -8   22    7     -6.22     -0.02
   -6   22    7     -6.48     -0.06
   -4   22    7     -0.04      0.44
   -2   22    7     -1.19      0.24
    0   22    7      0.51     -0.14
    2   22    7    -18.41     -0.14
    4   22    7     -7.65     -0.75
    6   22    7      4.57     -0.80
    8   22    7    -12.23      0.37
   10   22    7     -8.03      0.02
   12   22    7     -3.95      0.00
   14   22    7      1.64      0.13
   16   22    7     -8.83     -0.01
   18   22    7     -1.01      0.04
   20   22    7    -16.75      0.25
  -23   23    7     -1.51     -0.02
  -21   23    7     13.34      0.32
  -19   23    7      3.16      0.17
  -17   23    7     11.31      0.40
  -15   23    7     -5.87     -0.04
  -13   23    7     -9.32      0.38
  -11   23    7      3.44      0.49
   -9   23    7     14.12      0.01
   -7   23    7     18.56     -0.48
   -5   23    7      2.85     -0.24
   -3   23    7     -8.55      0.83
   -1   23    7      4.78      0.42
    1   23    7     11.40     -0.20
    3   23    7     -4.27     -0.15
    5   23    7      9.25     -0.70
    7   23    7     16.26      0.86
    9   23    7      0.83     -0.27
   11   23    7     -5.55      0.07
   13   23    7     12.88     -0.12
   15   23    7      4.28     -0.31
   17   23    7      9.62      0.14
   19   23    7      0.42     -0.46
   21   23    7      7.73     -0.31
  -24   24    7      4.45      0.10
  -22   24    7      0.16      0.22
  -20   24    7     -2.94      0.32
  -18   24    7      4.06      0.25
  -16   24    7    -16.01     -0.01
  -14   24    7    -15.21     -0.07
  -12   24    7     -2.14      0.06
  -10   24    7     -1.43     -0.34
   -8   24    7     21.37      0.60
   -6   24    7     11.44      0.98
   -4   24    7      1.73      0.46
   -2   24    7    -17.70     -0.08
    0   24    7     18.08     -1.07
    2   24    7     17.09      0.11
    4   24    7      4.99     -0.61
    6   24    7    -12.74     -1.31
    8   24    7    -15.79      1.41
   10   24    7     -4.11      0.63
   12   24    7     -0.48     -0.37
   14   24    7     -2.02     -0.17
   16   24    7    -27.17      0.19
   18   24    7     -4.45      0.21
   20   24    7    -10.22      0.17
  -23   25    7     -9.96     -0.17
  -21   25    7     -1.65      0.05
  -19   25    7    -10.05      0.06
  -17   25    7    -15.66     -0.45
  -15   25    7     -7.49     -0.30
  -13   25    7     -5.67      0.12
  -11   25    7     -9.31      0.23
   -9   25    7    -13.38     -0.35
   -7   25    7     -5.50     -0.33
   -5   25    7    -21.92      0.05
   -3   25    7    -19.71      0.48
   -1   25    7     -1.55      0.64
    1   25    7     -6.03     -0.05
    3   25    7    -20.97     -0.31
    5   25    7    -22.29     -0.27
    7   25    7     -7.88      1.25
    9   25    7    -12.56     -0.46
   11   25    7     -8.38     -0.04
   13   25    7     -8.46      0.25
   15   25    7     -9.78     -0.09
   17   25    7     -3.82     -0.05
   19   25    7     -5.97      0.17
  -22   26    7      4.41      0.02
  -20   26    7     -6.96     -0.16
  -18   26    7     -1.90     -0.14
  -16   26    7     -3.77     -0.40
  -14   26    7     -7.16     -0.44
  -12   26    7     -5.53      0.50
  -10   26    7    -24.34      0.39
   -8   26    7     -3.22      0.14
   -6   26    7      5.39      0.49
   -4   26    7      0.67      0.46
   -2   26    7    -15.49      0.19
    0   26    7      0.89     -0.59
    2   26    7     -5.85     -0.22
    4   26    7     -0.66     -1.38
    6   26    7     14.47     -0.54
    8   26    7     21.21     -0.14
   10   26    7     -6.50     -0.23
   12   26    7     -3.69      0.02
   14   26    7      2.06     -0.25
   16   26    7     -9.95     -0.09
   18   26    7      2.53     -0.07
   20   26    7      1.51     -0.16
  -23   27    7    -12.76      0.02
  -21   27    7      0.22     -0.06
  -19   27    7      9.94      0.07
  -17   27    7     -2.63     -0.16
  -15   27    7     -6.38      0.01
  -13   27    7      0.56      0.09
  -11   27    7      7.90     -0.04
   -9   27    7      7.96     -0.20
   -7   27    7     17.63      0.63
   -5   27    7      5.99      0.09
   -3   27    7      7.48     -0.59
   -1   27    7     24.40      0.55
    1   27    7     19.65      0.12
    3   27    7     10.02      0.54
    5   27    7     -0.40     -1.61
    7   27    7      4.88     -1.11
    9   27    7      2.42      0.24
   11   27    7      6.14      0.05
   13   27    7     -7.19      0.14
   15   27    7      1.10      0.15
   17   27    7     -6.29     -0.01
   19   27    7      5.13      0.22
  -22   28    7      2.04     -0.14
  -20   28    7     -0.55      0.01
  -18   28    7      1.66      0.12
  -16   28    7      2.39     -0.22
  -14   28    7     -3.70     -0.40
  -12   28    7     -0.93      0.13
  -10   28    7     -4.32     -0.31
   -8   28    7      3.59     -0.57
   -6   28    7     -2.09      0.27
   -4   28    7    -15.07     -0.04
   -2   28    7     -4.03     -0.05
    0   28    7      3.12      0.10
    2   28    7     -9.03      0.42
    4   28    7    -10.29     -0.33
    6   28    7     -8.59      0.78
    8   28    7      5.97     -0.87
   10   28    7     -4.40     -0.28
   12   28    7      4.75     -0.10
   14   28    7      4.43      0.01
   16   28    7     11.00     -0.09
   18   28    7     -2.87     -0.16
  -21   29    7     -0.33     -0.36
  -19   29    7      3.94     -0.10
  -17   29    7     -4.29      0.25
  -15   29    7     -3.55      0.07
  -13   29    7     -2.32      0.14
  -11   29    7     -7.89      0.07
   -9   29    7    -19.96      0.23
   -7   29    7    -10.24      0.20
   -5   29    7     -1.05     -0.03
   -3   29    7     -8.47     -0.74
   -1   29    7     -1.63      0.33
    1   29    7     -6.24     -0.21
    3   29    7    -10.70     -0.03
    5   29    7     -2.87     -1.48
    7   29    7      4.65     -1.39
    9   29    7      2.59     -0.14
   11   29    7      3.56     -0.07
   13   29    7     -3.05      0.01
   15   29    7     19.38      0.02
   17   29    7      0.44     -0.04
   19   29    7      4.56      0.15
  -22   30    7     -2.22      0.19
  -20   30    7     14.65      0.38
  -18   30    7     13.61      0.09
  -16   30    7     11.58     -0.23
  -14   30    7      2.70     -0.34
  -12   30    7      8.79      0.23
  -10   30    7     14.94     -0.01
   -8   30    7     10.86     -0.06
   -6   30    7     10.06     -0.03
   -4   30    7      9.85     -0.64
   -2   30    7     29.39     -0.14
    0   30    7     16.68     -0.02
    2   30    7      0.91      0.28
    4   30    7      9.33     -0.35
    6   30    7      3.97     -0.65
    8   30    7      3.68     -1.07
   10   30    7     -4.94     -0.02
   12   30    7      1.78     -0.17
   14   30    7      9.60      0.38
   16   30    7     22.74     -0.02
   18   30    7    -15.13      0.02
  -21   31    7     -2.11     -0.21
  -19   31    7     11.56     -0.05
  -17   31    7      7.32      0.02
  -15   31    7     13.99     -0.47
  -13   31    7      8.51      0.05
  -11   31    7      8.94     -0.22
   -9   31    7      8.98      0.14
   -7   31    7      7.02     -0.49
   -5   31    7      2.96     -0.15
   -3   31    7     -8.01     -0.44
   -1   31    7     -3.78     -0.13
    1   31    7     -1.15      0.07
    3   31    7      1.90     -0.28
    5   31    7     -2.37     -0.55
    7   31    7    -15.12     -0.27
    9   31    7     -4.57     -0.20
   11   31    7      3.02      0.08
   13   31    7     -4.71     -0.35
   15   31    7     17.00     -0.05
   17   31    7      0.27     -0.01
  -20   32    7     20.95      0.13
  -18   32    7      2.08      0.13
  -16   32    7      3.20     -0.07
  -14   32    7     -2.33     -0.34
  -12   32    7     -3.08     -0.03
  -10   32    7      1.02      0.26
   -8   32    7     -4.51      0.49
   -6   32    7     -6.99     -0.07
   -4   32    7    -24.04     -0.34
   -2   32    7    -14.75     -0.13
    0   32    7     -6.90     -0.36
    2   32    7     -8.63     -0.33
    4   32    7      2.60      0.03
    6   32    7     -5.66      0.05
    8   32    7     -6.93      0.60
   10   32    7     -1.10     -0.43
   12   32    7      4.89     -0.44
   14   32    7     10.20      0.23
   16   32    7     10.15      0.00
  -19   33    7      8.28     -0.19
  -17   33    7     -2.78     -0.13
  -15   33    7      9.05     -0.21
  -13   33    7     -3.54      0.22
  -11   33    7      2.27     -0.21
   -9   33    7      3.81      0.31
   -7   33    7      9.33     -0.24
   -5   33    7      7.63     -0.28
   -3   33    7      3.55      0.19
   -1   33    7      3.48     -0.23
    1   33    7      3.80      0.17
    3   33    7     10.94     -0.35
    5   33    7     -2.16     -0.03
    7   33    7    -21.15      0.17
    9   33    7    -10.14     -0.26
   11   33    7      7.59      0.34
   13   33    7      1.33     -0.03
   15   33    7      7.31      0.04
   17   33    7     -6.10      0.00
  -18   34    7     -5.99      0.00
  -16   34    7      6.77      0.08
  -14   34    7      9.66     -0.09
  -12   34    7      4.14     -0.26
  -10   34    7      2.97      0.04
   -8   34    7      1.03      0.39
   -6   34    7     10.19     -0.07
   -4   34    7      7.34     -0.04
   -2   34    7      7.20     -0.49
    0   34    7      2.50     -0.32
    2   34    7      0.71     -0.05
    4   34    7     12.23      0.11
    6   34    7      5.19     -0.23
    8   34    7     -2.45      1.13
   10   34    7     -3.78     -0.28
   12   34    7     -0.11      0.16
   14   34    7      0.30     -0.07
   16   34    7    -20.41     -0.09
  -19   35    7     -0.44      0.05
  -17   35    7     -8.42      0.22
  -15   35    7      0.05      0.18
  -13   35    7    -18.19      0.35
  -11   35    7     -3.31      0.07
   -9   35    7      0.67      0.17
   -7   35    7     12.23      0.31
   -5   35    7      0.63     -0.44
   -3   35    7    -15.34      0.19
   -1   35    7      3.74     -0.17
    1   35    7     -2.91      0.07
    3   35    7      3.43      0.00
    5   35    7      6.03      0.29
    7   35    7      6.32      0.27
    9   35    7      5.37      0.19
   11   35    7     12.78      0.27
   13   35    7      7.39      0.08
   15   35    7      5.36     -0.16
  -18   36    7    -22.59     -0.04
  -16   36    7    -22.57      0.28
  -14   36    7    -24.26     -0.44
  -12   36    7    -16.10     -0.68
  -10   36    7     -5.86      0.15
   -8   36    7     -4.65      0.62
   -6   36    7      5.78      0.07
   -4   36    7      2.64      0.03
   -2   36    7     -2.27     -0.58
    0   36    7      1.10     -0.05
    2   36    7      4.39     -0.10
    4   36    7      1.87      0.15
    6   36    7     -5.91     -0.17
    8   36    7    -13.50      0.79
   10   36    7     -5.06     -0.34
   12   36    7      8.86     -0.01
   14   36    7      9.28     -0.32
  -17   37    7     10.01      0.20
  -15   37    7      4.59      0.28
  -13   37    7     -8.45     -0.26
  -11   37    7     -1.10     -0.14
   -9   37    7      1.40     -0.67
   -7   37    7      6.91      0.00
   -5   37    7     14.23     -0.56
   -3   37    7     -1.33     -0.12
   -1   37    7     18.33     -0.15
    1   37    7     -3.42     -0.43
    3   37    7     -2.42      0.09
    5   37    7     -2.59     -0.38
    7   37    7      9.88     -0.26
    9   37    7     -1.79     -0.10
   11   37    7      2.89      0.07
   13   37    7      8.31      0.45
  -16   38    7      7.82      0.23
  -14   38    7     -5.19      0.14
  -12   38    7     -3.65      0.69
  -10   38    7     -5.24     -0.21
   -8   38    7      0.41     -0.54
   -6   38    7     23.31     -0.54
   -4   38    7     15.33      0.52
   -2   38    7      6.67     -0.08
    0   38    7      5.71     -0.47
    2   38    7    -12.51     -0.83
    4   38    7     -0.14     -0.06
    6   38    7     13.90     -0.43
    8   38    7     10.03      0.16
   10   38    7     12.64      0.25
   12   38    7      6.88     -0.10
  -15   39    7    -20.85      0.08
  -13   39    7    -11.80     -0.81
  -11   39    7    -11.46      0.53
   -9   39    7      5.90     -1.53
   -7   39    7     -5.92     -1.30
   -5   39    7      4.75     -0.43
   -3   39    7     -6.78     -0.56
   -1   39    7      9.79      0.03
    1   39    7    -10.02     -0.63
    3   39    7    -19.72      0.15
    5   39    7    -17.29     -0.32
    7   39    7      5.28      0.02
    9   39    7     -8.56     -0.48
   11   39    7     -3.06     -0.21
  -14   40    7      1.20     -0.38
  -12   40    7      9.17     -0.01
  -10   40    7     -7.59     -0.52
   -8   40    7    -13.71      0.50
   -6   40    7      1.49     -0.38
   -4   40    7      9.33     -0.06
   -2   40    7      6.73     -0.08
    0   40    7      4.26     -0.54
    2   40    7    -18.18     -0.48
    4   40    7     -5.31     -0.18
    6   40    7     -0.83     -0.26
    8   40    7     -0.53     -0.12
   10   40    7     -2.27      0.12
   12   40    7     -8.56     -0.26
  -13   41    7     14.52      0.32
  -11   41    7    -12.05      1.53
   -9   41    7      3.50     -1.76
   -7   41    7      0.38     -1.24
   -5   41    7      4.73      0.61
   -3   41    7      0.20      0.07
   -1   41    7     15.16      0.05
    1   41    7      6.29     -0.50
    3   41    7     -3.60      0.56
    5   41    7      5.63      0.07
    7   41    7      9.49     -0.07
    9   41    7      4.62     -0.23
   11   41    7      6.24     -0.08
  -12   42    7      4.06     -0.14
  -10   42    7    -13.63     -1.01
   -8   42    7     -6.29     -1.23
   -6   42    7     -5.55     -0.48
   -4   42    7     11.15     -0.14
   -2   42    7     -0.40     -0.12
    0   42    7    -16.22     -0.32
    2   42    7    -31.10     -0.09
    4   42    7    -11.39      0.02
    6   42    7     -2.12      0.37
    8   42    7      3.12     -0.06
  -11   43    7     -4.32     -0.05
   -9   43    7     -7.61     -1.04
   -7   43    7     -7.95      0.24
   -5   43    7     -9.50      0.12
   -3   43    7      3.62      0.51
   -1   43    7      2.46     -0.11
    1   43    7     -4.90     -0.22
    3   43    7    -10.98      0.62
    5   43    7     -1.96      0.29
    7   43    7     -5.85      0.19
  -10   44    7     -2.65      0.48
   -8   44    7     11.08     -0.55
   -6   44    7     -3.20      1.20
   -4   44    7      8.31      0.25
   -2   44    7     10.96     -0.55
    0   44    7     -1.38      0.17
    2   44    7    -10.09      0.60
    4   44    7      3.26      0.49
    6   44    7      2.53      0.32
   -7   45    7      6.53      0.43
   -5   45    7      0.27      0.05
   -3   45    7      0.03      0.61
   -1   45    7    -14.95     -0.18
    1   45    7     -9.26     -0.11
    3   45    7     -3.90      0.16
    5   45    7     -4.54     -0.04
   -4   46    7     -6.19      0.21
   -2   46    7      6.32      0.33
    0   46    7     -6.47      0.26
    2   46    7     -7.92     -0.04
  -28    0    8      5.56     -1.22
  -26    0    8      5.38     -2.49
  -24    0    8     -5.91     -3.21
  -22    0    8      5.88      0.39
  -20    0    8     13.04     -0.63
  -18    0    8     23.70      0.03
  -16    0    8     17.67     -0.11
  -14    0    8    -10.10      1.28
  -12    0    8     36.57      0.17
  -10    0    8     64.31      0.19
   -8    0    8    -15.44      0.10
   -6    0    8    -29.58     -0.29
   -4    0    8    -81.54     -0.72
   -2    0    8     46.08     -0.51
    0    0    8    113.42     -0.03
    2    0    8    103.83     -0.49
    4    0    8    -26.83      0.06
    6    0    8     36.34     -0.12
    8    0    8     45.94     -0.46
   10    0    8     24.72      0.13
   12    0    8     15.44     -0.02
   14    0    8     37.99      0.14
   16    0    8     26.66      0.27
   18    0    8     22.23      0.49
   20    0    8      7.28      0.70
   22    0    8     -3.83      0.04
   24    0    8    -12.82     -0.31
  -27    1    8     -5.06      0.08
  -25    1    8     -5.16      0.01
  -23    1    8    -10.04      1.77
  -21    1    8     -3.64      0.46
  -19    1    8     -5.71      0.69
  -17    1    8      1.65      1.26
  -15    1    8     -0.99      2.27
  -13    1    8      5.02      0.25
  -11    1    8    -30.04      0.64
   -9    1    8     24.39      0.57
   -7    1    8    -19.33      0.56
   -5    1    8      8.82      0.32
   -3    1    8     35.93     -0.22
   -1    1    8     30.82     -0.41
    1    1    8    -32.74     -0.10
    3    1    8    -56.01     -0.04
    5    1    8     21.88     -0.22
    7    1    8     20.87      0.20
    9    1    8    -14.53      0.04
   11    1    8     -5.46     -0.12
   13    1    8     -9.19      0.24
   15    1    8      2.32     -0.10
   17    1    8     22.34      0.15
   19    1    8    -11.83     -0.10
   21    1    8     -8.10     -0.02
   23    1    8    -17.48     -0.15
  -28    2    8     -6.87      0.23
  -26    2    8     -3.82      1.88
  -24    2    8     -5.93      1.03
  -22    2    8      4.68      0.82
  -20    2    8      1.34     -1.12
  -18    2    8     -9.61     -1.75
  -16    2    8      5.76     -5.36
  -14    2    8      4.29      1.10
  -12    2    8      0.94     -0.19
  -10    2    8     -4.99     -0.98
   -8    2    8    -30.57      0.50
   -6    2    8    -22.51     -0.58
   -4    2    8     -4.40      0.09
   -2    2    8     68.39      0.25
    0    2    8     -5.65      0.34
    2    2    8    -55.67     -0.05
    4    2    8    -50.39      0.29
    6    2    8     16.65      0.36
    8    2    8     -8.65     -0.62
   10    2    8    -31.00      0.49
   12    2    8    -40.04      0.13
   14    2    8    -14.66      0.39
   16    2    8      6.26      0.27
   18    2    8      6.11     -0.11
   20    2    8    -16.75     -0.16
   22    2    8    -10.42     -0.25
   24    2    8    -11.89      0.00
  -27    3    8     -0.01     -1.44
  -25    3    8     10.75     -5.11
  -23    3    8      5.63     -1.62
  -21    3    8     -8.25      0.10
  -19    3    8     15.05      0.29
  -17    3    8     23.77     -0.59
  -15    3    8     -2.82      1.64
  -13    3    8     11.71     -0.06
  -11    3    8     13.25      0.55
   -9    3    8      0.34      0.32
   -7    3    8    -15.11      0.07
   -5    3    8     37.24     -0.57
   -3    3    8    -57.22     -0.98
   -1    3    8    -50.60     -0.52
    1    3    8     36.85     -0.31
    3    3    8     18.19      0.71
    5    3    8     11.59      0.13
    7    3    8     45.29      0.09
    9    3    8     20.50     -0.56
   11    3    8     11.23     -0.53
   13    3    8     10.72      0.42
   15    3    8     16.32      0.22
   17    3    8     11.93      0.31
   19    3    8      2.76     -0.02
   21    3    8      1.28      0.08
   23    3    8    -15.38     -0.28
  -28    4    8      1.50     -0.55
  -26    4    8      0.24      1.46
  -24    4    8     -0.97      0.75
  -22    4    8     -6.52      0.62
  -20    4    8      6.97     -0.21
  -18    4    8     -6.30      1.08
  -16    4    8     -0.99     -0.81
  -14    4    8     -0.83      1.78
  -12    4    8     -9.94      1.09
  -10    4    8     17.10      0.30
   -8    4    8     46.04      0.29
   -6    4    8      5.85     -0.42
   -4    4    8      7.54      0.04
   -2    4    8    -14.50     -0.32
    0    4    8     15.12     -0.09
    2    4    8     24.74      0.09
    4    4    8     48.50     -0.45
    6    4    8      5.81     -0.41
    8    4    8    -20.55     -0.52
   10    4    8     17.45      0.18
   12    4    8     15.29     -0.25
   14    4    8    -10.26      0.54
   16    4    8     -2.42      0.26
   18    4    8      7.72     -0.17
   20    4    8      0.73      0.14
   22    4    8      1.42      0.10
   24    4    8    -16.51      0.23
  -27    5    8    -12.36      0.89
  -25    5    8     -0.96      0.22
  -23    5    8      9.23      0.53
  -21    5    8    -12.72     -0.16
  -19    5    8     -7.53      0.83
  -17    5    8     -5.84     -1.42
  -15    5    8     -4.58     -0.01
  -13    5    8     10.14     -0.41
  -11    5    8      9.81     -0.26
   -9    5    8     -7.42      0.11
   -7    5    8      6.73      0.32
   -5    5    8     36.95     -0.14
   -3    5    8    -12.56     -0.28
   -1    5    8    -10.50     -0.03
    1    5    8     -6.55     -0.29
    3    5    8     -6.29      0.04
    5    5    8    -29.07      0.23
    7    5    8    -16.23     -0.16
    9    5    8    -22.95     -0.32
   11    5    8    -25.74      0.03
   13    5    8    -21.03      0.55
   15    5    8     -4.71      0.31
   17    5    8     -4.09      0.43
   19    5    8     -6.96      0.27
   21    5    8    -12.24     -0.09
   23    5    8     -8.59      0.04
  -28    6    8     -1.38     -0.31
  -26    6    8      3.92     -0.51
  -24    6    8     23.16     -1.17
  -22    6    8     -4.29      0.40
  -20    6    8      4.63     -0.20
  -18    6    8     14.21      0.22
  -16    6    8      0.63      0.18
  -14    6    8     -7.80     -0.59
  -12    6    8    -11.90      0.38
  -10    6    8    -38.41     -0.02
   -8    6    8    -25.23     -0.17
   -6    6    8     31.05     -0.18
   -4    6    8     53.41     -0.48
   -2    6    8   -145.57     -0.68
    0    6    8    -82.16     -0.24
    2    6    8    -21.31      0.12
    4    6    8     28.59     -0.10
    6    6    8     16.03     -0.18
    8    6    8      7.91      0.27
   10    6    8     -9.76     -0.15
   12    6    8     -4.94     -0.28
   14    6    8      1.44      0.34
   16    6    8      2.18      0.61
   18    6    8     -4.24     -0.07
   20    6    8      2.36      0.01
   22    6    8     -8.97      0.00
   24    6    8    -21.36      0.16
  -27    7    8      5.37     -1.01
  -25    7    8      2.56      0.88
  -23    7    8     13.24      0.12
  -21    7    8      3.85     -0.02
  -19    7    8     -0.10      0.85
  -17    7    8     -7.03      0.06
  -15    7    8     11.22     -0.38
  -13    7    8     -1.29     -0.46
  -11    7    8     -1.51      0.27
   -9    7    8     23.16     -0.54
   -7    7    8     32.82     -0.13
   -5    7    8      9.68     -0.04
   -3    7    8     22.68      0.20
   -1    7    8     56.46      0.10
    1    7    8     29.73      0.11
    3    7    8     36.90     -0.24
    5    7    8     25.89     -0.27
    7    7    8     -3.08     -0.37
    9    7    8     14.74      0.23
   11    7    8     22.30     -0.32
   13    7    8     16.03      0.06
   15    7    8      9.60      0.25
   17    7    8      4.39     -0.13
   19    7    8     12.55      0.40
   21    7    8     -1.08      0.05
   23    7    8     -2.64      0.41
  -28    8    8    -14.07      0.18
  -26    8    8    -13.23      0.60
  -24    8    8      7.14      0.83
  -22    8    8      0.27     -0.25
  -20    8    8     -7.95     -0.30
  -18    8    8      1.09      0.24
  -16    8    8    -11.42      1.49
  -14    8    8    -10.58     -0.45
  -12    8    8     13.18     -0.59
  -10    8    8     11.33     -0.48
   -8    8    8     13.92      0.32
   -6    8    8     32.03      0.45
   -4    8    8     47.20      0.35
   -2    8    8    -31.18     -0.02
    0    8    8     44.84      0.17
    2    8    8     34.64     -0.49
    4    8    8     13.79     -0.19
    6    8    8    -19.28     -0.16
    8    8    8      4.08      0.08
   10    8    8    -16.37     -0.17
   12    8    8      4.30      0.46
   14    8    8      3.94     -0.02
   16    8    8     -4.59      0.20
   18    8    8     -9.84     -0.09
   20    8    8      5.24      0.12
   22    8    8      3.17     -0.07
   24    8    8     -2.47      0.18
  -27    9    8      4.30     -0.71
  -25    9    8      5.13      1.19
  -23    9    8     12.99      0.10
  -21    9    8      2.95      0.44
  -19    9    8     14.76     -0.58
  -17    9    8      1.50      0.29
  -15    9    8     -3.60     -0.66
  -13    9    8    -19.25     -0.72
  -11    9    8    -16.89      0.07
   -9    9    8    -23.68     -1.11
   -7    9    8    -20.50      0.27
   -5    9    8    -27.92     -0.11
   -3    9    8    -41.67     -0.63
   -1    9    8    -49.37     -0.57
    1    9    8     -8.06     -0.08
    3    9    8    -37.28     -0.37
    5    9    8    -16.83     -0.17
    7    9    8    -13.98      0.49
    9    9    8      2.22      0.81
   11    9    8    -15.75     -0.44
   13    9    8     -3.21     -0.56
   15    9    8      3.87      0.23
   17    9    8    -18.69     -0.09
   19    9    8     -7.42      0.00
   21    9    8    -14.95     -0.29
   23    9    8    -18.87      0.07
  -26   10    8      5.07      0.05
  -24   10    8      6.13      0.64
  -22   10    8     12.46     -0.91
  -20   10    8     -4.73     -0.28
  -18   10    8     -3.93     -0.70
  -16   10    8      9.99      0.31
  -14   10    8      8.49     -0.64
  -12   10    8     -9.59     -0.37
  -10   10    8      7.92     -0.19
   -8   10    8     11.32      0.29
   -6   10    8     -6.07     -0.61
   -4   10    8     -0.52     -0.01
   -2   10    8     39.00      0.58
    0   10    8     48.71      0.49
    2   10    8      6.68      0.05
    4   10    8     36.94      0.16
    6   10    8     15.26      0.07
    8   10    8     25.62      0.27
   10   10    8     -9.02     -0.30
   12   10    8      7.86      0.06
   14   10    8      1.40      0.18
   16   10    8     -0.88      0.02
   18   10    8     -4.02     -0.23
   20   10    8      3.53      0.06
   22   10    8     -4.41     -0.02
   24   10    8      0.97      0.10
  -27   11    8      3.34     -0.61
  -25   11    8      2.44      0.31
  -23   11    8      4.89     -0.53
  -21   11    8    -15.90      0.28
  -19   11    8      2.31     -0.15
  -17   11    8      5.11      1.04
  -15   11    8      5.99      0.32
  -13   11    8      1.82     -0.22
  -11   11    8      7.55      0.37
   -9   11    8    -18.12     -0.47
   -7   11    8      9.97      0.04
   -5   11    8     45.99      0.29
   -3   11    8     48.30      0.05
   -1   11    8      9.95      0.04
    1   11    8     77.08     -0.15
    3   11    8    -11.94     -0.63
    5   11    8      9.08      0.05
    7   11    8     23.73     -0.21
    9   11    8     18.36     -0.44
   11   11    8     -1.78     -0.08
   13   11    8      6.90      0.02
   15   11    8     10.27      0.17
   17   11    8     -4.89     -0.35
   19   11    8      6.55     -0.14
   21   11    8      7.59     -0.23
   23   11    8      6.98     -0.08
  -26   12    8     -4.35      0.39
  -24   12    8     -4.92      0.55
  -22   12    8      4.88     -0.38
  -20   12    8      8.53      0.08
  -18   12    8      3.31     -0.23
  -16   12    8     -3.48      0.82
  -14   12    8     -4.68      0.08
  -12   12    8     -3.94      0.22
  -10   12    8     21.83     -0.71
   -8   12    8     -7.21      0.11
   -6   12    8    -46.29     -0.10
   -4   12    8    -69.63     -0.63
   -2   12    8    -13.70     -0.13
    0   12    8     18.46     -0.26
    2   12    8     -3.71      0.14
    4   12    8    -22.02     -0.15
    6   12    8    -45.63     -0.15
    8   12    8     -2.11      0.17
   10   12    8    -12.55     -0.44
   12   12    8     -2.86     -0.48
   14   12    8     -3.35      0.14
   16   12    8      5.42      0.20
   18   12    8     -8.45     -0.11
   20   12    8      3.35     -0.66
   22   12    8    -13.16     -0.12
  -27   13    8     12.56      0.33
  -25   13    8      2.43      0.34
  -23   13    8      1.57     -0.16
  -21   13    8    -20.29     -0.19
  -19   13    8     -1.21     -0.10
  -17   13    8      2.19      0.16
  -15   13    8     11.85     -0.34
  -13   13    8    -12.76     -0.59
  -11   13    8     -7.99     -0.28
   -9   13    8     -1.07      0.30
   -7   13    8     11.90     -0.15
   -5   13    8     -6.62     -0.28
   -3   13    8     -4.96      0.30
   -1   13    8    -34.33      0.41
    1   13    8     28.40      0.78
    3   13    8      0.59      0.01
    5   13    8     26.68      0.14
    7   13    8     -8.31      0.07
    9   13    8    -19.97      0.27
   11   13    8     -5.50      0.12
   13   13    8     -6.20      0.34
   15   13    8     -0.57      0.35
   17   13    8     -1.77     -0.04
   19   13    8      0.35      0.17
   21   13    8    -10.79     -0.23
   23   13    8     -6.85     -0.17
  -26   14    8      0.83      0.26
  -24   14    8      2.68      0.43
  -22   14    8     -9.57      0.15
  -20   14    8    -11.51      0.05
  -18   14    8     -5.35     -0.63
  -16   14    8     -1.92     -0.15
  -14   14    8      6.37     -0.46
  -12   14    8     18.09      0.51
  -10   14    8      2.38     -0.38
   -8   14    8    -33.76     -1.19
   -6   14    8      6.29     -0.41
   -4   14    8     24.23     -0.61
   -2   14    8     10.78      0.41
    0   14    8     22.58      0.18
    2   14    8     20.65     -0.05
    4   14    8    -16.12      0.02
    6   14    8     11.26     -0.68
    8   14    8     30.89     -0.28
   10   14    8      6.01     -0.39
   12   14    8      7.61     -0.31
   14   14    8      3.97      0.17
   16   14    8     28.15      0.11
   18   14    8      9.38      0.35
   20   14    8     10.48     -0.23
   22   14    8      2.84      0.01
  -25   15    8    -19.51     -0.34
  -23   15    8     -8.26     -0.38
  -21   15    8    -13.45     -0.47
  -19   15    8      2.34     -0.04
  -17   15    8    -11.65     -0.04
  -15   15    8     12.57     -0.24
  -13   15    8     13.77      0.21
  -11   15    8     12.19     -0.11
   -9   15    8      9.60      0.25
   -7   15    8      5.35     -0.20
   -5   15    8    -12.58     -0.51
   -3   15    8     -6.88      0.09
   -1   15    8    -21.22     -0.25
    1   15    8    -10.92      0.68
    3   15    8      2.17     -0.14
    5   15    8     12.16     -0.23
    7   15    8    -11.25     -0.18
    9   15    8     -3.48      0.21
   11   15    8     13.38     -0.53
   13   15    8     -0.60     -0.10
   15   15    8      8.53     -0.05
   17   15    8     10.19      0.11
   19   15    8      9.08     -0.06
   21   15    8      2.18     -0.39
   23   15    8     -7.61      0.04
  -26   16    8     -7.26      0.17
  -24   16    8     -8.23      0.32
  -22   16    8    -17.91     -0.06
  -20   16    8     -9.29     -0.16
  -18   16    8      1.14     -0.42
  -16   16    8     -5.38     -0.33
  -14   16    8     -9.42     -0.24
  -12   16    8      4.69      0.00
  -10   16    8     17.06      0.28
   -8   16    8      0.32     -0.14
   -6   16    8    -12.24      1.11
   -4   16    8    -28.95      0.35
   -2   16    8    -40.08     -0.10
    0   16    8     -7.39     -0.11
    2   16    8     19.52     -0.11
    4   16    8    -20.33      0.34
    6   16    8     -8.55     -1.12
    8   16    8    -31.46      0.59
   10   16    8     -5.09      0.37
   12   16    8     -1.60     -0.20
   14   16    8    -23.29     -0.23
   16   16    8     -7.46     -0.43
   18   16    8    -11.13      0.06
   20   16    8     -5.78     -0.33
   22   16    8     -6.77     -0.11
  -25   17    8    -10.58     -0.28
  -23   17    8      0.57     -0.18
  -21   17    8    -10.09     -0.15
  -19   17    8     -8.02      0.04
  -17   17    8    -12.90      0.16
  -15   17    8     -4.52     -0.11
  -13   17    8      7.98      0.22
  -11   17    8     15.89      0.20
   -9   17    8     -9.11      0.17
   -7   17    8    -29.50      0.11
   -5   17    8     -9.76     -0.40
   -3   17    8    -15.89     -0.57
   -1   17    8     -0.33     -0.81
    1   17    8     -4.00     -0.07
    3   17    8     -3.53      0.40
    5   17    8    -10.65      0.32
    7   17    8     14.91     -0.76
    9   17    8      9.90      0.06
   11   17    8     14.04     -0.24
   13   17    8     -3.01     -0.10
   15   17    8     -2.09      0.00
   17   17    8     12.84     -0.08
   19   17    8     -1.16     -0.26
   21   17    8     -1.74     -0.12
  -26   18    8     -5.31      0.05
  -24   18    8     -3.73      0.05
  -22   18    8    -11.34     -0.38
  -20   18    8    -11.29     -0.20
  -18   18    8     -6.97     -0.36
  -16   18    8      3.07     -0.32
  -14   18    8     23.05      0.45
  -12   18    8     19.30      0.26
  -10   18    8     13.14      0.67
   -8   18    8     11.15     -0.22
   -6   18    8     11.90      0.27
   -4   18    8     22.92      0.17
   -2   18    8     11.91     -0.21
    0   18    8    -14.09      0.18
    2   18    8      0.04     -0.19
    4   18    8      8.77      0.50
    6   18    8     41.62     -0.94
    8   18    8      1.05      0.18
   10   18    8     23.83     -0.03
   12   18    8      3.98      0.05
   14   18    8     -3.87      0.31
   16   18    8     -5.72     -0.13
   18   18    8    -14.21      0.05
   20   18    8     -5.61     -0.24
   22   18    8      0.31     -0.04
  -25   19    8    -10.92     -0.04
  -23   19    8     -6.71      0.17
  -21   19    8    -10.18     -0.06
  -19   19    8     -2.00      0.17
  -17   19    8     14.75      0.43
  -15   19    8      2.45      0.21
  -13   19    8     -5.32     -0.01
  -11   19    8      7.19      0.20
   -9   19    8     12.98      0.47
   -7   19    8    -15.07      0.70
   -5   19    8      3.50      0.54
   -3   19    8     -9.55     -0.08
   -1   19    8     16.24     -0.64
    1   19    8     -3.07     -0.45
    3   19    8    -18.85      0.54
    5   19    8    -22.57      0.00
    7   19    8      3.73     -0.85
    9   19    8    -14.87     -0.18
   11   19    8     -9.23      0.40
   13   19    8    -17.79     -0.26
   15   19    8    -26.77     -0.33
   17   19    8     -7.56     -0.25
   19   19    8     -8.79     -0.57
   21   19    8      3.03     -0.14
  -24   20    8     13.67      0.13
  -22   20    8     12.28      0.15
  -20   20    8      4.23      0.31
  -18   20    8      4.57      0.41
  -16   20    8      2.79      0.67
  -14   20    8    -11.97      0.47
  -12   20    8     -6.33     -0.51
  -10   20    8      1.14     -0.29
   -8   20    8     -9.07      0.55
   -6   20    8    -13.47      0.57
   -4   20    8     -6.27     -0.14
   -2   20    8      0.62     -1.03
    0   20    8      5.50     -0.82
    2   20    8     12.61      0.11
    4   20    8     -8.71      1.36
    6   20    8      7.12     -0.34
    8   20    8    -10.99     -0.83
   10   20    8      6.42      0.13
   12   20    8     -5.39     -0.16
   14   20    8     -0.06      0.61
   16   20    8     -6.82      0.19
   18   20    8    -11.87     -0.38
   20   20    8     -5.67     -0.20
   22   20    8     -0.87     -0.12
  -25   21    8      8.91      0.09
  -23   21    8      7.16     -0.05
  -21   21    8      2.44     -0.47
  -19   21    8     -3.68     -0.26
  -17   21    8      4.44     -0.27
  -15   21    8      7.36      0.02
  -13   21    8      8.51     -0.09
  -11   21    8     -3.47      0.13
   -9   21    8     16.60     -0.02
   -7   21    8      0.43     -0.73
   -5   21    8     25.50     -0.74
   -3   21    8     18.98      0.02
   -1   21    8     22.51      0.50
    1   21    8      0.38      0.07
    3   21    8     -7.18      0.67
    5   21    8     12.71      0.68
    7   21    8     16.43      1.21
    9   21    8      7.68     -0.43
   11   21    8      4.93      0.08
   13   21    8      3.90      0.23
   15   21    8      0.37      0.01
   17   21    8      0.79      0.16
   19   21    8     -2.02     -0.06
   21   21    8      0.48     -0.04
  -24   22    8      5.24     -0.02
  -22   22    8      4.50      0.02
  -20   22    8     -0.15     -0.21
  -18   22    8      5.88      0.05
  -16   22    8     22.67      0.27
  -14   22    8    -14.31     -0.13
  -12   22    8    -13.41     -0.30
  -10   22    8     -0.41      0.07
   -8   22    8      1.92      0.75
   -6   22    8      9.68     -0.96
   -4   22    8      3.05      0.19
   -2   22    8      3.28     -0.14
    0   22    8      0.20     -0.33
    2   22    8      6.06      0.23
    4   22    8      3.40     -0.41
    6   22    8     12.70      0.43
    8   22    8      1.44     -1.26
   10   22    8    -19.76     -0.01
   12   22    8    -10.92     -0.49
   14   22    8      7.25     -0.22
   16   22    8     -1.33      0.14
   18   22    8    -10.28     -0.09
   20   22    8      0.30     -0.02
  -23   23    8      9.46     -0.13
  -21   23    8      9.45      0.00
  -19   23    8      4.12      0.19
  -17   23    8      5.26      0.29
  -15   23    8     -2.59      0.39
  -13   23    8     -1.61      0.29
  -11   23    8    -20.86      0.02
   -9   23    8     -5.44     -0.13
   -7   23    8     -2.78     -0.21
   -5   23    8     11.89     -0.99
   -3   23    8     -3.04      0.01
   -1   23    8     -9.26      0.71
    1   23    8     11.10     -0.38
    3   23    8     10.02      0.28
    5   23    8      7.94     -1.28
    7   23    8    -21.95     -0.02
    9   23    8     -4.86     -0.33
   11   23    8     -6.31     -0.35
   13   23    8     -3.05      0.04
   15   23    8     -2.43      0.06
   17   23    8    -11.19     -0.08
   19   23    8      3.69     -0.09
   21   23    8     -1.28      0.13
  -24   24    8     10.93     -0.09
  -22   24    8     15.01     -0.17
  -20   24    8     20.55      0.15
  -18   24    8     -2.59      0.09
  -16   24    8      6.22     -0.20
  -14   24    8     -7.45     -0.35
  -12   24    8     -2.97     -0.14
  -10   24    8      3.87      0.15
   -8   24    8      8.16      0.29
   -6   24    8     13.34     -1.94
   -4   24    8     -9.60      0.32
   -2   24    8      2.74     -0.36
    0   24    8      7.38     -0.29
    2   24    8      4.56     -0.07
    4   24    8      0.35     -0.42
    6   24    8     -9.40      4.16
    8   24    8      9.40      0.72
   10   24    8     -5.02     -0.66
   12   24    8      6.06     -0.61
   14   24    8      6.43     -0.34
   16   24    8      1.14     -0.20
   18   24    8      1.98     -0.11
   20   24    8      3.94     -0.07
  -23   25    8    -13.28      0.09
  -21   25    8     -3.15      0.15
  -19   25    8     -7.76     -0.03
  -17   25    8      2.96      0.34
  -15   25    8      0.57      0.07
  -13   25    8     -1.90      0.16
  -11   25    8     -5.50      0.22
   -9   25    8     -7.69      0.43
   -7   25    8     13.84     -0.31
   -5   25    8     17.89     -1.02
   -3   25    8     -2.18      0.04
   -1   25    8    -21.82      0.49
    1   25    8     16.46     -0.48
    3   25    8     21.16     -0.45
    5   25    8     13.12     -2.05
    7   25    8     -6.90     -0.57
    9   25    8      7.14     -0.46
   11   25    8     -3.45     -0.01
   13   25    8      3.82      0.01
   15   25    8      5.19      0.03
   17   25    8    -12.84      0.26
   19   25    8      3.80      0.02
  -22   26    8    -14.76     -0.25
  -20   26    8    -10.16      0.33
  -18   26    8    -14.43      0.29
  -16   26    8     -2.12      0.12
  -14   26    8      9.27      0.24
  -12   26    8      9.18      0.44
  -10   26    8     -8.13      0.02
   -8   26    8    -12.42      0.53
   -6   26    8     10.60     -0.55
   -4   26    8      3.59      0.30
   -2   26    8      9.31     -0.17
    0   26    8      7.49     -0.07
    2   26    8      3.23     -0.36
    4   26    8     12.80     -1.21
    6   26    8     -6.51      0.27
    8   26    8     10.57     -0.52
   10   26    8      3.43     -0.29
   12   26    8      0.11      0.05
   14   26    8    -12.31      0.33
   16   26    8    -15.69     -0.16
   18   26    8     -0.47     -0.10
   20   26    8     -1.00      0.10
  -23   27    8      2.14      0.20
  -21   27    8      6.29      0.08
  -19   27    8     -0.79      0.12
  -17   27    8      0.39      0.29
  -15   27    8      7.59     -0.23
  -13   27    8     -4.85     -0.34
  -11   27    8      6.05     -0.23
   -9   27    8    -15.52      0.19
   -7   27    8      3.20     -0.69
   -5   27    8      2.80     -0.39
   -3   27    8     -0.85     -0.17
   -1   27    8    -10.24      0.38
    1   27    8     10.36      0.42
    3   27    8     -7.05      0.16
    5   27    8    -12.21      0.76
    7   27    8     -0.91      1.02
    9   27    8      5.92     -0.54
   11   27    8    -10.06      0.46
   13   27    8    -15.25      0.14
   15   27    8     -1.38     -0.08
   17   27    8     -0.42     -0.11
   19   27    8      5.06     -0.15
  -22   28    8    -10.86      0.09
  -20   28    8    -13.51      0.12
  -18   28    8     -1.63      0.17
  -16   28    8     -6.44      0.21
  -14   28    8      1.38     -0.18
  -12   28    8     12.46     -0.37
  -10   28    8      3.08     -0.64
   -8   28    8     -9.36      0.22
   -6   28    8      5.52      0.54
   -4   28    8      2.88      0.21
   -2   28    8    -11.59      0.11
    0   28    8      6.42      0.10
    2   28    8      3.21      0.19
    4   28    8     -0.67      0.53
    6   28    8     -3.70     -0.81
    8   28    8     13.64      0.02
   10   28    8     15.17     -0.04
   12   28    8      3.11     -0.01
   14   28    8    -12.49      0.13
   16   28    8    -13.82      0.14
   18   28    8      6.02      0.24
  -21   29    8    -24.79     -0.12
  -19   29    8    -10.68      0.06
  -17   29    8      0.78      0.21
  -15   29    8     12.20      0.18
  -13   29    8     -2.89     -0.14
  -11   29    8     17.87     -0.45
   -9   29    8     -4.90     -0.06
   -7   29    8     -1.52      0.37
   -5   29    8     -0.75      0.45
   -3   29    8     12.75     -0.23
   -1   29    8      9.64      0.03
    1   29    8     12.51      0.04
    3   29    8      0.03      0.14
    5   29    8      4.17      0.59
    7   29    8     12.58     -0.59
    9   29    8     16.01     -0.22
   11   29    8     11.39      0.88
   13   29    8    -13.66      0.23
   15   29    8     -3.18      0.28
   17   29    8      5.91      0.01
  -22   30    8      2.68      0.02
  -20   30    8    -16.40     -0.18
  -18   30    8      5.80      0.18
  -16   30    8     -4.63      0.09
  -14   30    8      2.02     -0.31
  -12   30    8      4.51     -0.18
  -10   30    8     -7.11     -0.19
   -8   30    8    -17.66     -0.22
   -6   30    8     -6.20      0.53
   -4   30    8     12.82      0.17
   -2   30    8    -14.85      0.17
    0   30    8     -0.49      0.13
    2   30    8    -12.05      0.23
    4   30    8    -17.19      0.82
    6   30    8      3.99     -0.84
    8   30    8     -0.06      0.40
   10   30    8    -10.08      0.00
   12   30    8    -20.83      0.47
   14   30    8    -18.80     -0.09
   16   30    8     -4.76     -0.23
   18   30    8      5.75     -0.11
  -21   31    8     -6.26      0.21
  -19   31    8      8.88      0.02
  -17   31    8      8.29     -0.11
  -15   31    8      6.15      0.09
  -13   31    8     -1.69     -0.14
  -11   31    8     13.03     -0.20
   -9   31    8     -1.69     -0.22
   -7   31    8     -9.50      0.06
   -5   31    8     -9.57     -0.44
   -3   31    8     -1.45     -0.06
   -1   31    8      4.50      0.27
    1   31    8      0.93      0.03
    3   31    8    -18.65      0.56
    5   31    8     -5.08      0.88
    7   31    8      5.99     -0.34
    9   31    8      1.12      0.34
   11   31    8     -2.41     -0.18
   13   31    8    -23.13     -0.48
   15   31    8    -10.63     -0.16
   17   31    8     10.21     -0.09
  -20   32    8    -14.72     -0.09
  -18   32    8      9.56      0.07
  -16   32    8     -5.41      0.05
  -14   32    8     -1.49     -0.33
  -12   32    8      6.90     -0.27
  -10   32    8     12.17     -0.17
   -8   32    8     11.63     -0.14
   -6   32    8     -7.48      0.57
   -4   32    8      8.54     -0.12
   -2   32    8     -9.80     -0.52
    0   32    8      2.90     -0.88
    2   32    8     15.45     -0.24
    4   32    8     12.29      0.38
    6   32    8     15.49     -0.55
    8   32    8     -1.46      0.64
   10   32    8      2.58     -0.15
   12   32    8      4.19      0.01
   14   32    8     -3.98     -0.04
   16   32    8     -1.88      0.24
  -19   33    8      7.38     -0.23
  -17   33    8      1.81     -0.12
  -15   33    8      4.03      0.27
  -13   33    8      6.81      0.37
  -11   33    8     -7.16      0.09
   -9   33    8     -8.86     -0.62
   -7   33    8     -4.90     -0.57
   -5   33    8      4.14     -0.21
   -3   33    8     -0.50      0.50
   -1   33    8      2.72      0.04
    1   33    8     -1.50     -0.30
    3   33    8    -14.20     -0.24
    5   33    8     -2.24     -0.47
    7   33    8      2.23     -0.62
    9   33    8     -7.14      0.15
   11   33    8     -9.45     -0.18
   13   33    8    -14.14      0.15
   15   33    8    -18.98     -0.16
  -18   34    8     14.09     -0.23
  -16   34    8     11.07     -0.02
  -14   34    8     12.25      0.03
  -12   34    8      9.48      0.16
  -10   34    8      1.02      0.16
   -8   34    8      2.55     -0.27
   -6   34    8     -6.04      0.26
   -4   34    8      9.18     -0.01
   -2   34    8      4.21     -0.01
    0   34    8     -6.28     -0.48
    2   34    8     -9.27     -0.13
    4   34    8     -4.78      0.32
    6   34    8      8.24     -0.35
    8   34    8     -2.74      0.15
   10   34    8    -13.91     -0.09
   12   34    8    -11.32     -0.09
   14   34    8    -12.36      0.14
   16   34    8    -12.21     -0.24
  -19   35    8      2.45     -0.41
  -17   35    8     -9.78     -0.32
  -15   35    8    -12.41      0.20
  -13   35    8      0.18      0.16
  -11   35    8     -2.43      0.05
   -9   35    8     12.75     -0.44
   -7   35    8      0.42     -0.94
   -5   35    8     -2.48     -0.04
   -3   35    8     -0.40      0.02
   -1   35    8      4.16     -0.16
    1   35    8     11.81      0.38
    3   35    8     13.36      0.28
    5   35    8     11.03     -0.34
    7   35    8     12.06     -0.10
    9   35    8      3.39     -0.02
   11   35    8      2.83      0.00
   13   35    8      7.46      0.26
   15   35    8    -11.11     -0.03
  -18   36    8     -8.81      0.01
  -16   36    8      7.15     -0.12
  -14   36    8      5.47     -0.03
  -12   36    8      0.83     -0.41
  -10   36    8     -1.31     -0.24
   -8   36    8     -4.90     -0.61
   -6   36    8     -6.97      0.30
   -4   36    8    -12.27      0.20
   -2   36    8     -8.83      0.12
    0   36    8     -2.76     -0.33
    2   36    8     -4.17     -0.55
    4   36    8      4.97     -0.17
    6   36    8      3.44     -0.43
    8   36    8     11.26      0.02
   10   36    8      2.64      0.18
   12   36    8      6.01     -0.32
   14   36    8      3.19      0.14
  -17   37    8     -0.82     -0.03
  -15   37    8      4.19      0.15
  -13   37    8     -3.08     -0.06
  -11   37    8     -9.81      0.40
   -9   37    8      3.84      0.22
   -7   37    8      4.12     -0.52
   -5   37    8      0.07      0.58
   -3   37    8    -15.38      0.41
   -1   37    8    -18.72      0.42
    1   37    8     -6.43      0.51
    3   37    8     -1.31     -0.08
    5   37    8      0.27     -0.41
    7   37    8     -4.22     -0.51
    9   37    8     -7.91     -0.06
   11   37    8     -4.98      0.53
   13   37    8     -5.83      0.47
  -16   38    8      0.43     -0.06
  -14   38    8     -9.39      0.65
  -12   38    8     -9.75      0.11
  -10   38    8      3.95      0.74
   -8   38    8    -11.26     -0.89
   -6   38    8     -8.00     -0.49
   -4   38    8      1.83      0.23
   -2   38    8     -0.60      0.61
    0   38    8      5.89      0.70
    2   38    8     -5.77     -0.37
    4   38    8     -0.13     -0.23
    6   38    8     -5.29      0.02
    8   38    8     13.67      0.10
   10   38    8     -0.98      0.01
   12   38    8      9.68     -0.03
  -15   39    8      6.68     -0.29
  -13   39    8     -8.65     -0.18
  -11   39    8      3.43     -0.35
   -9   39    8     -0.72     -0.42
   -7   39    8    -11.93     -0.55
   -5   39    8    -13.38     -0.83
   -3   39    8    -23.62     -0.17
   -1   39    8     -3.91     -0.19
    1   39    8      9.54     -0.35
    3   39    8      1.69     -0.49
    5   39    8      1.34     -0.32
    7   39    8     -4.71     -0.45
    9   39    8      6.91      0.23
   11   39    8     12.89      0.13
  -14   40    8     -3.72     -0.39
  -12   40    8     -9.74     -0.52
  -10   40    8      3.28      0.91
   -8   40    8     -3.08     -0.34
   -6   40    8      3.24     -0.80
   -4   40    8      3.32     -0.24
   -2   40    8    -14.73     -0.40
    0   40    8      7.09      0.78
    2   40    8     -2.96     -0.45
    4   40    8      4.45     -0.40
    6   40    8     -7.78      0.08
    8   40    8     -2.49      0.25
   10   40    8     -7.20      0.21
  -13   41    8     -5.24      0.38
  -11   41    8      8.49      0.46
   -9   41    8     -1.29      1.16
   -7   41    8    -15.19      1.71
   -5   41    8      1.81     -0.74
   -3   41    8     -6.57      0.18
   -1   41    8      5.44      0.29
    1   41    8     14.27     -0.15
    3   41    8      5.91     -0.27
    5   41    8     -3.57     -0.32
    7   41    8     -1.66     -0.19
    9   41    8     -1.11     -0.20
  -12   42    8      2.93     -0.62
  -10   42    8      4.21     -1.13
   -8   42    8     -9.45      0.22
   -6   42    8     -2.06     -1.47
   -4   42    8      0.34     -0.40
   -2   42    8     -5.77     -0.72
    0   42    8     11.90      0.01
    2   42    8      1.50     -0.61
    4   42    8     13.43     -0.22
    6   42    8      7.55      0.10
    8   42    8      1.69      0.12
  -11   43    8      9.62     -0.04
   -9   43    8     18.95     -1.26
   -7   43    8      2.34     -0.03
   -5   43    8      7.02     -0.87
   -3   43    8     -5.84     -0.43
   -1   43    8      9.74     -0.05
    1   43    8      8.98     -0.22
    3   43    8      3.70      0.18
    5   43    8     -7.59      0.16
    7   43    8      7.79      0.41
  -10   44    8      4.39      0.40
   -8   44    8     -7.42      5.54
   -6   44    8      5.31      1.36
   -4   44    8      8.52      0.11
   -2   44    8     -0.34     -0.51
    0   44    8     -6.68     -0.11
    2   44    8      3.66     -0.03
    4   44    8     13.23     -0.19
    6   44    8     14.51     -0.05
   -7   45    8      1.66     -0.40
   -5   45    8     -7.37     -0.64
   -3   45    8    -22.83     -0.06
   -1   45    8     -5.22      0.25
    1   45    8     -6.11     -0.11
    3   45    8      5.37     -0.01
   -4   46    8     -2.78     -0.26
   -2   46    8     -6.27      0.01
    0   46    8    -15.29     -0.09
  -28    0    9     21.87     -2.46
  -26    0    9      6.24      1.55
  -24    0    9    -28.96      2.43
  -22    0    9    -17.17      0.17
  -20    0    9    -23.99      0.26
  -18    0    9    -41.74      0.83
  -16    0    9    -24.20      0.63
  -14    0    9    -10.67      0.66
  -12    0    9    -32.30      0.65
  -10    0    9      1.93      0.33
   -8    0    9     55.98     -0.06
   -6    0    9    -49.10      0.29
   -4    0    9    -78.97     -0.08
   -2    0    9     -1.12      0.13
    0    0    9     12.28      0.15
    2    0    9     45.37      0.18
    4    0    9     31.57     -0.04
    6    0    9    -23.14     -0.56
    8    0    9    -39.85     -0.33
   10    0    9     11.17      0.28
   12    0    9     18.00     -0.32
   14    0    9     -8.32     -0.23
   16    0    9    -12.28     -0.26
   18    0    9     -0.14     -0.12
   20    0    9      5.76     -0.35
   22    0    9      1.11     -0.24
   24    0    9      1.12     -0.16
  -27    1    9     24.88     -0.56
  -25    1    9      4.72     -0.26
  -23    1    9     13.68     -1.10
  -21    1    9     -7.35     -0.28
  -19    1    9     -1.47      0.33
  -17    1    9     10.14     -1.57
  -15    1    9      6.43     -0.39
  -13    1    9     -1.68      1.37
  -11    1    9     13.04     -0.45
   -9    1    9     43.74     -0.25
   -7    1    9     11.49      1.29
   -5    1    9     23.51      0.35
   -3    1    9    -40.90      0.16
   -1    1    9     42.81     -0.21
    1    1    9    -24.55     -0.47
    3    1    9     33.15      0.34
    5    1    9    -71.13      0.58
    7    1    9     28.52      0.76
    9    1    9      4.51      0.22
   11    1    9     11.13      0.31
   13    1    9     -8.30     -0.23
   15    1    9     -3.76     -0.27
   17    1    9    -13.85      0.25
   19    1    9      1.70      0.11
   21    1    9      6.72      0.20
   23    1    9     -5.99     -0.44
  -28    2    9     12.68      0.06
  -26    2    9     20.90      1.07
  -24    2    9      7.54     -0.47
  -22    2    9      9.18     -0.68
  -20    2    9     -5.21     -1.15
  -18    2    9      1.41     -1.85
  -16    2    9     15.40      0.97
  -14    2    9     18.51     -0.12
  -12    2    9     11.98      0.08
  -10    2    9     16.57      0.72
   -8    2    9     26.48     -0.48
   -6    2    9     20.61      0.25
   -4    2    9     13.95     -0.01
   -2    2    9    -26.33     -0.09
    0    2    9    -50.54     -0.41
    2    2    9      9.20     -0.07
    4    2    9     -4.71      0.05
    6    2    9     -2.10     -0.10
    8    2    9      0.55      0.42
   10    2    9      7.28      0.35
   12    2    9      0.01     -0.10
   14    2    9     -7.08     -0.09
   16    2    9    -14.53      0.04
   18    2    9      0.42     -0.09
   20    2    9      8.53      0.13
   22    2    9      4.13     -0.08
   24    2    9      1.12     -0.13
  -27    3    9      9.69     -0.83
  -25    3    9    -10.82      2.17
  -23    3    9     -8.56      0.70
  -21    3    9     -4.93      0.00
  -19    3    9    -18.17      0.95
  -17    3    9    -22.17     -1.09
  -15    3    9     -3.50     -0.45
  -13    3    9     -8.43      0.42
  -11    3    9    -48.33     -0.42
   -9    3    9      4.94     -0.48
   -7    3    9    -23.28      0.65
   -5    3    9    -15.59     -0.28
   -3    3    9     15.51      0.16
   -1    3    9     56.58     -0.64
    1    3    9    -18.78     -0.51
    3    3    9     32.38      0.19
    5    3    9     -1.49      0.53
    7    3    9    -17.89      0.51
    9    3    9    -19.68     -0.03
   11    3    9     16.69     -0.05
   13    3    9      4.01     -0.50
   15    3    9     -5.19     -0.39
   17    3    9     -1.50      0.08
   19    3    9     -6.79      0.05
   21    3    9      1.92     -0.01
   23    3    9     12.65     -0.07
  -28    4    9     -4.77      0.94
  -26    4    9     -0.90      1.44
  -24    4    9     -6.61     -0.05
  -22    4    9      4.64      0.12
  -20    4    9     -6.39     -0.19
  -18    4    9     12.37     -0.90
  -16    4    9     -7.32      0.31
  -14    4    9    -25.58      0.97
  -12    4    9     -3.48      0.34
  -10    4    9      8.95      0.47
   -8    4    9    -17.11      0.30
   -6    4    9      2.87     -0.15
   -4    4    9      1.20     -0.66
   -2    4    9    -19.57     -0.40
    0    4    9    -14.66     -0.43
    2    4    9     54.44     -0.19
    4    4    9     -6.50      0.08
    6    4    9    -20.17      0.06
    8    4    9     -4.90     -0.19
   10    4    9      3.10      0.24
   12    4    9      3.00      0.46
   14    4    9      1.16     -0.12
   16    4    9    -19.47      0.46
   18    4    9     -7.51      0.09
   20    4    9     -6.54      0.10
   22    4    9     10.38     -0.20
   24    4    9     -1.16      0.12
  -27    5    9      2.11      0.39
  -25    5    9      7.59      0.17
  -23    5    9      1.75     -0.64
  -21    5    9      8.58     -0.46
  -19    5    9      7.05     -0.83
  -17    5    9      5.22      0.58
  -15    5    9      9.83      0.65
  -13    5    9     19.19     -1.47
  -11    5    9    -10.52      0.06
   -9    5    9     11.06     -1.12
   -7    5    9    -11.08     -0.09
   -5    5    9     13.76     -0.21
   -3    5    9     -2.93     -0.03
   -1    5    9    -74.38     -0.74
    1    5    9     -4.22     -0.43
    3    5    9     -0.09      0.03
    5    5    9     20.29     -0.37
    7    5    9    -32.65      0.40
    9    5    9     -6.07      0.60
   11    5    9     11.62      0.20
   13    5    9     10.66     -0.12
   15    5    9     -2.12     -0.11
   17    5    9     -1.63      0.07
   19    5    9     -5.32      0.03
   21    5    9     -2.36     -0.11
   23    5    9     14.06     -0.23
  -28    6    9     -5.55     -1.07
  -26    6    9     -2.78      0.34
  -24    6    9     -8.80      1.13
  -22    6    9     21.04      0.19
  -20    6    9      3.60     -0.29
  -18    6    9     -1.36      0.63
  -16    6    9      1.84     -0.40
  -14    6    9     13.74      0.16
  -12    6    9     -8.50     -0.30
  -10    6    9    -23.31      0.48
   -8    6    9    -33.68      0.61
   -6    6    9     -7.50     -0.44
   -4    6    9     51.51      0.08
   -2    6    9    108.30      0.48
    0    6    9     11.74      0.22
    2    6    9    -10.48      0.11
    4    6    9     15.32      0.03
    6    6    9     28.46      0.11
    8    6    9     10.60     -0.61
   10    6    9     -2.63      0.01
   12    6    9     -2.69     -0.14
   14    6    9      2.47     -0.87
   16    6    9      0.72     -0.24
   18    6    9      8.69     -0.15
   20    6    9    -13.84      0.07
   22    6    9     24.59     -0.32
   24    6    9     17.48      0.12
  -27    7    9     -9.63     -0.60
  -25    7    9     -2.47     -1.38
  -23    7    9     -1.44      0.09
  -21    7    9     -2.08      0.68
  -19    7    9     -0.03      0.04
  -17    7    9     -3.00      1.33
  -15    7    9    -19.75      1.75
  -13    7    9     -2.27      0.02
  -11    7    9     -6.62      1.93
   -9    7    9    -42.35      0.57
   -7    7    9    -32.12      0.45
   -5    7    9     12.41      0.08
   -3    7    9     24.82     -0.24
   -1    7    9    -82.03     -0.27
    1    7    9     48.89     -0.16
    3    7    9    -19.76     -0.11
    5    7    9     22.95     -0.62
    7    7    9     -2.94     -0.66
    9    7    9     17.77     -0.34
   11    7    9     -4.81      0.23
   13    7    9      6.67      0.27
   15    7    9      7.94     -0.36
   17    7    9     -7.22      0.19
   19    7    9    -14.26     -0.01
   21    7    9    -16.26     -0.40
   23    7    9     14.00     -0.28
  -28    8    9      1.75     -0.38
  -26    8    9     -1.93     -0.57
  -24    8    9    -14.68     -0.10
  -22    8    9     15.17     -0.15
  -20    8    9     20.23     -0.62
  -18    8    9      7.59      1.16
  -16    8    9     -6.49      0.60
  -14    8    9     -2.83      0.20
  -12    8    9    -16.00     -0.49
  -10    8    9     14.02     -0.97
   -8    8    9      3.81     -0.34
   -6    8    9    -43.55     -0.15
   -4    8    9    -45.28      0.08
   -2    8    9     -5.57     -0.06
    0    8    9      1.09     -0.26
    2    8    9     -1.03      0.46
    4    8    9     -9.90     -0.35
    6    8    9    -22.96     -0.79
    8    8    9     -9.88      0.02
   10    8    9      5.67      0.51
   12    8    9      3.43     -0.15
   14    8    9      0.64     -0.32
   16    8    9      0.08      0.12
   18    8    9      3.28     -0.16
   20    8    9     -4.27      0.01
   22    8    9     13.35     -0.07
  -27    9    9      3.85     -1.16
  -25    9    9     -2.06     -0.69
  -23    9    9      8.72      0.72
  -21    9    9      9.11     -0.01
  -19    9    9     -1.64      0.43
  -17    9    9      4.18      0.13
  -15    9    9     15.35      0.41
  -13    9    9      4.09     -0.42
  -11    9    9     12.51      0.71
   -9    9    9      4.62      1.11
   -7    9    9     32.42      0.04
   -5    9    9      0.54     -0.22
   -3    9    9     75.85      0.14
   -1    9    9     13.39      0.40
    1    9    9     54.93      0.16
    3    9    9    -21.37     -0.14
    5    9    9     31.53      0.28
    7    9    9     18.00     -0.17
    9    9    9     23.76      0.21
   11    9    9     -2.60      0.33
   13    9    9     -2.80      0.36
   15    9    9     -0.70     -0.70
   17    9    9     -2.27     -0.09
   19    9    9     -3.23      0.54
   21    9    9    -19.20      0.14
   23    9    9     21.24     -0.08
  -26   10    9      4.32     -0.38
  -24   10    9     -1.21      0.30
  -22   10    9      7.72      0.67
  -20   10    9      0.15      0.07
  -18   10    9     -0.52     -0.05
  -16   10    9     -8.68     -0.41
  -14   10    9      3.31     -0.02
  -12   10    9      0.98      0.83
  -10   10    9    -13.22      0.23
   -8   10    9    -45.83      0.02
   -6   10    9    -25.20      0.18
   -4   10    9     27.80     -0.15
   -2   10    9    -11.39     -0.25
    0   10    9      9.27     -0.25
    2   10    9     18.31      0.00
    4   10    9    -14.74      0.04
    6   10    9      5.43     -0.29
    8   10    9     26.37      0.28
   10   10    9     -0.87      0.00
   12   10    9    -16.67      0.20
   14   10    9     -4.39     -0.15
   16   10    9      6.25      0.39
   18   10    9    -16.85      0.11
   20   10    9    -15.14      0.05
   22   10    9     -2.99      0.22
  -27   11    9     10.33     -0.47
  -25   11    9     -6.54     -0.78
  -23   11    9     -5.88     -0.15
  -21   11    9     -3.22     -0.49
  -19   11    9     -7.05      0.51
  -17   11    9     -8.92     -0.37
  -15   11    9      9.32     -0.55
  -13   11    9    -25.52     -0.44
  -11   11    9    -15.67     -1.11
   -9   11    9      5.48     -0.27
   -7   11    9     18.75     -0.59
   -5   11    9    -54.26     -0.73
   -3   11    9      4.39     -0.14
   -1   11    9    -20.55     -0.15
    1   11    9    -33.80      0.38
    3   11    9    -42.54      0.32
    5   11    9    -12.81      0.52
    7   11    9    -14.19      0.06
    9   11    9      5.43      0.35
   11   11    9     -3.68     -0.37
   13   11    9     -8.19     -0.05
   15   11    9     -3.26     -0.24
   17   11    9      1.92     -0.15
   19   11    9     17.15      0.04
   21   11    9     -2.07     -0.13
   23   11    9     -3.25      0.15
  -26   12    9      9.35     -0.44
  -24   12    9      0.44      0.28
  -22   12    9      8.63      0.16
  -20   12    9     -6.27      0.39
  -18   12    9      7.91     -0.36
  -16   12    9      6.44     -0.33
  -14   12    9      4.56     -0.37
  -12   12    9      7.44     -0.42
  -10   12    9     30.99     -0.23
   -8   12    9     31.86     -0.03
   -6   12    9     20.67      0.14
   -4   12    9     23.66     -0.10
   -2   12    9    -18.96     -0.05
    0   12    9     17.97     -0.02
    2   12    9     43.36     -0.30
    4   12    9      0.57      0.48
    6   12    9     -5.26     -0.01
    8   12    9      0.31      0.29
   10   12    9      4.60     -0.10
   12   12    9      5.03      0.74
   14   12    9     -8.12     -0.03
   16   12    9      1.76     -0.31
   18   12    9     -4.91     -0.12
   20   12    9     -1.37      0.35
   22   12    9     -2.20      0.17
  -27   13    9      7.85      0.24
  -25   13    9      3.74      0.24
  -23   13    9      2.76      0.12
  -21   13    9      0.54     -0.15
  -19   13    9      0.34      0.02
  -17   13    9     -5.36     -0.13
  -15   13    9     10.34     -0.34
  -13   13    9     11.88      0.25
  -11   13    9     16.65     -0.44
   -9   13    9     -1.03     -0.38
   -7   13    9     -5.85     -0.46
   -5   13    9     -0.20     -0.27
   -3   13    9     21.37     -0.20
   -1   13    9      9.47     -0.11
    1   13    9     -3.14      0.04
    3   13    9     10.92     -0.50
    5   13    9    -12.08      0.43
    7   13    9      5.53      0.21
    9   13    9      8.37     -0.10
   11   13    9     -7.14     -0.22
   13   13    9     -4.40     -0.18
   15   13    9      3.37      0.12
   17   13    9      4.70      0.19
   19   13    9     -2.12      0.04
   21   13    9     -2.28     -0.18
   23   13    9    -15.02     -0.02
  -26   14    9     12.32     -0.25
  -24   14    9     -2.49      0.26
  -22   14    9      1.30     -0.17
  -20   14    9    -21.33      0.16
  -18   14    9     -9.26     -0.68
  -16   14    9     -5.25     -0.16
  -14   14    9     -4.51      0.07
  -12   14    9    -25.64     -0.37
  -10   14    9     -7.33     -0.31
   -8   14    9     25.72     -0.17
   -6   14    9     20.38     -0.70
   -4   14    9      8.60     -0.54
   -2   14    9    -21.98      0.16
    0   14    9    -72.92      0.34
    2   14    9    -36.84      0.12
    4   14    9     16.81     -0.16
    6   14    9     10.51     -0.33
    8   14    9    -12.73      0.12
   10   14    9      0.28     -0.23
   12   14    9      2.74      0.08
   14   14    9     -2.87     -0.03
   16   14    9      1.60     -0.25
   18   14    9      4.68      0.43
   20   14    9     17.90      0.36
   22   14    9      2.06      0.07
  -25   15    9      0.22     -0.08
  -23   15    9     -0.18      0.01
  -21   15    9      2.01      0.46
  -19   15    9      5.38      0.22
  -17   15    9      0.90      0.18
  -15   15    9     -5.93     -0.24
  -13   15    9     -1.08     -0.04
  -11   15    9      3.72     -0.13
   -9   15    9      7.03     -0.38
   -7   15    9     -3.75     -0.50
   -5   15    9     27.55      0.21
   -3   15    9     -2.57     -0.20
   -1   15    9     -2.88      0.13
    1   15    9     -5.89     -0.01
    3   15    9     12.19     -0.40
    5   15    9    -23.67      0.26
    7   15    9    -14.30     -0.46
    9   15    9    -15.15     -0.49
   11   15    9     -1.45      0.34
   13   15    9      7.21     -0.18
   15   15    9     -4.54     -0.08
   17   15    9     11.51     -0.08
   19   15    9      2.98      0.45
   21   15    9     12.61      0.42
  -26   16    9      7.58      0.10
  -24   16    9     -2.70      0.27
  -22   16    9     19.21     -0.12
  -20   16    9     14.81      0.00
  -18   16    9     10.77     -0.71
  -16   16    9     -2.02      0.41
  -14   16    9     -1.71      0.56
  -12   16    9      8.91      0.22
  -10   16    9     17.37      0.27
   -8   16    9     22.32      0.44
   -6   16    9     12.86      0.42
   -4   16    9      3.43      0.26
   -2   16    9     18.88      0.00
    0   16    9    -17.10     -0.22
    2   16    9     12.09     -0.59
    4   16    9     15.50     -0.22
    6   16    9     -4.35      0.51
    8   16    9     -2.81     -0.41
   10   16    9      8.11      0.17
   12   16    9      5.37     -0.06
   14   16    9     -0.60      0.50
   16   16    9     -4.13      0.12
   18   16    9     -3.21      0.56
   20   16    9     10.21      0.10
   22   16    9      5.92     -0.03
  -25   17    9     -8.16      0.08
  -23   17    9     -6.26     -0.07
  -21   17    9      1.91     -0.09
  -19   17    9      2.36     -0.22
  -17   17    9     -8.97     -0.08
  -15   17    9     -9.28      0.04
  -13   17    9     -2.88      0.18
  -11   17    9    -17.88      0.36
   -9   17    9     19.31      0.47
   -7   17    9      0.31      0.34
   -5   17    9     13.53      0.59
   -3   17    9    -12.03     -0.24
   -1   17    9     -4.63      0.06
    1   17    9    -28.46      0.16
    3   17    9      9.43     -0.30
    5   17    9      4.97      0.07
    7   17    9    -15.89     -0.09
    9   17    9    -11.21     -0.11
   11   17    9      9.51      0.65
   13   17    9     13.86      0.24
   15   17    9     -4.03      0.04
   17   17    9      3.23      0.34
   19   17    9     -3.25      0.67
   21   17    9      7.73      0.52
  -26   18    9     -0.65     -0.07
  -24   18    9     -4.86     -0.06
  -22   18    9     -0.73      0.13
  -20   18    9     -6.11      0.07
  -18   18    9     -9.76     -0.69
  -16   18    9      1.28     -0.01
  -14   18    9    -16.11     -0.10
  -12   18    9     -7.92     -0.02
  -10   18    9    -10.65      0.15
   -8   18    9    -18.60     -0.12
   -6   18    9    -16.19      0.11
   -4   18    9     -9.00      0.38
   -2   18    9      8.37      0.24
    0   18    9    -20.00      0.59
    2   18    9     -5.54      0.29
    4   18    9    -26.18      1.53
    6   18    9     -9.53      1.05
    8   18    9     -2.84     -1.18
   10   18    9    -14.55      0.48
   12   18    9     -5.45     -0.24
   14   18    9     -3.34      0.24
   16   18    9     -8.39     -0.09
   18   18    9    -12.35      0.07
   20   18    9    -10.97     -0.11
   22   18    9      0.84     -0.05
  -25   19    9      0.97      0.13
  -23   19    9      7.00      0.03
  -21   19    9     16.20      0.05
  -19   19    9     11.70     -0.34
  -17   19    9      7.72     -0.48
  -15   19    9     14.67     -0.07
  -13   19    9     20.10      0.24
  -11   19    9    -13.24      0.59
   -9   19    9     10.57      0.37
   -7   19    9     -9.23      1.08
   -5   19    9     15.59      0.93
   -3   19    9     10.86      0.00
   -1   19    9     10.40      0.15
    1   19    9     -9.55     -0.48
    3   19    9      1.48      0.00
    5   19    9      1.69      0.94
    7   19    9     -2.78      0.47
    9   19    9      6.60      0.63
   11   19    9      5.49      1.00
   13   19    9     -3.37      0.70
   15   19    9    -11.12      0.21
   17   19    9      0.30      0.16
   19   19    9     -0.92      0.00
   21   19    9      4.10      0.07
  -24   20    9     -1.97      0.00
  -22   20    9     -0.45      0.13
  -20   20    9     13.46      0.05
  -18   20    9     -4.58     -0.23
  -16   20    9      6.56      0.14
  -14   20    9      0.36      0.15
  -12   20    9      7.65      0.00
  -10   20    9     17.02      0.26
   -8   20    9     16.32      0.40
   -6   20    9    -17.58      0.70
   -4   20    9    -17.09      0.63
   -2   20    9     17.79     -0.54
    0   20    9     15.62     -0.04
    2   20    9     10.58     -0.24
    4   20    9    -18.48      1.43
    6   20    9      3.06      1.40
    8   20    9      7.85     -0.10
   10   20    9      5.89      0.17
   12   20    9      9.74      0.08
   14   20    9     16.68      0.18
   16   20    9      9.62     -0.07
   18   20    9      5.46      0.03
   20   20    9     -9.30     -0.32
  -25   21    9      4.13     -0.25
  -23   21    9      4.48     -0.05
  -21   21    9     -3.35     -0.07
  -19   21    9    -20.02     -0.50
  -17   21    9      1.18     -0.17
  -15   21    9     -2.70      0.00
  -13   21    9    -11.95     -0.06
  -11   21    9    -21.70      0.15
   -9   21    9     -2.94     -0.26
   -7   21    9    -15.73      0.86
   -5   21    9      3.71     -0.03
   -3   21    9      4.07      0.10
   -1   21    9     -8.79      0.77
    1   21    9      3.90     -0.05
    3   21    9      3.76      1.12
    5   21    9     -0.20      0.13
    7   21    9      7.74     -1.03
    9   21    9      0.22      0.31
   11   21    9     -2.87      0.61
   13   21    9     -0.57     -0.16
   15   21    9     -2.92     -0.27
   17   21    9     -3.99      0.01
   19   21    9    -12.53     -0.36
   21   21    9     -7.00      0.02
  -24   22    9     20.17     -0.10
  -22   22    9      5.66     -0.22
  -20   22    9      9.82      0.05
  -18   22    9     -7.87     -0.22
  -16   22    9     -0.37     -0.21
  -14   22    9     16.62      0.05
  -12   22    9      7.99      0.28
  -10   22    9    -14.58     -0.15
   -8   22    9    -12.13     -0.06
   -6   22    9    -13.91      0.56
   -4   22    9      7.88     -0.14
   -2   22    9     12.38     -0.20
    0   22    9      1.34     -0.12
    2   22    9     -5.98     -1.08
    4   22    9     -8.69     -0.02
    6   22    9      9.96     -0.52
    8   22    9     -0.03      0.98
   10   22    9      2.05      0.22
   12   22    9     -6.68      0.03
   14   22    9      6.84      0.12
   16   22    9      3.56     -0.13
   18   22    9     12.22      0.20
   20   22    9    -10.09      0.37
  -23   23    9      6.55      0.16
  -21   23    9     19.46      0.08
  -19   23    9      4.57     -0.09
  -17   23    9     13.67     -0.06
  -15   23    9      7.25     -0.09
  -13   23    9     -2.39     -0.07
  -11   23    9     -0.27      0.44
   -9   23    9      7.35     -0.30
   -7   23    9      7.16     -0.63
   -5   23    9      8.71     -1.34
   -3   23    9     12.12      0.26
   -1   23    9     -5.77      0.63
    1   23    9      3.94     -0.37
    3   23    9     -2.85     -0.14
    5   23    9      1.47     -1.19
    7   23    9     21.57     -0.14
    9   23    9      4.71     -0.26
   11   23    9     -4.72     -0.25
   13   23    9     11.56     -0.27
   15   23    9     22.43     -0.35
   17   23    9     18.31      0.11
   19   23    9     10.86     -0.30
  -24   24    9      6.63     -0.13
  -22   24    9      4.15     -0.36
  -20   24    9      3.68     -0.23
  -18   24    9      6.34     -0.16
  -16   24    9     -8.62     -0.11
  -14   24    9     -7.15     -0.52
  -12   24    9      2.08     -0.41
  -10   24    9      0.53     -0.77
   -8   24    9      9.76      0.43
   -6   24    9     12.65      1.90
   -4   24    9     12.85      0.05
   -2   24    9     -9.39      0.20
    0   24    9     -2.60     -0.31
    2   24    9     18.36     -0.51
    4   24    9     11.14     -0.82
    6   24    9     -1.71     -3.40
    8   24    9     -9.22      0.05
   10   24    9      9.03     -0.03
   12   24    9      9.36     -0.88
   14   24    9      8.02     -0.61
   16   24    9    -11.10      0.06
   18   24    9      0.66      0.36
   20   24    9      2.16      0.62
  -23   25    9     -4.62     -0.17
  -21   25    9      7.12     -0.25
  -19   25    9      0.59      0.00
  -17   25    9    -10.20     -0.23
  -15   25    9     -6.62     -0.05
  -13   25    9      4.26      0.02
  -11   25    9      4.03      0.38
   -9   25    9    -15.64     -0.62
   -7   25    9    -16.58     -0.31
   -5   25    9    -12.46     -0.71
   -3   25    9      2.53      0.24
   -1   25    9     -3.19      0.70
    1   25    9     -4.52     -0.26
    3   25    9    -10.05     -0.26
    5   25    9    -10.26     -1.40
    7   25    9     -7.43      0.07
    9   25    9     -6.48     -0.53
   11   25    9     -7.74     -0.79
   13   25    9      0.83     -0.04
   15   25    9      4.78      0.10
   17   25    9     -0.27     -0.12
   19   25    9      6.02      0.25
  -22   26    9      4.21      0.00
  -20   26    9     -5.17     -0.24
  -18   26    9      3.09     -0.05
  -16   26    9     -0.80     -0.01
  -14   26    9      6.41     -0.16
  -12   26    9      7.06      0.30
  -10   26    9     -5.31      0.23
   -8   26    9    -11.79     -0.38
   -6   26    9      2.84      0.42
   -4   26    9     13.50     -0.03
   -2   26    9     -9.15     -0.11
    0   26    9    -16.71     -0.20
    2   26    9     -1.66     -0.18
    4   26    9     -6.60     -0.61
    6   26    9      0.86     -1.06
    8   26    9      8.31      0.21
   10   26    9     -5.23     -0.29
   12   26    9      0.62     -0.25
   14   26    9      1.88     -0.41
   16   26    9     -1.69     -0.06
   18   26    9     -4.94     -0.12
  -23   27    9     -6.22      0.07
  -21   27    9      2.74     -0.25
  -19   27    9      6.85     -0.36
  -17   27    9     -2.87     -0.30
  -15   27    9     -6.16      0.09
  -13   27    9      7.56     -0.08
  -11   27    9     21.65      0.14
   -9   27    9     14.53     -0.51
   -7   27    9      3.52      0.99
   -5   27    9     -1.47      0.41
   -3   27    9      5.20     -0.31
   -1   27    9      3.93      0.75
    1   27    9      5.66      0.58
    3   27    9      4.71      1.38
    5   27    9     -2.52     -0.53
    7   27    9     -8.03     -0.99
    9   27    9      8.47     -0.29
   11   27    9     10.03     -0.44
   13   27    9      3.29     -0.30
   15   27    9      2.05      0.26
   17   27    9     -3.49     -0.14
   19   27    9     13.36      0.29
  -22   28    9      7.38      0.13
  -20   28    9     -1.61     -0.23
  -18   28    9     -0.50     -0.06
  -16   28    9    -10.12     -0.20
  -14   28    9     -7.65     -0.14
  -12   28    9     -7.43      0.20
  -10   28    9      6.95     -0.08
   -8   28    9     -0.64     -0.59
   -6   28    9    -17.29      0.84
   -4   28    9    -14.60      0.82
   -2   28    9    -11.55     -0.42
    0   28    9    -10.43      0.28
    2   28    9      1.81      0.49
    4   28    9     -9.32      1.02
    6   28    9    -15.84      1.89
    8   28    9      5.00      0.31
   10   28    9      5.64     -0.22
   12   28    9     16.38     -0.02
   14   28    9     -3.91     -0.02
   16   28    9      4.61     -0.06
   18   28    9    -10.56     -0.24
  -21   29    9     -2.51     -0.23
  -19   29    9    -10.83     -0.41
  -17   29    9    -15.83      0.02
  -15   29    9     -8.89      0.30
  -13   29    9     -6.94      0.09
  -11   29    9     -6.29      0.32
   -9   29    9     -3.58      0.20
   -7   29    9    -12.71      0.68
   -5   29    9     -3.97      0.76
   -3   29    9     -1.14     -0.58
   -1   29    9     -8.43      0.08
    1   29    9      1.06     -0.03
    3   29    9     -9.15      0.58
    5   29    9    -15.65      0.99
    7   29    9     -8.43      0.47
    9   29    9      9.33      0.43
   11   29    9      9.10      0.47
   13   29    9     -8.07      0.06
   15   29    9     -2.23      0.10
   17   29    9     -1.50     -0.30
  -22   30    9      6.72      0.30
  -20   30    9      3.56      0.04
  -18   30    9      1.11     -0.24
  -16   30    9     -1.92     -0.36
  -14   30    9     -4.30     -0.16
  -12   30    9     -4.72      0.45
  -10   30    9     21.93      0.04
   -8   30    9     20.58     -0.07
   -6   30    9     -4.61      0.29
   -4   30    9      8.17     -0.12
   -2   30    9     20.70     -0.42
    0   30    9      2.45      0.49
    2   30    9      0.67      0.51
    4   30    9      2.85      1.25
    6   30    9     -3.43      1.26
    8   30    9      7.32     -0.37
   10   30    9      7.91      0.08
   12   30    9     21.77      0.00
   14   30    9     10.36      0.14
   16   30    9     27.02     -0.17
  -21   31    9     -1.17     -0.16
  -19   31    9     -2.81     -0.16
  -17   31    9     -7.16     -0.11
  -15   31    9     -1.08     -0.34
  -13   31    9    -10.21     -0.01
  -11   31    9     -7.37      0.11
   -9   31    9     14.87      0.43
   -7   31    9      3.92     -0.21
   -5   31    9     -7.91      0.48
   -3   31    9     -6.25     -0.22
   -1   31    9    -15.39      0.27
    1   31    9      5.58      0.32
    3   31    9      8.07     -0.33
    5   31    9     -1.41      0.61
    7   31    9     -6.24      0.39
    9   31    9      9.24      0.29
   11   31    9     16.68      0.36
   13   31    9      3.89     -0.25
   15   31    9     14.38     -0.08
   17   31    9     14.81     -0.12
  -20   32    9      3.87      0.13
  -18   32    9    -10.92      0.15
  -16   32    9    -12.63      0.22
  -14   32    9    -11.16     -0.04
  -12   32    9    -12.18      0.13
  -10   32    9      6.55      0.03
   -8   32    9      9.30      0.72
   -6   32    9     -2.28      0.30
   -4   32    9     -8.15     -0.13
   -2   32    9     -8.50      0.22
    0   32    9     -6.38      0.12
    2   32    9     -0.16     -0.41
    4   32    9      4.16      0.18
    6   32    9     -2.25      0.61
    8   32    9      0.57      0.30
   10   32    9      0.84     -0.10
   12   32    9      4.93     -0.29
   14   32    9     -3.72      0.16
   16   32    9      5.00      0.00
  -19   33    9      0.98      0.05
  -17   33    9     -5.27     -0.03
  -15   33    9      7.43     -0.05
  -13   33    9     -0.05      0.32
  -11   33    9      3.78      0.03
   -9   33    9     14.52      0.58
   -7   33    9     15.04     -0.42
   -5   33    9      4.13     -0.43
   -3   33    9     17.68      0.04
   -1   33    9      3.00      0.41
    1   33    9      8.10      0.34
    3   33    9     12.99     -0.49
    5   33    9     -0.31      0.32
    7   33    9    -12.86     -0.38
    9   33    9     -2.99     -0.15
   11   33    9      8.19      0.02
   13   33    9     10.48     -0.10
   15   33    9     15.03      0.09
  -18   34    9     -0.64      0.17
  -16   34    9     -0.70      0.37
  -14   34    9     10.47      0.32
  -12   34    9      9.22      0.07
  -10   34    9     12.83     -0.12
   -8   34    9      2.10      0.13
   -6   34    9      8.75     -0.33
   -4   34    9     10.28     -0.17
   -2   34    9      6.18      0.18
    0   34    9      5.41     -0.04
    2   34    9      8.54     -0.12
    4   34    9     13.49     -0.20
    6   34    9      6.98     -0.37
    8   34    9      2.88      0.32
   10   34    9     -7.44     -0.30
   12   34    9      1.29      0.01
   14   34    9      7.48      0.08
  -19   35    9      6.44      0.23
  -17   35    9     -3.20      0.34
  -15   35    9      5.15      0.41
  -13   35    9     -5.65      0.70
  -11   35    9      3.13      0.23
   -9   35    9      4.04      0.39
   -7   35    9     13.58      0.05
   -5   35    9     -1.63     -0.86
   -3   35    9     -6.75      0.14
   -1   35    9      1.21      0.31
    1   35    9      4.33      0.28
    3   35    9      4.65     -0.15
    5   35    9      3.59      0.50
    7   35    9      3.85     -0.62
    9   35    9      0.95     -0.01
   11   35    9     -8.49     -0.06
   13   35    9     -6.37      0.07
  -18   36    9    -10.00     -0.17
  -16   36    9    -16.31      0.03
  -14   36    9     -5.08     -0.19
  -12   36    9     -5.93     -0.78
  -10   36    9     -1.35      0.49
   -8   36    9     -9.12      0.86
   -6   36    9      2.93      0.27
   -4   36    9      4.89      0.09
   -2   36    9     -8.12     -0.25
    0   36    9     -3.58      0.05
    2   36    9      5.40     -0.07
    4   36    9      3.15      0.18
    6   36    9     -9.00      0.04
    8   36    9     -8.17      0.48
   10   36    9    -10.90     -0.33
   12   36    9      4.97     -0.16
   14   36    9     10.04     -0.21
  -17   37    9      8.96      0.17
  -15   37    9     10.13      0.12
  -13   37    9     -2.59     -0.01
  -11   37    9     -1.09     -0.01
   -9   37    9     -0.23      0.08
   -7   37    9     -0.54      0.57
   -5   37    9      7.97     -0.61
   -3   37    9      1.36      0.09
   -1   37    9      5.63      0.03
    1   37    9     -1.23      0.03
    3   37    9     -7.15      0.11
    5   37    9     -8.11      0.38
    7   37    9      4.71     -0.46
    9   37    9     -5.71     -0.14
   11   37    9     -7.47      0.01
   13   37    9      6.58      0.26
  -16   38    9      3.20     -0.02
  -14   38    9      1.79      0.54
  -12   38    9     -8.56      0.63
  -10   38    9    -12.35      1.38
   -8   38    9     -3.81      0.70
   -6   38    9     12.96      0.20
   -4   38    9     13.93      0.67
   -2   38    9     -6.56      0.19
    0   38    9      0.51      0.19
    2   38    9     -7.67     -0.55
    4   38    9     -0.83      0.11
    6   38    9      1.74     -0.14
    8   38    9      5.89      0.00
   10   38    9      4.35      0.27
   12   38    9      3.91     -0.11
  -15   39    9    -17.22     -0.10
  -13   39    9    -15.72     -0.60
  -11   39    9    -19.47      0.79
   -9   39    9      3.45      0.43
   -7   39    9    -15.36      0.74
   -5   39    9    -10.63      0.38
   -3   39    9     -9.43      0.11
   -1   39    9     -8.98      0.13
    1   39    9     -5.22      0.03
    3   39    9    -16.76      0.09
    5   39    9    -14.14      0.19
    7   39    9     10.04      0.19
    9   39    9     -3.99     -0.42
   11   39    9      1.37     -0.21
  -14   40    9     -2.05     -0.08
  -12   40    9     -0.25     -0.26
  -10   40    9    -11.75      0.69
   -8   40    9     -8.72      1.33
   -6   40    9    -11.59      0.64
   -4   40    9      9.91      0.00
   -2   40    9     -5.84     -0.05
    0   40    9     -3.50      0.10
    2   40    9    -10.89     -0.32
    4   40    9     -3.83      0.04
    6   40    9     -2.98      0.06
    8   40    9      2.68     -0.06
   10   40    9     -0.52      0.39
  -13   41    9      9.24      0.35
  -11   41    9    -16.35      1.54
   -9   41    9      5.81     -0.72
   -7   41    9      4.41     -0.63
   -5   41    9     -0.19      0.34
   -3   41    9      6.49      0.07
   -1   41    9      2.51     -0.08
    1   41    9     13.70      0.03
    3   41    9     -1.37      0.36
    5   41    9      6.23      0.12
    7   41    9      9.79      0.08
    9   41    9      2.65     -0.27
  -12   42    9      2.76     -0.37
  -10   42    9    -10.21     -0.64
   -8   42    9      2.37     -1.35
   -6   42    9    -18.23      0.22
   -4   42    9      7.47      0.07
   -2   42    9     -2.48      0.10
    0   42    9    -11.16     -0.06
    2   42    9    -12.97     -0.22
    4   42    9     -6.61      0.04
    6   42    9     -0.54      0.43
    8   42    9      9.34     -0.11
  -11   43    9     -3.58     -0.60
   -9   43    9     -0.63     -1.95
   -7   43    9     -2.15     -0.42
   -5   43    9    -17.13     -0.15
   -3   43    9      8.96      0.17
   -1   43    9     -0.37     -0.37
    1   43    9      9.41     -0.06
    3   43    9     -4.27      0.37
    5   43    9      1.74      0.27
    7   43    9     -1.61      0.17
   -8   44    9     20.02     -2.37
   -6   44    9      4.75      0.04
   -4   44    9     16.65     -0.68
   -2   44    9     17.66     -0.84
    0   44    9      5.45     -0.14
    2   44    9      2.89      0.29
    4   44    9      7.95      0.23
   -7   45    9      7.53     -0.12
   -5   45    9     -2.75     -0.16
   -3   45    9     10.66      0.22
   -1   45    9     -7.91     -0.40
    1   45    9      4.41     -0.16
    3   45    9      4.20     -0.11
  -28    0   10    -18.02      0.03
  -26    0   10     -5.52     -1.16
  -24    0   10    -12.26     -2.29
  -22    0   10     -1.40      1.39
  -20    0   10      9.01      0.26
  -18    0   10     11.52     -0.01
  -16    0   10      1.37     -0.62
  -14    0   10    -19.75      0.91
  -12    0   10     37.82      0.34
  -10    0   10     47.41      0.11
   -8    0   10     52.93     -0.49
   -6    0   10     51.55     -0.08
   -4    0   10     22.35      0.06
   -2    0   10     65.33      0.37
    0    0   10    107.36      0.59
    2    0   10    104.48     -0.21
    4    0   10      4.03      0.02
    6    0   10     -8.37     -0.07
    8    0   10     27.33     -0.26
   10    0   10      8.76      0.11
   12    0   10     13.22      0.31
   14    0   10     19.09      0.79
   16    0   10     10.09      0.23
   18    0   10     12.57      0.42
   20    0   10     12.05      0.63
   22    0   10      8.60      0.37
  -27    1   10     -6.20     -1.13
  -25    1   10     22.42     -1.31
  -23    1   10    -11.02      0.39
  -21    1   10     10.87      0.70
  -19    1   10     -3.40      0.12
  -17    1   10    -13.72      1.37
  -15    1   10     -9.74      0.62
  -13    1   10      1.65     -0.09
  -11    1   10    -44.03      0.29
   -9    1   10      7.30      0.01
   -7    1   10     12.33      0.00
   -5    1   10     12.99      0.62
   -3    1   10     -7.25      0.24
   -1    1   10     31.41      0.01
    1    1   10    -37.93      0.27
    3    1   10    -17.17      0.02
    5    1   10     -0.83      0.01
    7    1   10      5.72      0.37
    9    1   10    -20.89     -0.08
   11    1   10     -2.47      0.15
   13    1   10     -2.27      0.24
   15    1   10      3.74     -0.21
   17    1   10     14.49     -0.17
   19    1   10      0.58     -0.17
   21    1   10      2.07      0.15
   23    1   10     -9.01      0.10
  -28    2   10     -6.18     -0.58
  -26    2   10      9.83     -0.24
  -24    2   10      7.57     -0.84
  -22    2   10      8.72     -0.23
  -20    2   10      6.11     -1.81
  -18    2   10    -14.72     -2.60
  -16    2   10     -9.43     -9.50
  -14    2   10     -6.74     -2.30
  -12    2   10      2.05     -1.48
  -10    2   10    -45.04     -1.75
   -8    2   10    -29.22     -0.06
   -6    2   10    -43.03      0.09
   -4    2   10    -24.28      0.21
   -2    2   10     26.11      0.85
    0    2   10    -26.57      0.70
    2    2   10    -68.68     -0.13
    4    2   10    -35.69      0.21
    6    2   10     -3.51      0.37
    8    2   10     -3.57     -0.36
   10    2   10    -30.42      0.09
   12    2   10    -23.47     -0.22
   14    2   10    -10.04      0.27
   16    2   10      5.50     -0.28
   18    2   10     10.04     -0.18
   20    2   10     -3.55      0.01
   22    2   10      0.48      0.12
  -27    3   10    -23.99     -0.01
  -25    3   10      2.43     -2.49
  -23    3   10    -11.39     -1.32
  -21    3   10    -11.76      0.61
  -19    3   10      2.20     -0.85
  -17    3   10     13.24     -1.91
  -15    3   10     -7.37     -1.91
  -13    3   10     15.06     -1.04
  -11    3   10     23.72      0.07
   -9    3   10     16.07     -0.61
   -7    3   10     15.01     -0.18
   -5    3   10     53.64     -0.04
   -3    3   10      6.78     -0.19
   -1    3   10      4.19      0.07
    1    3   10      9.82     -0.37
    3    3   10     27.62      0.02
    5    3   10      3.85     -0.13
    7    3   10     30.29      0.25
    9    3   10      9.90     -0.43
   11    3   10      9.52     -0.41
   13    3   10     10.33      0.25
   15    3   10      7.32     -0.02
   17    3   10     -3.87      0.15
   19    3   10      1.95      0.03
   21    3   10     -0.28      0.22
   23    3   10     -3.61      0.00
  -28    4   10     -3.20     -0.52
  -26    4   10     -1.75      0.50
  -24    4   10     -1.78      0.19
  -22    4   10    -12.29      0.87
  -20    4   10      8.56     -0.21
  -18    4   10     -3.69      1.13
  -16    4   10     -0.30     -2.65
  -14    4   10      1.75      1.01
  -12    4   10      9.26      0.44
  -10    4   10     -0.57      0.43
   -8    4   10     50.75      0.01
   -6    4   10     -6.33     -0.10
   -4    4   10      1.62     -0.08
   -2    4   10     13.06      0.00
    0    4   10      8.69     -0.04
    2    4   10     -3.97     -0.06
    4    4   10     54.64     -0.38
    6    4   10     23.09     -0.25
    8    4   10     -7.04     -0.34
   10    4   10     10.54      0.13
   12    4   10     21.63     -0.49
   14    4   10     -2.56      0.38
   16    4   10    -10.45     -0.34
   18    4   10      1.08     -0.52
   20    4   10      4.21     -0.06
   22    4   10      1.23      0.22
  -27    5   10    -11.40     -0.21
  -25    5   10      1.12     -0.60
  -23    5   10      6.62     -0.97
  -21    5   10     -8.32     -0.65
  -19    5   10    -10.20     -0.16
  -17    5   10     -4.73     -1.91
  -15    5   10    -10.09     -1.62
  -13    5   10     14.13     -0.75
  -11    5   10      9.11     -0.58
   -9    5   10    -31.95     -0.37
   -7    5   10    -46.22      0.70
   -5    5   10    -56.21      0.17
   -3    5   10    -26.28      0.11
   -1    5   10    -13.54      0.33
    1    5   10    -59.45     -0.51
    3    5   10    -29.37     -0.20
    5    5   10    -15.99      0.08
    7    5   10     -3.03      0.10
    9    5   10    -17.68     -0.50
   11    5   10    -19.57     -0.10
   13    5   10    -10.45      0.34
   15    5   10      0.82     -0.41
   17    5   10     -1.38      0.01
   19    5   10      2.25     -0.01
   21    5   10    -16.13     -0.13
   23    5   10      4.58     -0.12
  -28    6   10    -11.33      0.58
  -26    6   10    -10.77     -0.12
  -24    6   10      9.58     -1.07
  -22    6   10    -15.84      0.82
  -20    6   10     -1.19     -0.05
  -18    6   10     14.93     -0.03
  -16    6   10      5.80      0.08
  -14    6   10    -10.44      0.20
  -12    6   10      3.55      0.18
  -10    6   10    -30.05      0.73
   -8    6   10    -26.27     -0.34
   -6    6   10     -4.34      0.09
   -4    6   10     29.03     -0.13
   -2    6   10    -85.21     -0.35
    0    6   10    -91.74     -0.23
    2    6   10    -51.56      0.07
    4    6   10     11.43     -0.11
    6    6   10     12.72      0.04
    8    6   10      4.03      0.27
   10    6   10     -4.54      0.25
   12    6   10     -7.53     -0.19
   14    6   10     -1.19      0.43
   16    6   10     -3.39      0.13
   18    6   10     -4.27     -0.16
   20    6   10      9.46      0.07
   22    6   10     -4.63      0.07
  -27    7   10      2.64     -1.04
  -25    7   10     -3.13     -0.28
  -23    7   10     -1.41     -0.11
  -21    7   10      5.99      0.26
  -19    7   10      6.88      0.99
  -17    7   10      0.92      0.92
  -15    7   10     12.88      1.38
  -13    7   10     18.63      0.99
  -11    7   10      9.33      0.93
   -9    7   10     25.84     -0.15
   -7    7   10     32.85      0.08
   -5    7   10    -23.93     -0.05
   -3    7   10     34.23      0.46
   -1    7   10     70.40      0.43
    1    7   10     11.02      0.07
    3    7   10     19.40      0.21
    5    7   10     27.63     -0.25
    7    7   10     -1.51     -0.42
    9    7   10     18.03     -0.09
   11    7   10     22.11     -0.08
   13    7   10     19.82      0.15
   15    7   10      9.53     -0.27
   17    7   10      4.54     -0.40
   19    7   10     21.47     -0.05
   21    7   10     -6.15      0.08
   23    7   10      1.04      0.09
  -28    8   10     -8.10     -0.03
  -26    8   10    -12.96     -1.07
  -24    8   10     -1.82     -0.75
  -22    8   10     -4.56     -0.44
  -20    8   10     -2.82      0.20
  -18    8   10     12.96      0.59
  -16    8   10     -3.63      2.60
  -14    8   10    -10.04      0.69
  -12    8   10     12.24     -0.43
  -10    8   10      6.35      0.18
   -8    8   10     -3.25      0.22
   -6    8   10     -0.46      0.71
   -4    8   10    -16.90      0.33
   -2    8   10    -36.46     -0.12
    0    8   10      5.91     -0.19
    2    8   10     37.97     -0.35
    4    8   10     15.28     -0.01
    6    8   10    -11.71      0.29
    8    8   10      1.36     -0.37
   10    8   10      3.94     -0.31
   12    8   10      4.68      0.33
   14    8   10      6.29      0.06
   16    8   10      4.71     -0.30
   18    8   10     -2.35     -0.34
   20    8   10      6.58      0.01
   22    8   10     -3.15     -0.27
  -27    9   10     -3.23     -0.25
  -25    9   10      2.78      0.03
  -23    9   10     -7.08      0.21
  -21    9   10      3.83      0.61
  -19    9   10     16.29     -0.13
  -17    9   10      2.58      0.38
  -15    9   10     -5.87      0.53
  -13    9   10    -13.28     -0.06
  -11    9   10    -25.87      0.38
   -9    9   10    -24.73     -0.80
   -7    9   10    -19.71      0.12
   -5    9   10    -49.05      0.20
   -3    9   10    -48.31     -0.40
   -1    9   10    -53.20     -0.64
    1    9   10    -26.12     -0.12
    3    9   10    -29.28     -0.02
    5    9   10    -25.99     -0.05
    7    9   10    -37.06      0.42
    9    9   10      7.43      0.79
   11    9   10    -13.15     -0.16
   13    9   10     -3.41     -0.51
   15    9   10      2.01     -0.06
   17    9   10    -11.15     -0.03
   19    9   10      0.53     -0.04
   21    9   10    -10.26      0.04
   23    9   10    -17.92      0.14
  -26   10   10      4.47     -0.73
  -24   10   10     -5.45      0.07
  -22   10   10      4.09     -0.78
  -20   10   10     -5.26     -0.06
  -18   10   10     -0.90     -0.50
  -16   10   10      1.41      0.90
  -14   10   10     19.61     -0.01
  -12   10   10     -5.26     -0.09
  -10   10   10      7.07      0.33
   -8   10   10     26.50      0.30
   -6   10   10     27.92     -0.35
   -4   10   10    -10.71     -0.28
   -2   10   10     53.79      0.62
    0   10   10     28.58      0.11
    2   10   10     26.90      0.19
    4   10   10     27.50     -0.08
    6   10   10     12.11      0.34
    8   10   10     14.96      0.05
   10   10   10      7.72     -0.38
   12   10   10      6.18     -0.24
   14   10   10     -3.61      0.01
   16   10   10     -2.30     -0.28
   18   10   10      0.33     -0.43
   20   10   10     12.10      0.09
   22   10   10     -7.33     -0.06
  -27   11   10     -1.59     -0.29
  -25   11   10     10.66     -0.33
  -23   11   10     -6.44     -0.30
  -21   11   10     -5.74      0.20
  -19   11   10      0.40      0.06
  -17   11   10     -0.13      0.48
  -15   11   10      2.49      0.21
  -13   11   10      8.18     -0.46
  -11   11   10      2.73      0.29
   -9   11   10     -9.04     -0.39
   -7   11   10     12.64     -0.22
   -5   11   10     32.11      0.35
   -3   11   10     30.50     -0.30
   -1   11   10     14.34     -0.27
    1   11   10     69.99     -0.20
    3   11   10     24.80     -0.93
    5   11   10     12.76      0.33
    7   11   10     10.96      0.14
    9   11   10     37.90     -0.26
   11   11   10      9.30     -0.24
   13   11   10     14.59      0.02
   15   11   10      8.11      0.15
   17   11   10      6.51     -0.15
   19   11   10      5.22     -0.08
   21   11   10     10.92     -0.08
  -26   12   10      1.34      0.21
  -24   12   10     -4.10      0.56
  -22   12   10      6.41     -0.12
  -20   12   10      7.01      0.18
  -18   12   10      4.58     -0.32
  -16   12   10    -16.94      0.30
  -14   12   10      0.82     -0.10
  -12   12   10    -10.72     -0.10
  -10   12   10      6.14     -0.51
   -8   12   10     -3.23     -0.11
   -6   12   10    -28.27      0.01
   -4   12   10    -71.81     -0.70
   -2   12   10      3.54     -0.25
    0   12   10    -15.19     -0.62
    2   12   10     -1.76      0.65
    4   12   10    -24.98     -0.34
    6   12   10    -42.75      0.07
    8   12   10    -13.60      0.35
   10   12   10     -6.79     -0.32
   12   12   10     -2.58     -0.74
   14   12   10     -6.46      0.20
   16   12   10      2.19      0.49
   18   12   10     -5.62      0.08
   20   12   10     14.73     -0.22
   22   12   10     -4.48      0.13
  -27   13   10      3.81      0.51
  -25   13   10     10.27      0.09
  -23   13   10     -4.37     -0.11
  -21   13   10    -11.30     -0.59
  -19   13   10     -9.00     -0.25
  -17   13   10     -4.27     -0.12
  -15   13   10      6.11     -0.26
  -13   13   10     -4.34     -0.41
  -11   13   10    -14.56     -0.19
   -9   13   10      2.96      0.15
   -7   13   10     25.45     -0.26
   -5   13   10      7.07     -0.22
   -3   13   10      5.61     -0.21
   -1   13   10     -5.36      0.06
    1   13   10      2.62      0.63
    3   13   10      1.12     -0.36
    5   13   10     17.36      0.42
    7   13   10    -15.54      0.35
    9   13   10    -21.00      0.42
   11   13   10    -14.09     -0.03
   13   13   10     -3.76      0.31
   15   13   10    -13.32      0.16
   17   13   10      0.76     -0.42
   19   13   10      0.32      0.05
   21   13   10      5.49     -0.02
  -26   14   10      9.50      0.37
  -24   14   10     12.56      0.30
  -22   14   10     -1.42      0.41
  -20   14   10    -13.65      0.33
  -18   14   10     -6.89     -0.57
  -16   14   10    -12.63     -0.75
  -14   14   10      4.96     -0.73
  -12   14   10     15.70      0.00
  -10   14   10      0.57     -0.29
   -8   14   10    -23.66     -1.37
   -6   14   10      7.11     -0.53
   -4   14   10     31.40     -0.44
   -2   14   10     44.28      0.35
    0   14   10     10.47      0.14
    2   14   10     14.59      0.21
    4   14   10     -7.10     -0.35
    6   14   10     19.76     -0.33
    8   14   10     37.15      0.05
   10   14   10     11.93      0.02
   12   14   10     13.01     -0.29
   14   14   10      6.90      0.28
   16   14   10     26.03      0.11
   18   14   10     14.44      0.10
   20   14   10     17.89     -0.02
   22   14   10     16.79      0.30
  -25   15   10      2.51     -0.20
  -23   15   10     -0.52      0.08
  -21   15   10     -0.16     -0.22
  -19   15   10      8.26      0.48
  -17   15   10     -1.42     -0.10
  -15   15   10      5.23     -0.31
  -13   15   10     13.56      0.24
  -11   15   10      5.11     -0.02
   -9   15   10      7.90      0.14
   -7   15   10     11.17     -0.49
   -5   15   10    -13.44     -0.20
   -3   15   10      0.87      0.17
   -1   15   10      3.22     -0.08
    1   15   10    -42.04      0.94
    3   15   10    -10.05     -0.24
    5   15   10      2.73     -0.25
    7   15   10     -7.72     -0.02
    9   15   10    -17.63      0.49
   11   15   10      7.11     -0.13
   13   15   10      8.25      0.05
   15   15   10      8.00      0.28
   17   15   10     15.87      0.08
   19   15   10     12.20      0.32
   21   15   10     14.44      0.09
  -26   16   10      2.94      0.15
  -24   16   10     -0.65     -0.11
  -22   16   10    -15.01      0.14
  -20   16   10     -6.66      0.23
  -18   16   10     10.46      0.13
  -16   16   10     -1.62     -0.11
  -14   16   10    -13.56      0.11
  -12   16   10     -7.53      0.05
  -10   16   10     -1.79      0.24
   -8   16   10      9.04      0.03
   -6   16   10     -8.67      1.32
   -4   16   10    -17.38      0.75
   -2   16   10    -17.50     -0.32
    0   16   10     -9.96     -0.32
    2   16   10    -12.37      0.08
    4   16   10    -22.40      0.31
    6   16   10    -18.58     -0.39
    8   16   10    -33.91      0.55
   10   16   10    -21.18      0.33
   12   16   10     -1.90     -0.22
   14   16   10    -12.23     -0.12
   16   16   10     -6.37     -0.66
   18   16   10     -4.58     -0.13
   20   16   10     -5.49     -0.04
   22   16   10      8.03      0.29
  -25   17   10     -0.73     -0.24
  -23   17   10     -4.74      0.03
  -21   17   10    -12.07      0.14
  -19   17   10     -9.36      0.76
  -17   17   10    -14.41      0.11
  -15   17   10    -19.56     -0.03
  -13   17   10     -3.98      0.21
  -11   17   10      6.02      0.07
   -9   17   10     -9.72      0.13
   -7   17   10    -24.68     -0.22
   -5   17   10    -19.77      0.72
   -3   17   10     -3.27      0.56
   -1   17   10     21.77     -0.16
    1   17   10     -7.48      0.13
    3   17   10     16.15     -0.33
    5   17   10     -6.35      0.38
    7   17   10     26.24     -0.24
    9   17   10     -1.68      0.00
   11   17   10     18.00      0.17
   13   17   10      5.07     -0.28
   15   17   10      5.46      0.11
   17   17   10     15.39     -0.34
   19   17   10      0.63     -0.32
   21   17   10     -3.63      0.09
  -26   18   10      6.94     -0.02
  -24   18   10      2.73     -0.14
  -22   18   10    -10.03     -0.02
  -20   18   10     -3.45      0.36
  -18   18   10     -0.36      0.31
  -16   18   10     -2.80     -0.16
  -14   18   10     11.96      0.64
  -12   18   10     12.18      0.44
  -10   18   10     -2.43      0.47
   -8   18   10     27.63     -0.32
   -6   18   10      6.45      0.81
   -4   18   10     11.42      1.32
   -2   18   10     10.90      0.37
    0   18   10      1.08      0.41
    2   18   10    -13.92     -0.44
    4   18   10     15.26     -0.18
    6   18   10     30.72      0.45
    8   18   10      5.50      1.03
   10   18   10     15.23      0.18
   12   18   10      6.09      0.00
   14   18   10      0.76      0.40
   16   18   10     -5.91     -0.06
   18   18   10     -5.46      0.48
   20   18   10    -13.36      0.16
  -25   19   10     -4.43     -0.13
  -23   19   10     -8.94      0.10
  -21   19   10     -6.93      0.16
  -19   19   10      1.38      0.57
  -17   19   10      6.45      0.26
  -15   19   10     -0.28      0.38
  -13   19   10    -12.39      0.25
  -11   19   10    -12.62      0.16
   -9   19   10      1.62      0.70
   -7   19   10     -9.20      0.45
   -5   19   10    -16.25      1.14
   -3   19   10    -13.69      0.72
   -1   19   10     18.49     -0.43
    1   19   10    -12.32     -0.14
    3   19   10     -9.31      0.10
    5   19   10    -35.37      0.94
    7   19   10      0.57      0.74
    9   19   10    -23.44     -0.18
   11   19   10     -8.14      0.50
   13   19   10    -18.89     -0.32
   15   19   10    -17.00     -0.16
   17   19   10     -1.12     -0.10
   19   19   10     -2.05     -0.35
   21   19   10     -1.85      0.01
  -24   20   10     -2.32      0.06
  -22   20   10      0.37      0.09
  -20   20   10      4.39      0.33
  -18   20   10     -1.29      0.34
  -16   20   10     -8.90      0.32
  -14   20   10    -21.55      0.47
  -12   20   10    -12.78     -0.59
  -10   20   10    -17.33     -0.28
   -8   20   10      3.23      0.35
   -6   20   10    -33.35      1.70
   -4   20   10    -30.29      1.15
   -2   20   10    -13.09     -0.43
    0   20   10     12.81     -0.11
    2   20   10     21.61     -0.48
    4   20   10      8.13      0.68
    6   20   10      4.21      0.98
    8   20   10     -7.07     -0.38
   10   20   10      8.76      0.00
   12   20   10     -1.36     -0.28
   14   20   10     -2.75      0.38
   16   20   10     -6.00      0.12
   18   20   10     -0.84     -0.09
   20   20   10    -10.32     -0.06
  -25   21   10     -4.93     -0.09
  -23   21   10     -7.15     -0.13
  -21   21   10      1.99     -0.32
  -19   21   10      0.95     -0.27
  -17   21   10    -12.50     -0.56
  -15   21   10      6.18     -0.03
  -13   21   10     13.71      0.14
  -11   21   10     -3.50      0.18
   -9   21   10     12.03      0.10
   -7   21   10      7.70     -0.49
   -5   21   10      2.41     -0.41
   -3   21   10      4.49      0.75
   -1   21   10     30.30      0.50
    1   21   10      0.84      0.09
    3   21   10      6.30     -0.62
    5   21   10     11.11      0.14
    7   21   10     20.52      1.76
    9   21   10     15.45     -0.70
   11   21   10      6.67     -0.14
   13   21   10     -5.02      0.09
   15   21   10     -4.05     -0.12
   17   21   10      3.69      0.10
   19   21   10      2.76      0.02
  -24   22   10     -4.59      0.02
  -22   22   10     -3.11     -0.01
  -20   22   10      0.96     -0.23
  -18   22   10      1.19     -0.08
  -16   22   10     25.29      0.17
  -14   22   10     -6.69      0.18
  -12   22   10    -10.64     -0.73
  -10   22   10    -15.85      0.03
   -8   22   10     10.83      0.23
   -6   22   10     -1.79     -0.97
   -4   22   10     -2.05     -0.32
   -2   22   10      5.71     -0.65
    0   22   10     -8.72      0.17
    2   22   10      4.43      0.02
    4   22   10      4.52      0.19
    6   22   10     14.96      1.12
    8   22   10      3.51     -0.49
   10   22   10    -10.78      0.50
   12   22   10    -13.10     -0.07
   14   22   10      7.18     -0.24
   16   22   10      8.08      0.00
   18   22   10     -0.15     -0.02
   20   22   10     -0.62     -0.06
  -23   23   10     -5.54      0.06
  -21   23   10      2.00     -0.09
  -19   23   10      7.91     -0.04
  -17   23   10      2.69     -0.02
  -15   23   10      6.53      0.05
  -13   23   10      4.07     -0.17
  -11   23   10    -16.00     -0.18
   -9   23   10    -14.62     -0.53
   -7   23   10     -8.01     -0.07
   -5   23   10     -5.30     -1.71
   -3   23   10    -16.76     -0.52
   -1   23   10     -7.57      0.70
    1   23   10     -6.19      0.54
    3   23   10      9.99      0.36
    5   23   10     12.71     -0.98
    7   23   10    -18.89     -0.09
    9   23   10     -1.57     -0.51
   11   23   10     -5.48      0.32
   13   23   10      1.77      0.32
   15   23   10      9.37      0.22
   17   23   10      7.71      0.00
   19   23   10     12.30     -0.19
  -24   24   10      0.54     -0.12
  -22   24   10     -4.74     -0.20
  -20   24   10     15.05     -0.13
  -18   24   10     -3.14     -0.03
  -16   24   10     11.50     -0.25
  -14   24   10     -1.32     -0.23
  -12   24   10     11.45     -0.95
  -10   24   10      6.66     -0.16
   -8   24   10     11.58      0.02
   -6   24   10      5.07     -2.18
   -4   24   10    -12.79     -0.17
   -2   24   10     10.05     -0.49
    0   24   10     -9.09      0.14
    2   24   10     -3.85     -0.48
    4   24   10      1.41     -0.95
    6   24   10      0.26      1.60
    8   24   10      7.98      0.22
   10   24   10      2.84     -0.60
   12   24   10      2.32     -0.44
   14   24   10     16.74     -0.38
   16   24   10     13.82     -0.33
   18   24   10      7.65     -0.23
  -23   25   10    -14.56      0.20
  -21   25   10     -8.26      0.04
  -19   25   10     -4.36     -0.04
  -17   25   10      8.52      0.34
  -15   25   10      4.97      0.25
  -13   25   10     -2.95     -0.22
  -11   25   10      1.23     -0.06
   -9   25   10     -2.11      0.04
   -7   25   10     10.70     -0.31
   -5   25   10     15.76     -1.69
   -3   25   10      2.03     -0.39
   -1   25   10    -11.56      0.28
    1   25   10      3.17      0.16
    3   25   10     22.28      0.25
    5   25   10     20.65     -0.90
    7   25   10     -8.63     -0.32
    9   25   10      6.96     -0.05
   11   25   10     -2.75      0.73
   13   25   10     12.55      0.22
   15   25   10     20.52      0.20
   17   25   10     -1.33      0.40
   19   25   10     -3.80     -0.16
  -22   26   10    -15.02     -0.12
  -20   26   10     -3.13      0.25
  -18   26   10     -4.27      0.33
  -16   26   10      8.68      0.14
  -14   26   10     11.84      0.18
  -12   26   10     16.51     -0.01
  -10   26   10     -2.22     -0.27
   -8   26   10    -17.14     -0.09
   -6   26   10     -0.53     -1.18
   -4   26   10    -10.61     -0.23
   -2   26   10     13.30     -0.57
    0   26   10    -11.54      0.34
    2   26   10    -10.16      0.20
    4   26   10     10.97      0.02
    6   26   10     -9.31      0.47
    8   26   10     -7.96      0.24
   10   26   10     -1.40      0.25
   12   26   10      4.33      0.60
   14   26   10      9.56      0.44
   16   26   10      1.23      0.16
   18   26   10      0.86     -0.19
  -23   27   10      6.62      0.15
  -21   27   10      7.48      0.01
  -19   27   10      3.71      0.02
  -17   27   10     10.40      0.18
  -15   27   10      8.29      0.08
  -13   27   10     -2.54     -0.30
  -11   27   10      4.77     -0.19
   -9   27   10     -7.22      0.17
   -7   27   10     -3.76     -1.25
   -5   27   10    -12.00     -0.36
   -3   27   10    -12.98      0.45
   -1   27   10    -21.95      0.06
    1   27   10     -7.92      0.30
    3   27   10     -8.95     -0.42
    5   27   10    -13.76      0.40
    7   27   10    -16.71      0.83
    9   27   10     -1.14     -0.33
   11   27   10    -11.06      0.01
   13   27   10     -1.07      0.03
   15   27   10     11.30     -0.11
   17   27   10      7.09     -0.01
  -22   28   10     -3.34      0.17
  -20   28   10     -3.10      0.18
  -18   28   10      2.44     -0.09
  -16   28   10     -7.14      0.15
  -14   28   10     -5.66      0.05
  -12   28   10     -5.11     -0.12
  -10   28   10     -2.88     -0.31
   -8   28   10     -8.77      0.26
   -6   28   10      4.06      1.20
   -4   28   10    -11.52      1.19
   -2   28   10     -5.26      0.01
    0   28   10     -3.68     -0.02
    2   28   10      7.96     -0.01
    4   28   10      9.83      0.75
    6   28   10     -6.05      0.70
    8   28   10     -0.21      0.65
   10   28   10     12.90      0.01
   12   28   10     12.19      0.10
   14   28   10    -10.86     -0.29
   16   28   10    -13.83      0.21
   18   28   10     -3.03      0.06
  -21   29   10     -6.96      0.15
  -19   29   10     -4.63      0.15
  -17   29   10      9.19      0.20
  -15   29   10      9.90      0.21
  -13   29   10     -1.40     -0.02
  -11   29   10     -0.28      0.00
   -9   29   10     -4.13      0.40
   -7   29   10      0.52     -0.11
   -5   29   10    -15.96      1.07
   -3   29   10     10.37      0.18
   -1   29   10      5.11     -0.66
    1   29   10      5.21     -0.02
    3   29   10      4.81     -0.21
    5   29   10      6.41      1.37
    7   29   10     -3.45      0.56
    9   29   10      0.61      0.44
   11   29   10      0.76      0.55
   13   29   10     -4.27      0.44
   15   29   10    -11.50      0.26
   17   29   10     -1.12     -0.02
  -20   30   10    -11.25      0.01
  -18   30   10      5.56      0.13
  -16   30   10     -8.25      0.38
  -14   30   10      3.04      0.25
  -12   30   10    -13.07      0.28
  -10   30   10    -20.37      0.18
   -8   30   10    -13.72     -0.42
   -6   30   10      0.42      0.91
   -4   30   10      0.58      1.01
   -2   30   10    -13.13     -0.03
    0   30   10    -11.42     -0.13
    2   30   10     -5.42     -0.20
    4   30   10     -9.22     -0.34
    6   30   10     -0.81     -0.09
    8   30   10    -11.42      0.37
   10   30   10    -13.48     -0.38
   12   30   10     -7.09      0.30
   14   30   10    -19.34     -0.37
   16   30   10     -1.73     -0.20
  -21   31   10     -2.12      0.46
  -19   31   10     -1.52      0.12
  -17   31   10      1.42     -0.05
  -15   31   10     -6.47      0.05
  -13   31   10    -11.41     -0.10
  -11   31   10    -16.49     -0.02
   -9   31   10    -14.53      0.10
   -7   31   10     -0.35      0.23
   -5   31   10    -16.43      0.49
   -3   31   10     10.53      0.21
   -1   31   10      8.81      0.18
    1   31   10      2.16      0.34
    3   31   10     -6.78     -0.16
    5   31   10      6.98      0.94
    7   31   10      7.25     -0.19
    9   31   10     -2.93      0.37
   11   31   10     -5.46     -0.34
   13   31   10    -13.44     -0.44
   15   31   10    -15.94     -0.12
  -20   32   10    -18.43      0.04
  -18   32   10      7.81      0.15
  -16   32   10    -10.89      0.20
  -14   32   10     -1.50     -0.23
  -12   32   10     -4.50     -0.45
  -10   32   10     -3.25     -0.20
   -8   32   10     16.91     -0.30
   -6   32   10      6.14      0.94
   -4   32   10     11.61      0.21
   -2   32   10      3.53     -0.76
    0   32   10     -3.77     -0.67
    2   32   10     12.54      0.11
    4   32   10     19.36     -0.26
    6   32   10     18.63     -0.26
    8   32   10     -3.62      0.63
   10   32   10     -7.19      0.04
   12   32   10      3.97      0.32
   14   32   10     -5.21      0.09
   16   32   10     -3.77      0.32
  -19   33   10     -0.87     -0.10
  -17   33   10      0.52      0.07
  -15   33   10      0.80      0.24
  -13   33   10     10.23      0.38
  -11   33   10     -9.65      0.09
   -9   33   10    -16.50     -0.49
   -7   33   10      5.26     -0.36
   -5   33   10      7.80     -0.07
   -3   33   10     14.88      0.27
   -1   33   10      6.72      0.08
    1   33   10     -5.43      0.20
    3   33   10    -15.48     -0.33
    5   33   10     -1.48     -0.36
    7   33   10     -0.01     -0.90
    9   33   10     -9.11     -0.12
   11   33   10     -7.03     -0.26
   13   33   10     -4.55      0.13
   15   33   10     -7.08      0.13
  -18   34   10     17.27     -0.22
  -16   34   10      6.36     -0.14
  -14   34   10     11.27     -0.04
  -12   34   10     13.34     -0.10
  -10   34   10     -6.04     -0.18
   -8   34   10      2.91     -0.42
   -6   34   10     -2.09      0.39
   -4   34   10     11.65      0.08
   -2   34   10     14.92      0.09
    0   34   10    -10.78     -0.20
    2   34   10    -17.90      0.29
    4   34   10     -6.25     -0.03
    6   34   10      0.54     -0.42
    8   34   10     -5.03     -0.15
   10   34   10    -16.31     -0.17
   12   34   10    -10.54     -0.15
   14   34   10      5.20      0.07
  -17   35   10      2.51     -0.25
  -15   35   10     -1.86      0.03
  -13   35   10     12.66      0.11
  -11   35   10      6.01     -0.39
   -9   35   10     11.21     -0.58
   -7   35   10      3.66     -0.90
   -5   35   10     -3.08     -0.23
   -3   35   10      7.46     -0.29
   -1   35   10      5.66     -0.45
    1   35   10      3.02      0.39
    3   35   10      4.50      0.28
    5   35   10      4.25     -0.29
    7   35   10     -0.44     -0.30
    9   35   10     -2.42     -0.37
   11   35   10     -5.81     -0.25
   13   35   10      8.16      0.10
  -18   36   10      1.73     -0.09
  -16   36   10     14.09     -0.16
  -14   36   10     17.77      0.10
  -12   36   10     19.62     -0.09
  -10   36   10     -1.02     -0.22
   -8   36   10     -8.72     -0.09
   -6   36   10     -6.20      0.55
   -4   36   10     -5.00      0.16
   -2   36   10     -2.22      0.04
    0   36   10    -10.54     -0.38
    2   36   10    -14.15     -0.01
    4   36   10     -2.35     -0.04
    6   36   10     -8.87     -0.18
    8   36   10      5.14     -0.30
   10   36   10      3.96      0.00
   12   36   10      1.60     -0.35
  -17   37   10      5.30     -0.15
  -15   37   10     16.09     -0.10
  -13   37   10     14.20      0.01
  -11   37   10     -8.60     -0.02
   -9   37   10      0.15      0.73
   -7   37   10      2.34      0.11
   -5   37   10     -2.43      0.79
   -3   37   10     -5.75      0.36
   -1   37   10    -18.98      0.08
    1   37   10    -14.59      0.64
    3   37   10     -8.09      0.28
    5   37   10     -1.74     -0.13
    7   37   10    -16.54     -0.15
    9   37   10     -7.74     -0.37
   11   37   10    -13.61      0.09
  -16   38   10      5.04     -0.13
  -14   38   10      1.00      0.49
  -12   38   10      3.15      0.08
  -10   38   10      7.20      0.33
   -8   38   10     -7.70     -0.24
   -6   38   10    -11.10     -0.05
   -4   38   10      1.60      0.22
   -2   38   10      8.36      0.45
    0   38   10      4.34      0.44
    2   38   10      1.59      0.00
    4   38   10      1.10     -0.21
    6   38   10    -12.91      0.21
    8   38   10      5.59     -0.10
   10   38   10     -3.73     -0.21
   12   38   10      6.29     -0.13
  -15   39   10     12.87     -0.17
  -13   39   10      3.42      0.27
  -11   39   10     -0.83     -0.11
   -9   39   10      0.48      0.90
   -7   39   10     -9.18      1.02
   -5   39   10    -20.09      0.26
   -3   39   10    -12.70      0.15
   -1   39   10     -4.39     -0.16
    1   39   10     11.79      0.38
    3   39   10      2.56      0.19
    5   39   10      9.00     -0.01
    7   39   10     -7.78     -0.02
    9   39   10     13.84      0.17
   11   39   10      8.20      0.26
  -14   40   10      2.53     -0.19
  -12   40   10     -5.95     -0.31
  -10   40   10     -3.60      1.25
   -8   40   10     -0.46      0.64
   -6   40   10      5.92      0.22
   -4   40   10      0.94      0.10
   -2   40   10     -7.68     -0.12
    0   40   10     -3.43      0.87
    2   40   10      4.51      0.31
    4   40   10     10.39     -0.01
    6   40   10     -8.37      0.35
    8   40   10     -3.50      0.48
   10   40   10     -8.01      0.16
  -13   41   10     -2.12      0.49
  -11   41   10      9.00      0.08
   -9   41   10      5.80      0.71
   -7   41   10     -5.93      1.61
   -5   41   10     -8.43     -0.47
   -3   41   10      6.15      0.23
   -1   41   10      7.23      0.14
    1   41   10     18.44      0.28
    3   41   10      5.63     -0.12
    5   41   10     -1.69     -0.35
    7   41   10     -6.84     -0.02
  -12   42   10      2.54      0.05
  -10   42   10     -0.73      0.11
   -8   42   10     -5.92      0.36
   -6   42   10      2.33     -0.24
   -4   42   10     -4.95      0.10
   -2   42   10      4.10     -0.15
    0   42   10      8.81      0.20
    2   42   10      4.86     -0.12
    4   42   10     10.65     -0.03
    6   42   10     -4.18      0.02
   -9   43   10      9.78     -0.94
   -7   43   10      7.47     -0.01
   -5   43   10     -2.18     -0.63
   -3   43   10      0.52      0.11
   -1   43   10     10.88     -0.06
    1   43   10      8.01      0.08
    3   43   10      3.13      0.19
    5   43   10    -13.20     -0.03
   -8   44   10     -5.34      2.45
   -6   44   10     10.38      0.68
   -4   44   10      9.26     -0.42
   -2   44   10     13.43     -0.48
    0   44   10     -3.88     -0.18
    2   44   10     -1.11     -0.01
    4   44   10      7.35     -0.36
   -5   45   10     -3.21     -0.63
   -3   45   10     -7.62     -0.04
   -1   45   10      4.78     -0.02
    1   45   10    -12.84     -0.01
  -28    0   11      3.14     -0.93
  -26    0   11    -14.59      1.37
  -24    0   11    -14.21      2.33
  -22    0   11    -12.61      0.39
  -20    0   11     -2.21      0.61
  -18    0   11    -26.35      0.42
  -16    0   11    -19.34      0.76
  -14    0   11    -12.37      0.36
  -12    0   11    -15.55      0.29
  -10    0   11    -21.48     -0.02
   -8    0   11     57.94     -0.60
   -6    0   11     -2.62     -0.21
   -4    0   11    -28.11     -0.14
   -2    0   11    -50.24     -0.25
    0    0   11     69.89      0.04
    2    0   11     19.59      0.19
    4    0   11     61.37      0.34
    6    0   11    -27.72     -0.52
    8    0   11    -15.42     -0.07
   10    0   11      4.68     -0.23
   12    0   11     12.59     -0.26
   14    0   11    -15.70      0.31
   16    0   11    -18.50      0.25
   18    0   11     -7.27      0.16
   20    0   11     -1.22     -0.12
   22    0   11      0.25      0.19
  -27    1   11     10.76     -0.21
  -25    1   11      1.72      0.76
  -23    1   11     19.03     -1.52
  -21    1   11     -2.80      0.23
  -19    1   11      5.90      1.19
  -17    1   11     12.21     -0.56
  -15    1   11      6.19     -1.85
  -13    1   11    -13.18      0.17
  -11    1   11      6.24     -1.33
   -9    1   11      6.63     -1.55
   -7    1   11     16.03      0.37
   -5    1   11     37.99      0.50
   -3    1   11    -34.14      0.21
   -1    1   11     38.50      0.17
    1    1   11      0.63     -0.37
    3    1   11     27.19      0.37
    5    1   11    -42.42      0.27
    7    1   11     14.20      0.83
    9    1   11      9.23      0.09
   11    1   11      8.13      0.13
   13    1   11     -7.15     -0.23
   15    1   11     -3.99      0.22
   17    1   11     -6.09      0.36
   19    1   11      3.91      0.16
   21    1   11     13.56      0.55
   23    1   11     -1.83      0.03
  -28    2   11     14.76      0.09
  -26    2   11      9.87      0.65
  -24    2   11     18.88     -0.81
  -22    2   11      5.50     -1.20
  -20    2   11     -3.45     -0.69
  -18    2   11      1.18     -1.09
  -16    2   11     16.02      0.49
  -14    2   11      1.97     -2.10
  -12    2   11      6.42     -0.86
  -10    2   11    -16.96      0.98
   -8    2   11      3.68     -0.62
   -6    2   11      9.04      0.18
   -4    2   11     21.55      0.16
   -2    2   11    -61.06     -0.23
    0    2   11     -4.70      0.08
    2    2   11    -23.83      0.06
    4    2   11     17.09      0.31
    6    2   11     -5.11     -0.27
    8    2   11     18.49      0.42
   10    2   11      7.46      0.09
   12    2   11      5.58     -0.43
   14    2   11      1.94      0.11
   16    2   11     -1.73      0.32
   18    2   11      6.97      0.06
   20    2   11     15.36      0.23
   22    2   11     11.30      0.26
  -27    3   11     -4.78     -0.68
  -25    3   11    -18.51      2.46
  -23    3   11     -4.66      0.24
  -21    3   11      0.71     -0.46
  -19    3   11    -11.05      0.81
  -17    3   11    -19.38     -0.06
  -15    3   11     -2.27     -1.56
  -13    3   11     -6.01     -0.12
  -11    3   11    -25.99     -1.12
   -9    3   11    -12.17     -0.98
   -7    3   11    -11.90      0.29
   -5    3   11    -25.91      0.22
   -3    3   11     -7.91      0.27
   -1    3   11     67.86      0.14
    1    3   11     -8.23     -0.22
    3    3   11     -4.44      0.41
    5    3   11      0.71      0.18
    7    3   11     -1.80      0.83
    9    3   11     -9.86     -0.01
   11    3   11      7.38      0.13
   13    3   11      1.54     -0.44
   15    3   11     -4.22     -0.11
   17    3   11     -6.29      0.28
   19    3   11     -9.18     -0.09
   21    3   11     -4.72      0.30
   23    3   11      2.08      0.07
  -28    4   11     -0.77      0.63
  -26    4   11    -21.59      1.54
  -24    4   11     -9.31      0.30
  -22    4   11      2.35     -0.09
  -20    4   11     -8.61      0.76
  -18    4   11     14.38      0.39
  -16    4   11      8.42      0.14
  -14    4   11    -30.85     -0.78
  -12    4   11      6.42     -0.94
  -10    4   11     14.04      0.12
   -8    4   11    -11.07     -0.07
   -6    4   11     -0.36      0.41
   -4    4   11      2.81     -0.16
   -2    4   11    -14.34      0.11
    0    4   11      7.71      0.37
    2    4   11      5.48      0.12
    4    4   11    -22.59      0.25
    6    4   11    -15.47     -0.05
    8    4   11     -2.98      0.03
   10    4   11     -8.56     -0.11
   12    4   11     -9.23      0.02
   14    4   11     -2.77      0.03
   16    4   11    -13.88      0.48
   18    4   11    -13.51      0.06
   20    4   11     -6.88      0.04
   22    4   11      1.73      0.01
  -27    5   11      8.35      0.14
  -25    5   11      3.07      0.22
  -23    5   11     -0.97     -1.42
  -21    5   11      1.92     -0.98
  -19    5   11     -2.69     -1.46
  -17    5   11      7.82      0.74
  -15    5   11      9.21      0.34
  -13    5   11      5.38     -1.29
  -11    5   11     -1.53     -0.59
   -9    5   11     -9.07     -0.32
   -7    5   11    -24.36     -0.08
   -5    5   11    -23.56      0.43
   -3    5   11    -29.18      0.14
   -1    5   11    -44.56     -0.19
    1    5   11    -27.10     -0.12
    3    5   11    -33.92      0.33
    5    5   11     13.78     -0.35
    7    5   11    -11.38      0.30
    9    5   11     -6.73      0.19
   11    5   11     -1.53      0.21
   13    5   11     10.96     -0.19
   15    5   11     13.84     -0.01
   17    5   11      4.19      0.10
   19    5   11      3.18     -0.22
   21    5   11     -0.37      0.09
   23    5   11      9.51     -0.03
  -28    6   11      1.11     -0.65
  -26    6   11    -13.56      0.48
  -24    6   11    -11.75      0.94
  -22    6   11     15.21     -0.23
  -20    6   11     -2.69     -0.41
  -18    6   11     -3.47      0.34
  -16    6   11      5.17     -0.10
  -14    6   11      5.32      0.85
  -12    6   11      5.29     -0.54
  -10    6   11    -11.63      0.53
   -8    6   11    -34.32      0.42
   -6    6   11    -14.94     -0.18
   -4    6   11      3.70     -0.11
   -2    6   11     88.45      0.79
    0    6   11      3.16      0.38
    2    6   11    -40.82      0.18
    4    6   11    -29.44      0.16
    6    6   11     39.35      0.19
    8    6   11      9.25     -0.37
   10    6   11     -3.43     -0.34
   12    6   11    -14.11      0.00
   14    6   11     -4.29     -0.36
   16    6   11      0.60     -0.11
   18    6   11      0.33     -0.28
   20    6   11     -5.42     -0.04
   22    6   11      6.75     -0.24
  -27    7   11    -11.71      0.55
  -25    7   11    -16.12     -0.18
  -23    7   11    -10.12      0.02
  -21    7   11     -6.47      1.17
  -19    7   11     -7.05     -0.08
  -17    7   11     11.71      1.38
  -15    7   11     -8.80      1.78
  -13    7   11      3.00      0.34
  -11    7   11     30.15      1.03
   -9    7   11     -9.26      0.64
   -7    7   11    -11.23     -0.17
   -5    7   11     19.43      0.23
   -3    7   11     15.30      0.01
   -1    7   11    -48.63      0.14
    1    7   11     15.55      0.23
    3    7   11    -39.57      0.10
    5    7   11     -4.69     -0.09
    7    7   11    -18.91     -0.59
    9    7   11     -1.95     -0.58
   11    7   11    -19.51      0.25
   13    7   11     -8.69      0.52
   15    7   11      5.28     -0.02
   17    7   11     -3.27      0.30
   19    7   11    -16.30     -0.01
   21    7   11    -20.70     -0.27
  -26    8   11     -1.70     -0.27
  -24    8   11    -15.92     -0.47
  -22    8   11      0.15     -0.24
  -20    8   11     13.46     -0.68
  -18    8   11     13.25      0.44
  -16    8   11      0.49      0.46
  -14    8   11     -3.02      1.26
  -12    8   11    -10.93     -0.62
  -10    8   11     12.36     -0.55
   -8    8   11      1.20     -0.33
   -6    8   11     -8.00     -0.24
   -4    8   11    -53.47     -0.09
   -2    8   11     -1.76     -0.03
    0    8   11    -26.21     -0.53
    2    8   11      1.20      0.54
    4    8   11    -18.54      0.06
    6    8   11      0.62     -0.63
    8    8   11    -24.96     -0.15
   10    8   11      5.70      0.25
   12    8   11     -5.04      0.05
   14    8   11      4.72      0.24
   16    8   11      9.00      0.33
   18    8   11      0.10     -0.28
   20    8   11      8.66     -0.07
   22    8   11      0.85     -0.04
  -27    9   11      2.65     -0.31
  -25    9   11     -2.43     -0.27
  -23    9   11      3.91      0.40
  -21    9   11      4.80      0.07
  -19    9   11     -9.16      0.03
  -17    9   11      5.11      0.23
  -15    9   11      6.26      0.74
  -13    9   11      5.26      0.37
  -11    9   11     10.42      0.67
   -9    9   11     -3.35      0.98
   -7    9   11     25.31     -0.20
   -5    9   11      8.91     -0.40
   -3    9   11     31.11     -0.06
   -1    9   11      2.19      0.30
    1    9   11     28.28     -0.14
    3    9   11    -12.45     -0.44
    5    9   11     29.87      0.41
    7    9   11      9.35     -0.18
    9    9   11     14.60     -0.11
   11    9   11      3.73      0.15
   13    9   11      0.74      0.48
   15    9   11     -0.69     -0.48
   17    9   11      7.15     -0.20
   19    9   11     -3.22      0.20
   21    9   11    -16.66     -0.10
  -26   10   11     -6.82      0.39
  -24   10   11     -0.58      0.25
  -22   10   11     -4.31      0.80
  -20   10   11     -3.12      0.19
  -18   10   11     -1.19     -0.02
  -16   10   11    -11.07     -0.51
  -14   10   11      5.71      0.27
  -12   10   11     19.13      0.49
  -10   10   11     12.39      0.30
   -8   10   11    -31.42      0.01
   -6   10   11     18.01      0.13
   -4   10   11     23.65      0.41
   -2   10   11     -8.99      0.11
    0   10   11    -18.90     -0.04
    2   10   11     16.35      0.03
    4   10   11    -19.45     -0.13
    6   10   11     -0.82     -0.11
    8   10   11     -0.89      0.58
   10   10   11      7.17      0.32
   12   10   11    -22.18     -0.07
   14   10   11     -7.29     -0.11
   16   10   11     11.50      0.26
   18   10   11    -13.23      0.13
   20   10   11     -6.63      0.03
   22   10   11     -3.51      0.13
  -27   11   11      5.09     -0.03
  -25   11   11     -2.49     -0.48
  -23   11   11     -6.02      0.10
  -21   11   11     -1.81     -0.68
  -19   11   11     -5.53      0.16
  -17   11   11     -5.15     -0.68
  -15   11   11      2.31     -0.72
  -13   11   11     -7.62     -0.16
  -11   11   11    -16.21     -0.57
   -9   11   11     -2.81      0.15
   -7   11   11     25.20     -0.18
   -5   11   11    -23.29     -0.54
   -3   11   11     -5.82     -0.26
   -1   11   11    -10.44     -0.14
    1   11   11    -27.93      0.00
    3   11   11    -20.97      0.18
    5   11   11      8.34     -0.16
    7   11   11    -10.73     -0.05
    9   11   11      0.64      0.67
   11   11   11      4.86     -0.12
   13   11   11     -0.32     -0.18
   15   11   11     -6.24     -0.03
   17   11   11      0.84      0.02
   19   11   11     10.62      0.05
   21   11   11      0.71     -0.14
  -26   12   11     -1.92     -0.07
  -24   12   11     11.31      0.05
  -22   12   11     10.61      0.04
  -20   12   11      0.52     -0.03
  -18   12   11      6.06     -0.30
  -16   12   11     -2.21     -0.14
  -14   12   11     -4.75     -0.27
  -12   12   11     -0.29     -0.02
  -10   12   11     11.14     -0.13
   -8   12   11     -0.01      0.38
   -6   12   11     21.44      0.12
   -4   12   11     -1.37     -0.21
   -2   12   11    -35.71     -0.59
    0   12   11     15.54     -0.38
    2   12   11     38.34     -0.53
    4   12   11     17.11     -0.07
    6   12   11      4.65     -0.02
    8   12   11     -2.13      0.24
   10   12   11     13.01     -0.28
   12   12   11      7.30      0.13
   14   12   11     -5.03      0.05
   16   12   11     -2.33     -0.31
   18   12   11     -5.01     -0.16
   20   12   11     -5.23      0.09
   22   12   11      5.07      0.00
  -27   13   11    -10.95      0.33
  -25   13   11     -0.92      0.19
  -23   13   11      1.99      0.22
  -21   13   11      3.36     -0.61
  -19   13   11     -5.61      0.11
  -17   13   11    -10.57     -0.28
  -15   13   11     -4.30     -0.16
  -13   13   11     17.16      0.22
  -11   13   11     25.13     -0.30
   -9   13   11     -4.98     -0.11
   -7   13   11     -8.86     -0.62
   -5   13   11     -0.45     -0.04
   -3   13   11     11.10     -0.12
   -1   13   11     15.80      0.08
    1   13   11     -6.44     -0.06
    3   13   11      1.03     -0.11
    5   13   11     -7.57     -0.14
    7   13   11      1.00      0.37
    9   13   11      0.64      0.42
   11   13   11    -10.28      0.05
   13   13   11     -9.66     -0.76
   15   13   11     -6.93      0.02
   17   13   11     -3.66     -0.11
   19   13   11     -7.69     -0.30
   21   13   11     -0.84     -0.21
  -26   14   11     -2.01     -0.08
  -24   14   11      8.15      0.28
  -22   14   11      7.45      0.13
  -20   14   11    -17.80      0.26
  -18   14   11     -6.45     -0.18
  -16   14   11     -1.31     -0.01
  -14   14   11     -2.60     -0.51
  -12   14   11    -17.71     -0.19
  -10   14   11    -15.51     -0.19
   -8   14   11     14.23      0.53
   -6   14   11     30.14     -0.61
   -4   14   11     13.37     -0.68
   -2   14   11    -13.35     -0.20
    0   14   11    -23.06     -0.14
    2   14   11    -47.72      0.35
    4   14   11     19.11     -0.34
    6   14   11     19.18     -0.34
    8   14   11     -3.63      0.50
   10   14   11     -7.18      0.30
   12   14   11     -4.79      0.27
   14   14   11    -10.71      0.12
   16   14   11    -23.85     -0.27
   18   14   11     -9.39      0.19
   20   14   11     -1.27      0.25
  -25   15   11      9.73      0.03
  -23   15   11     10.93      0.13
  -21   15   11     14.62      0.21
  -19   15   11      5.20      0.42
  -17   15   11      7.55      0.15
  -15   15   11     -6.09     -0.06
  -13   15   11    -11.46     -0.05
  -11   15   11     -2.82     -0.28
   -9   15   11    -21.93     -0.06
   -7   15   11    -20.31     -0.99
   -5   15   11      8.66     -0.22
   -3   15   11    -15.31     -0.43
   -1   15   11     10.71     -0.02
    1   15   11      1.44     -0.17
    3   15   11      4.32     -0.03
    5   15   11    -11.17      0.02
    7   15   11     -3.94     -0.45
    9   15   11    -13.03     -0.77
   11   15   11    -11.31      0.56
   13   15   11      4.19     -0.16
   15   15   11     -6.34      0.39
   17   15   11      3.80     -0.23
   19   15   11     -4.96     -0.11
   21   15   11      2.75      0.17
  -26   16   11     -2.16      0.15
  -24   16   11      3.64      0.25
  -22   16   11     19.74     -0.14
  -20   16   11      9.58      0.07
  -18   16   11     17.18     -0.19
  -16   16   11      3.49      0.35
  -14   16   11    -12.07     -0.11
  -12   16   11      4.43     -0.22
  -10   16   11      5.49      0.03
   -8   16   11     16.12      0.14
   -6   16   11      7.68     -0.45
   -4   16   11      3.60      0.21
   -2   16   11      3.05      0.13
    0   16   11     13.98     -0.14
    2   16   11     -9.21      0.32
    4   16   11     11.66     -0.12
    6   16   11     -5.12      0.14
    8   16   11      0.34     -0.69
   10   16   11     -2.43     -0.16
   12   16   11      8.65     -0.21
   14   16   11     10.58      0.23
   16   16   11    -11.46      0.06
   18   16   11     -2.00      0.01
   20   16   11     -2.95     -0.29
  -25   17   11     -1.86      0.18
  -23   17   11     -3.45      0.14
  -21   17   11      2.67      0.15
  -19   17   11      0.46      0.37
  -17   17   11     -1.81      0.34
  -15   17   11     -4.17     -0.13
  -13   17   11    -10.30      0.21
  -11   17   11    -14.95      0.09
   -9   17   11      1.50      0.73
   -7   17   11     18.69      0.02
   -5   17   11     22.79      0.28
   -3   17   11    -13.79      0.42
   -1   17   11     21.92      0.02
    1   17   11     -7.34      0.16
    3   17   11      7.86     -0.40
    5   17   11     12.25     -0.69
    7   17   11     -5.42     -0.25
    9   17   11    -11.84     -0.86
   11   17   11     -3.21      0.53
   13   17   11     13.52      0.12
   15   17   11     -6.01      0.14
   17   17   11     -5.53     -0.08
   19   17   11    -11.67      0.33
   21   17   11     -5.71      0.40
  -26   18   11      8.79     -0.06
  -24   18   11     12.45     -0.13
  -22   18   11      9.36      0.07
  -20   18   11     -6.23      0.27
  -18   18   11     -4.48     -0.06
  -16   18   11      5.68      0.15
  -14   18   11    -19.82      0.19
  -12   18   11    -11.28     -0.08
  -10   18   11    -27.08      0.25
   -8   18   11    -17.11     -0.57
   -6   18   11    -16.97     -0.93
   -4   18   11     -7.44      0.76
   -2   18   11    -12.04      0.55
    0   18   11      0.86      0.41
    2   18   11     -6.65      0.03
    4   18   11     -8.07      0.51
    6   18   11     -4.28      0.39
    8   18   11      5.17     -1.34
   10   18   11    -17.25     -0.39
   12   18   11     -3.75     -0.61
   14   18   11      7.81      0.06
   16   18   11    -10.42      0.15
   18   18   11     -5.81      0.07
   20   18   11    -17.18     -0.32
  -25   19   11      2.08      0.36
  -23   19   11      9.04      0.06
  -21   19   11     15.33      0.03
  -19   19   11     18.89      0.05
  -17   19   11      8.91     -0.29
  -15   19   11     10.81     -0.67
  -13   19   11     11.20      0.18
  -11   19   11     -8.73      0.28
   -9   19   11     -4.25     -0.15
   -7   19   11     10.29     -0.38
   -5   19   11     14.31     -0.21
   -3   19   11    -15.91      0.16
   -1   19   11      8.47     -0.10
    1   19   11     -1.22      0.04
    3   19   11      5.25     -0.71
    5   19   11     -3.71     -0.31
    7   19   11     -3.37      0.23
    9   19   11      0.56     -0.55
   11   19   11      9.34      0.22
   13   19   11     10.46      0.09
   15   19   11     -1.16      0.20
   17   19   11      7.87      0.06
   19   19   11     12.12      0.02
  -24   20   11     -7.79     -0.05
  -22   20   11    -12.50      0.21
  -20   20   11      6.25      0.20
  -18   20   11     -9.41      0.08
  -16   20   11      1.05     -0.09
  -14   20   11     -1.22      0.51
  -12   20   11     13.56     -0.02
  -10   20   11      4.72      0.24
   -8   20   11     27.94     -0.07
   -6   20   11      2.44     -0.25
   -4   20   11    -15.54      0.63
   -2   20   11      0.89     -0.61
    0   20   11     27.47     -0.49
    2   20   11     12.49     -0.69
    4   20   11     -4.45     -0.16
    6   20   11     -1.54     -0.03
    8   20   11      8.75     -0.20
   10   20   11      1.51     -0.89
   12   20   11      2.79     -0.57
   14   20   11     12.70      0.01
   16   20   11     -0.53     -0.20
   18   20   11      7.54      0.30
   20   20   11     -9.75     -0.04
  -25   21   11     -6.11     -0.12
  -23   21   11      3.07     -0.04
  -21   21   11    -11.63      0.04
  -19   21   11    -19.45     -0.06
  -17   21   11     -9.18     -0.07
  -15   21   11     -0.10     -0.10
  -13   21   11     -2.67      0.37
  -11   21   11     -6.78      0.43
   -9   21   11    -10.58     -0.03
   -7   21   11     -4.21      0.78
   -5   21   11      1.39      0.36
   -3   21   11    -16.13      0.30
   -1   21   11     -9.81      0.14
    1   21   11      8.32     -0.03
    3   21   11     13.60      0.07
    5   21   11     -3.96     -0.34
    7   21   11      7.25     -0.91
    9   21   11     -9.69     -0.23
   11   21   11     -2.42      0.26
   13   21   11     -9.74     -0.33
   15   21   11    -13.43     -0.06
   17   21   11    -16.47      0.17
   19   21   11     -8.56     -0.15
  -24   22   11      9.42     -0.06
  -22   22   11     -7.34      0.03
  -20   22   11      9.43      0.23
  -18   22   11    -10.92      0.09
  -16   22   11     -1.30     -0.51
  -14   22   11     18.00      0.02
  -12   22   11     25.30      0.05
  -10   22   11    -12.36     -0.55
   -8   22   11     -8.29     -0.82
   -6   22   11      4.73      0.16
   -4   22   11      4.78     -1.21
   -2   22   11      5.72     -1.16
    0   22   11      5.29     -0.39
    2   22   11    -14.93     -0.64
    4   22   11    -10.91      0.00
    6   22   11      5.00     -0.61
    8   22   11      0.80      1.47
   10   22   11     -2.32      0.12
   12   22   11    -13.61     -0.06
   14   22   11     -3.44      0.14
   16   22   11     -2.57     -0.32
   18   22   11     14.96      0.15
  -23   23   11     -3.56      0.29
  -21   23   11     -5.96      0.19
  -19   23   11     -7.32      0.04
  -17   23   11      0.93     -0.33
  -15   23   11     11.40     -0.37
  -13   23   11      7.66     -0.10
  -11   23   11     13.53      0.01
   -9   23   11      1.88     -0.24
   -7   23   11     10.01     -0.81
   -5   23   11     19.27     -1.90
   -3   23   11      9.65     -0.63
   -1   23   11      2.75     -0.21
    1   23   11     -4.77      0.10
    3   23   11    -13.49      0.42
    5   23   11     -7.75     -0.84
    7   23   11     20.99     -0.17
    9   23   11      0.69      0.58
   11   23   11     -6.46      0.15
   13   23   11     -3.37      0.23
   15   23   11     17.71     -0.05
   17   23   11      8.23      0.12
   19   23   11     10.01     -0.33
  -24   24   11      0.64     -0.15
  -22   24   11    -11.30     -0.33
  -20   24   11     -9.24     -0.20
  -18   24   11     -6.14      0.03
  -16   24   11     -4.65     -0.10
  -14   24   11     -5.57     -0.37
  -12   24   11     11.51     -0.35
  -10   24   11      6.61     -0.44
   -8   24   11     -1.04      1.30
   -6   24   11     15.02      4.23
   -4   24   11      4.06      0.39
   -2   24   11     -9.34      0.12
    0   24   11     -5.61     -0.03
    2   24   11      0.88      0.08
    4   24   11      2.70      0.15
    6   24   11      3.47     -2.80
    8   24   11     -7.11      0.16
   10   24   11      9.00      0.75
   12   24   11      3.61      0.01
   14   24   11     -4.32     -0.26
   16   24   11    -14.36      0.24
   18   24   11    -10.19      0.45
  -23   25   11      1.75      0.02
  -21   25   11      1.54      0.01
  -19   25   11      0.45      0.23
  -17   25   11    -11.35     -0.12
  -15   25   11    -10.66     -0.19
  -13   25   11      1.52      0.09
  -11   25   11     18.72      0.18
   -9   25   11    -11.79     -0.12
   -7   25   11    -18.96     -0.08
   -5   25   11     -1.12     -1.08
   -3   25   11      1.48     -0.32
   -1   25   11     10.67     -0.22
    1   25   11    -13.40      0.02
    3   25   11    -22.09      0.76
    5   25   11     -7.25     -0.63
    7   25   11     -2.43      0.03
    9   25   11     -8.03      0.26
   11   25   11    -15.49     -0.82
   13   25   11     -7.09      0.22
   15   25   11      6.33      0.28
   17   25   11     -3.44      0.01
  -22   26   11      1.52      0.04
  -20   26   11     -9.55      0.03
  -18   26   11      2.44      0.07
  -16   26   11      4.80     -0.02
  -14   26   11      5.77     -0.02
  -12   26   11      8.08      0.03
  -10   26   11      3.43     -0.04
   -8   26   11    -14.61     -0.69
   -6   26   11      8.65      0.21
   -4   26   11     14.24     -0.92
   -2   26   11     -1.65     -0.47
    0   26   11    -15.60     -0.46
    2   26   11    -15.76      0.11
    4   26   11    -19.61     -0.10
    6   26   11     -4.32     -0.86
    8   26   11     -3.60      0.87
   10   26   11     -2.24      0.62
   12   26   11      0.95      0.29
   14   26   11      4.33     -0.24
   16   26   11      7.29      0.10
   18   26   11     -9.78     -0.01
  -23   27   11      0.60     -0.05
  -21   27   11      3.41     -0.12
  -19   27   11      1.97     -0.07
  -17   27   11     -0.47     -0.02
  -15   27   11     -6.62      0.16
  -13   27   11      0.02      0.30
  -11   27   11     18.20      0.43
   -9   27   11      7.20      0.12
   -7   27   11     -4.54      1.26
   -5   27   11     -5.15      0.75
   -3   27   11    -11.10      0.41
   -1   27   11      5.93      0.20
    1   27   11     -5.94      0.29
    3   27   11     -2.85      0.87
    5   27   11      3.50     -0.61
    7   27   11     -7.79     -1.06
    9   27   11      3.58     -0.10
   11   27   11      5.80     -0.38
   13   27   11      9.86      0.06
   15   27   11      3.78      0.47
   17   27   11     -2.43      0.32
  -22   28   11     16.29      0.25
  -20   28   11      6.43      0.11
  -18   28   11      6.52      0.05
  -16   28   11    -13.30     -0.16
  -14   28   11    -13.62      0.20
  -12   28   11    -10.94      0.40
  -10   28   11      3.86      0.36
   -8   28   11     -0.27     -0.60
   -6   28   11    -11.07     -0.26
   -4   28   11    -18.72      0.82
   -2   28   11    -12.08     -0.46
    0   28   11     -7.21     -0.59
    2   28   11      3.88      0.10
    4   28   11     -2.81     -0.17
    6   28   11     -9.47      0.68
    8   28   11     -7.44      0.48
   10   28   11     -0.65     -0.46
   12   28   11     10.16     -0.25
   14   28   11     -4.38     -0.02
   16   28   11     -6.30      0.10
  -21   29   11     10.72      0.00
  -19   29   11     -2.08     -0.08
  -17   29   11     -3.72      0.02
  -15   29   11      0.72      0.23
  -13   29   11      3.06      0.19
  -11   29   11     -3.13      0.33
   -9   29   11     -3.15      0.02
   -7   29   11     -1.14     -0.40
   -5   29   11      3.68     -0.06
   -3   29   11     -1.62     -0.18
   -1   29   11      6.44     -0.67
    1   29   11      6.29     -0.41
    3   29   11     -5.89     -0.33
    5   29   11    -14.55      0.15
    7   29   11    -17.45      0.40
    9   29   11     -3.92      0.24
   11   29   11     -0.29      0.06
   13   29   11    -10.06      0.03
   15   29   11    -19.63     -0.02
   17   29   11     -6.09     -0.18
  -20   30   11      8.15      0.31
  -18   30   11      7.45      0.04
  -16   30   11      3.42     -0.20
  -14   30   11      2.86      0.15
  -12   30   11     -2.00      0.67
  -10   30   11      6.32      0.24
   -8   30   11     15.10     -0.33
   -6   30   11     -0.75     -0.90
   -4   30   11     -1.63      0.37
   -2   30   11     22.49     -0.33
    0   30   11      8.61     -0.07
    2   30   11      6.30      0.38
    4   30   11      8.53      0.08
    6   30   11      6.84      0.53
    8   30   11      3.64     -0.32
   10   30   11      0.81     -0.10
   12   30   11     16.88     -0.03
   14   30   11      7.94      0.12
   16   30   11      6.32     -0.05
  -21   31   11      3.94     -0.02
  -19   31   11     -5.81      0.13
  -17   31   11     -6.51      0.03
  -15   31   11     -3.12     -0.20
  -13   31   11     -5.90     -0.11
  -11   31   11    -13.84      0.26
   -9   31   11      2.21      0.55
   -7   31   11      6.82     -0.77
   -5   31   11     -9.71      0.17
   -3   31   11    -10.60      0.27
   -1   31   11     -0.77     -0.01
    1   31   11     15.80      0.16
    3   31   11     15.32     -0.68
    5   31   11      9.90     -0.50
    7   31   11      1.01     -0.05
    9   31   11      8.00      0.16
   11   31   11      8.09      0.10
   13   31   11      1.32     -0.01
   15   31   11     -2.97     -0.02
  -20   32   11      4.94      0.18
  -18   32   11     -5.03      0.16
  -16   32   11     -3.30      0.09
  -14   32   11     -5.99     -0.05
  -12   32   11     -2.59      0.14
  -10   32   11      2.28     -0.30
   -8   32   11      3.91      0.42
   -6   32   11     11.28     -0.34
   -4   32   11     -5.76      0.08
   -2   32   11      5.63      0.24
    0   32   11      3.24     -0.03
    2   32   11     -1.61      0.00
    4   32   11     -5.31     -0.35
    6   32   11      2.03      0.20
    8   32   11      1.44     -0.23
   10   32   11     -1.96      0.08
   12   32   11     -6.65     -0.14
   14   32   11    -19.84      0.16
  -19   33   11     -1.56      0.40
  -17   33   11      3.79     -0.08
  -15   33   11      9.25     -0.29
  -13   33   11      2.50     -0.19
  -11   33   11     -0.54      0.01
   -9   33   11      2.56      0.61
   -7   33   11      6.26     -0.67
   -5   33   11     -6.22     -0.53
   -3   33   11     10.63     -0.02
   -1   33   11     14.58      0.38
    1   33   11      7.87      0.08
    3   33   11      0.92     -0.09
    5   33   11      0.53      0.18
    7   33   11     -6.41     -0.25
    9   33   11      6.95      0.29
   11   33   11      3.00      0.14
   13   33   11     10.03      0.03
   15   33   11     13.69      0.04
  -18   34   11     -5.44      0.14
  -16   34   11     -4.90      0.04
  -14   34   11     -6.78     -0.15
  -12   34   11      5.44     -0.10
  -10   34   11     14.05     -0.54
   -8   34   11    -10.76     -0.14
   -6   34   11      8.41     -0.55
   -4   34   11     -4.08     -0.20
   -2   34   11      7.51      0.33
    0   34   11     13.04     -0.39
    2   34   11      3.94     -0.19
    4   34   11      0.41     -0.39
    6   34   11      5.40     -0.18
    8   34   11      4.63      0.01
   10   34   11      2.88      0.17
   12   34   11      2.89      0.11
   14   34   11      9.25      0.14
  -17   35   11      3.31      0.01
  -15   35   11      3.07     -0.13
  -13   35   11     -5.73      0.21
  -11   35   11      9.82      0.01
   -9   35   11      4.01      0.16
   -7   35   11      7.02     -0.34
   -5   35   11     -1.34     -1.03
   -3   35   11     -9.91     -0.08
   -1   35   11      8.19      0.32
    1   35   11      2.27     -0.35
    3   35   11    -15.69     -0.15
    5   35   11     -4.92      0.32
    7   35   11     -6.40     -0.56
    9   35   11      2.76      0.30
   11   35   11    -14.93      0.12
   13   35   11    -14.45      0.07
  -18   36   11     -3.75     -0.24
  -16   36   11    -10.99     -0.29
  -14   36   11     -7.90     -0.53
  -12   36   11     -2.95     -0.91
  -10   36   11      3.17      0.07
   -8   36   11    -14.70      0.37
   -6   36   11      6.26      0.04
   -4   36   11     -2.70     -0.28
   -2   36   11     -4.82     -0.14
    0   36   11     -0.15     -0.31
    2   36   11     -3.98     -0.24
    4   36   11     -4.63      0.07
    6   36   11     -9.45      0.32
    8   36   11     -3.97      0.57
   10   36   11     -2.69      0.09
   12   36   11      0.59     -0.09
  -17   37   11      3.04     -0.10
  -15   37   11      1.26     -0.46
  -13   37   11     -7.69     -0.25
  -11   37   11      7.11     -0.57
   -9   37   11      4.74     -0.44
   -7   37   11     -2.98     -0.02
   -5   37   11     11.10     -0.95
   -3   37   11      0.38     -0.18
   -1   37   11     13.82     -0.20
    1   37   11      6.46     -0.34
    3   37   11    -12.66      0.11
    5   37   11     -0.18      0.64
    7   37   11      3.21     -0.20
    9   37   11     -1.40      0.02
   11   37   11     -5.73     -0.05
  -16   38   11     -1.37     -0.30
  -14   38   11      6.37      0.01
  -12   38   11      4.91      0.06
  -10   38   11     -5.48      0.97
   -8   38   11      2.01      0.11
   -6   38   11     23.53      0.15
   -4   38   11     11.08      0.16
   -2   38   11     -3.69      0.18
    0   38   11      5.68     -0.02
    2   38   11     -4.24     -0.48
    4   38   11      5.43      0.03
    6   38   11      6.64     -0.12
    8   38   11      4.70      0.13
   10   38   11      0.31      0.42
  -15   39   11    -15.57     -0.17
  -13   39   11    -12.48     -0.43
  -11   39   11     -9.60     -0.02
   -9   39   11      9.83      0.25
   -7   39   11     -5.76      0.70
   -5   39   11     -4.52      0.32
   -3   39   11    -10.84      0.10
   -1   39   11     -3.35     -0.11
    1   39   11      1.81      0.17
    3   39   11     -8.97      0.16
    5   39   11      6.88      0.26
    7   39   11     20.00      0.14
    9   39   11     -0.22     -0.17
  -14   40   11     -2.59     -0.24
  -12   40   11      5.37     -0.54
  -10   40   11    -11.31      0.41
   -8   40   11     -1.61      0.39
   -6   40   11     -2.15      0.70
   -4   40   11      0.52     -0.35
   -2   40   11     -8.65     -0.12
    0   40   11     -3.63      0.07
    2   40   11     -2.65     -0.08
    4   40   11      7.86      0.12
    6   40   11     10.67     -0.09
    8   40   11      5.18     -0.02
  -13   41   11     14.05      0.05
  -11   41   11     -9.66      0.78
   -9   41   11      1.65     -0.40
   -7   41   11      9.58     -0.57
   -5   41   11      2.92      0.36
   -3   41   11     -4.46      0.08
   -1   41   11     -2.61     -0.27
    1   41   11      4.37     -0.06
    3   41   11     -3.00      0.19
    5   41   11     17.26     -0.06
    7   41   11     11.72      0.00
  -10   42   11    -10.31      0.14
   -8   42   11      4.81     -1.08
   -6   42   11     -8.70      0.73
   -4   42   11     -5.99      0.44
   -2   42   11     -6.02      0.58
    0   42   11    -11.93     -0.01
    2   42   11     -7.96     -0.22
    4   42   11     -2.13      0.01
    6   42   11      6.07      0.17
   -9   43   11     -3.84     -1.16
   -7   43   11      0.16     -0.40
   -5   43   11    -16.03      0.47
   -3   43   11     -5.50      0.35
   -1   43   11     -0.13      0.02
    1   43   11      2.41     -0.09
    3   43   11    -10.65      0.25
    5   43   11      4.00     -0.01
   -6   44   11     14.84     -0.01
   -4   44   11      8.89     -0.29
   -2   44   11     13.45     -0.19
    0   44   11     -1.65     -0.31
    2   44   11    -10.97     -0.04
   -3   45   11      7.95      0.30
  -28    0   12    -24.02      1.34
  -26    0   12    -13.00      0.61
  -24    0   12     -4.85     -0.14
  -22    0   12      5.79      0.84
  -20    0   12     21.58      0.57
  -18    0   12     21.69     -0.28
  -16    0   12     15.96     -0.64
  -14    0   12     -5.85      0.31
  -12    0   12     40.35      0.42
  -10    0   12     45.50     -0.06
   -8    0   12     36.49     -0.82
   -6    0   12     49.39     -0.81
   -4    0   12     74.84      0.09
   -2    0   12     13.27      0.16
    0    0   12     58.46      0.39
    2    0   12     73.12     -0.61
    4    0   12     21.66     -0.18
    6    0   12    -21.00     -0.52
    8    0   12     11.40     -0.17
   10    0   12     -8.65     -0.05
   12    0   12     13.57     -0.23
   14    0   12     14.75      0.50
   16    0   12      5.76      0.20
   18    0   12      1.16      0.17
   20    0   12     -2.86      0.14
   22    0   12     14.38      0.22
  -27    1   12      1.95     -0.65
  -25    1   12     19.53     -0.28
  -23    1   12     -1.95      0.75
  -21    1   12     13.17      0.66
  -19    1   12      7.55      0.78
  -17    1   12    -11.72      2.73
  -15    1   12      4.51      0.98
  -13    1   12     -3.09      0.19
  -11    1   12    -28.87      0.15
   -9    1   12    -25.64     -0.04
   -7    1   12     -1.62     -1.19
   -5    1   12      2.01     -0.04
   -3    1   12    -10.01      0.04
   -1    1   12    -25.64     -0.20
    1    1   12    -11.48      0.33
    3    1   12      3.86     -0.45
    5    1   12     20.12      0.00
    7    1   12      8.38     -0.30
    9    1   12    -11.47      0.08
   11    1   12      3.53      0.24
   13    1   12     15.53     -0.34
   15    1   12     12.26     -0.43
   17    1   12     10.36     -0.23
   19    1   12     -7.39     -0.54
   21    1   12      0.81     -0.11
  -28    2   12      3.82     -0.32
  -26    2   12     13.78     -0.66
  -24    2   12     11.42      0.15
  -22    2   12      8.09     -0.37
  -20    2   12     10.27     -0.16
  -18    2   12    -13.47      0.37
  -16    2   12     -7.73     -5.81
  -14    2   12     -7.18     -1.88
  -12    2   12     -0.97     -0.30
  -10    2   12    -44.55     -1.21
   -8    2   12    -47.27     -0.22
   -6    2   12    -54.51     -0.01
   -4    2   12    -11.40      0.19
   -2    2   12    -16.30      0.64
    0    2   12     -9.81      0.77
    2    2   12    -35.55     -0.23
    4    2   12     -6.49     -0.11
    6    2   12      5.11     -0.47
    8    2   12     11.97     -0.19
   10    2   12    -20.51     -0.05
   12    2   12     -4.50     -0.44
   14    2   12      4.27     -0.16
   16    2   12     12.61     -0.29
   18    2   12      7.91     -0.15
   20    2   12     -8.63     -0.16
   22    2   12      5.91      0.09
  -27    3   12    -13.28      0.73
  -25    3   12     -1.76     -0.05
  -23    3   12     -1.60     -0.41
  -21    3   12     -4.95      0.47
  -19    3   12      4.62     -0.04
  -17    3   12     15.13      1.03
  -15    3   12     14.01     -0.85
  -13    3   12      8.31      0.09
  -11    3   12     41.87      0.23
   -9    3   12     20.61     -0.70
   -7    3   12     18.26     -0.91
   -5    3   12     48.93      0.21
   -3    3   12     27.09      0.24
   -1    3   12    -12.12      0.17
    1    3   12     26.37     -0.19
    3    3   12     13.92     -0.66
    5    3   12     -8.17     -0.32
    7    3   12     11.16     -0.48
    9    3   12     -0.02      0.15
   11    3   12     -4.21      0.02
   13    3   12      4.48     -0.07
   15    3   12      6.84      0.02
   17    3   12      0.29      0.30
   19    3   12     -6.32     -0.07
   21    3   12     -1.98      0.00
  -28    4   12      7.03     -0.36
  -26    4   12      8.90     -0.21
  -24    4   12      3.61      0.95
  -22    4   12     -2.93      0.75
  -20    4   12     17.77      0.53
  -18    4   12     -1.82      2.13
  -16    4   12      8.67     -0.87
  -14    4   12      5.12      1.24
  -12    4   12      2.61      0.37
  -10    4   12      3.75      0.13
   -8    4   12     41.76     -0.11
   -6    4   12     -0.75     -0.10
   -4    4   12     -2.07      0.01
   -2    4   12     -4.55     -0.19
    0    4   12     28.91      0.20
    2    4   12      6.46      0.04
    4    4   12     28.28      0.10
    6    4   12     13.99     -0.31
    8    4   12     -1.86      0.11
   10    4   12     -0.77      0.22
   12    4   12      7.91     -0.40
   14    4   12      2.06      0.11
   16    4   12     -4.58     -0.22
   18    4   12     -1.79     -0.28
   20    4   12      0.92     -0.26
   22    4   12     -2.10      0.10
  -27    5   12     16.47     -0.64
  -25    5   12      3.86      0.22
  -23    5   12      9.77     -0.63
  -21    5   12     -5.53     -0.55
  -19    5   12    -14.49      0.04
  -17    5   12    -11.27     -0.51
  -15    5   12     -3.64     -1.21
  -13    5   12     -5.70      0.44
  -11    5   12     13.13     -0.47
   -9    5   12    -19.33     -0.46
   -7    5   12    -46.07      0.67
   -5    5   12    -62.55      0.32
   -3    5   12    -19.13      0.18
   -1    5   12      6.99      0.52
    1    5   12      3.20      0.02
    3    5   12    -20.57      0.06
    5    5   12    -20.37      0.20
    7    5   12      1.64      0.06
    9    5   12    -16.01     -0.22
   11    5   12    -18.50     -0.07
   13    5   12    -13.82      0.12
   15    5   12      0.62     -0.36
   17    5   12     10.23      0.28
   19    5   12     -0.52      0.15
   21    5   12    -15.06     -0.12
  -28    6   12     -0.95      1.11
  -26    6   12      2.26      0.61
  -24    6   12      9.52      0.17
  -22    6   12    -13.74      0.51
  -20    6   12     -8.76     -0.11
  -18    6   12      0.32     -0.73
  -16    6   12     14.46     -0.27
  -14    6   12    -10.34      0.68
  -12    6   12     -4.76     -0.06
  -10    6   12      2.86      0.48
   -8    6   12     -5.36     -0.13
   -6    6   12     14.29      0.07
   -4    6   12     32.43      0.27
   -2    6   12    -57.01     -0.22
    0    6   12    -55.39      0.15
    2    6   12    -35.40      0.07
    4    6   12    -18.50      0.55
    6    6   12     -5.97      0.48
    8    6   12     -4.11      0.69
   10    6   12     -6.55      0.48
   12    6   12    -24.61     -0.12
   14    6   12    -10.62      0.52
   16    6   12     -3.78      0.35
   18    6   12     -4.34      0.38
   20    6   12     10.29      0.15
   22    6   12     -5.30      0.12
  -27    7   12     24.59     -0.21
  -25    7   12      5.17      0.46
  -23    7   12      2.73      0.17
  -21    7   12      6.46     -0.11
  -19    7   12      4.66      0.03
  -17    7   12     -2.52     -0.46
  -15    7   12     20.85      0.83
  -13    7   12     16.25      1.29
  -11    7   12     13.93      0.40
   -9    7   12     37.84     -0.06
   -7    7   12     33.91      0.23
   -5    7   12     -8.41     -0.29
   -3    7   12     32.74      0.20
   -1    7   12     60.57      0.57
    1    7   12     20.38      0.25
    3    7   12     -2.96      0.91
    5    7   12     -1.47      0.22
    7    7   12     -8.35     -0.05
    9    7   12     -3.00     -0.25
   11    7   12     10.36      0.02
   13    7   12      3.77      0.28
   15    7   12      0.93      0.10
   17    7   12      7.73      0.10
   19    7   12     18.79      0.06
   21    7   12     -4.66      0.22
  -26    8   12      3.02     -0.39
  -24    8   12      1.17     -0.14
  -22    8   12     -5.41     -0.46
  -20    8   12     -5.91      0.04
  -18    8   12      8.38     -0.49
  -16    8   12      6.17      1.30
  -14    8   12    -12.19      0.66
  -12    8   12      1.90     -0.29
  -10    8   12     28.05      0.19
   -8    8   12      2.65      0.40
   -6    8   12     14.16      0.21
   -4    8   12     -6.36     -0.07
   -2    8   12    -31.23     -0.26
    0    8   12     12.42      0.10
    2    8   12     54.45     -0.04
    4    8   12     12.00      0.54
    6    8   12     -8.95      0.80
    8    8   12    -12.04     -0.37
   10    8   12      7.11     -0.59
   12    8   12      0.33      0.21
   14    8   12      0.30      0.46
   16    8   12      5.41      0.08
   18    8   12      1.38      0.16
   20    8   12      3.50      0.00
   22    8   12     -7.29     -0.27
  -27    9   12      9.70      0.63
  -25    9   12      8.80      0.53
  -23    9   12     -5.73      0.62
  -21    9   12     -6.81      0.23
  -19    9   12      2.70     -0.22
  -17    9   12     -2.54     -0.77
  -15    9   12     -4.39      0.43
  -13    9   12    -13.52     -0.03
  -11    9   12    -18.53      0.00
   -9    9   12     -5.29     -0.30
   -7    9   12    -13.68      0.06
   -5    9   12     -6.57      0.16
   -3    9   12    -19.66     -0.22
   -1    9   12    -45.60     -0.18
    1    9   12    -26.03      0.18
    3    9   12    -16.14      0.77
    5    9   12    -24.67      0.17
    7    9   12    -36.41      0.11
    9    9   12     -4.95      0.56
   11    9   12     -5.81      0.19
   13    9   12     -4.14     -0.48
   15    9   12      3.19      0.08
   17    9   12     -1.97      0.25
   19    9   12      5.19      0.03
   21    9   12      1.05      0.24
  -26   10   12     12.75     -0.31
  -24   10   12      3.22      0.24
  -22   10   12      2.91     -0.60
  -20   10   12     -7.14     -0.21
  -18   10   12     -2.40     -0.60
  -16   10   12     -0.05      0.75
  -14   10   12     21.44     -0.02
  -12   10   12     -0.48      0.10
  -10   10   12     18.42      0.36
   -8   10   12     20.52      0.80
   -6   10   12     40.24     -0.20
   -4   10   12      8.58     -0.40
   -2   10   12     31.22      0.68
    0   10   12      1.37      0.06
    2   10   12     17.01      0.28
    4   10   12     11.43     -0.35
    6   10   12     17.61     -0.20
    8   10   12      1.18     -0.28
   10   10   12      8.34     -0.40
   12   10   12      7.04     -0.08
   14   10   12     -0.85      0.11
   16   10   12     -4.29      0.00
   18   10   12      4.64     -0.15
   20   10   12     14.18      0.19
   22   10   12     -2.12      0.04
  -27   11   12      1.84      0.01
  -25   11   12      6.74     -0.18
  -23   11   12     -2.25      0.06
  -21   11   12      1.05     -0.21
  -19   11   12      3.46      0.06
  -17   11   12      7.93     -0.16
  -15   11   12      2.21      0.31
  -13   11   12      7.61     -0.28
  -11   11   12     12.97      0.39
   -9   11   12      3.61      0.30
   -7   11   12     -6.09     -0.09
   -5   11   12     40.81      0.37
   -3   11   12     21.69     -0.30
   -1   11   12      0.35      0.03
    1   11   12     54.28      0.10
    3   11   12     37.57     -0.65
    5   11   12     12.88      0.05
    7   11   12      5.98     -0.48
    9   11   12     29.37      0.03
   11   11   12     13.63      0.37
   13   11   12     17.14      0.15
   15   11   12      8.13      0.39
   17   11   12     10.59      0.26
   19   11   12     -2.54      0.06
   21   11   12      9.35     -0.06
  -26   12   12     -4.19     -0.06
  -24   12   12     -4.39      0.26
  -22   12   12      4.83     -0.13
  -20   12   12      7.48     -0.06
  -18   12   12      7.72     -0.11
  -16   12   12    -19.72      0.50
  -14   12   12     -6.94     -0.10
  -12   12   12    -18.91     -0.02
  -10   12   12      6.47     -0.25
   -8   12   12    -15.91      0.54
   -6   12   12    -21.56      0.33
   -4   12   12    -41.40     -0.14
   -2   12   12      2.63      0.23
    0   12   12    -16.74     -0.25
    2   12   12      8.15      1.63
    4   12   12    -20.14      0.14
    6   12   12    -23.98     -0.87
    8   12   12    -13.68     -0.13
   10   12   12     -2.53     -0.06
   12   12   12     -0.01     -0.44
   14   12   12      4.74     -0.02
   16   12   12     -1.41      0.67
   18   12   12     -8.08      0.09
   20   12   12     10.87     -0.19
  -27   13   12      1.37      0.01
  -25   13   12     -3.21     -0.33
  -23   13   12     -4.02     -0.29
  -21   13   12     -0.72     -0.90
  -19   13   12     -8.22     -0.20
  -17   13   12      1.00      0.17
  -15   13   12      3.84      0.35
  -13   13   12     -6.18      0.31
  -11   13   12    -13.08      0.21
   -9   13   12     -1.58      0.70
   -7   13   12      0.91      0.70
   -5   13   12      8.19      0.35
   -3   13   12     -7.32     -0.14
   -1   13   12    -15.09      0.00
    1   13   12      0.72      0.32
    3   13   12     -4.27     -0.25
    5   13   12     11.18      0.22
    7   13   12     -4.21     -0.50
    9   13   12    -11.51      0.27
   11   13   12    -14.64      0.07
   13   13   12      0.97      0.11
   15   13   12    -15.58      0.06
   17   13   12     -6.82     -0.42
   19   13   12    -13.11     -0.05
   21   13   12      2.76     -0.08
  -26   14   12     -9.51      0.08
  -24   14   12      3.94     -0.21
  -22   14   12      6.49      0.22
  -20   14   12     -3.03      0.15
  -18   14   12     -1.92     -0.29
  -16   14   12     -3.39     -0.42
  -14   14   12      7.47     -0.46
  -12   14   12     12.19      0.16
  -10   14   12     13.05      0.19
   -8   14   12    -40.63     -0.21
   -6   14   12    -13.27     -0.09
   -4   14   12     28.13      0.09
   -2   14   12     32.02      0.36
    0   14   12     12.78     -0.06
    2   14   12     15.50      0.34
    4   14   12    -11.45      0.07
    6   14   12     17.48     -0.52
    8   14   12     41.91      0.20
   10   14   12      9.65      0.38
   12   14   12     -2.81     -0.02
   14   14   12      2.00     -0.07
   16   14   12     11.14      0.22
   18   14   12     -0.03     -0.07
   20   14   12      3.64     -0.28
  -25   15   12    -10.29     -0.19
  -23   15   12     -1.22      0.07
  -21   15   12      5.24     -0.26
  -19   15   12      8.24      0.47
  -17   15   12     10.30      0.16
  -15   15   12     11.07     -0.42
  -13   15   12      7.63      0.20
  -11   15   12      2.95     -0.06
   -9   15   12     -1.00      0.27
   -7   15   12     -9.68      0.01
   -5   15   12    -15.41     -0.24
   -3   15   12      3.83      0.29
   -1   15   12      6.88      0.20
    1   15   12    -13.19      1.00
    3   15   12    -15.26      0.66
    5   15   12     -1.34      0.18
    7   15   12      6.22     -0.35
    9   15   12     -9.47      0.49
   11   15   12     -4.88      0.33
   13   15   12      3.48      0.09
   15   15   12      6.73      0.44
   17   15   12      3.37     -0.03
   19   15   12      2.01      0.02
   21   15   12      1.97     -0.25
  -26   16   12     -7.84     -0.03
  -24   16   12     -5.85     -0.61
  -22   16   12     -9.64     -0.03
  -20   16   12     -3.15     -0.06
  -18   16   12      9.57      0.37
  -16   16   12     13.72      0.09
  -14   16   12     -4.09      0.07
  -12   16   12    -14.67     -0.07
  -10   16   12     -3.04     -0.30
   -8   16   12    -10.78      0.48
   -6   16   12    -12.99      0.87
   -4   16   12    -10.88      0.28
   -2   16   12    -24.47     -0.40
    0   16   12      3.68     -0.64
    2   16   12    -13.86      0.16
    4   16   12    -20.21      0.76
    6   16   12    -17.52     -0.47
    8   16   12     -5.06      0.07
   10   16   12    -13.93     -0.48
   12   16   12     -2.85     -0.39
   14   16   12     -2.12     -0.37
   16   16   12     -1.13     -0.54
   18   16   12     -6.20     -0.14
   20   16   12     -6.49     -0.21
  -25   17   12    -10.51     -0.05
  -23   17   12     -0.70     -0.11
  -21   17   12     -9.43     -0.07
  -19   17   12     -7.14      0.60
  -17   17   12     -4.83      0.27
  -15   17   12     -5.85     -0.36
  -13   17   12     -2.62     -0.11
  -11   17   12     15.45     -0.30
   -9   17   12    -10.49     -0.09
   -7   17   12    -29.63     -0.65
   -5   17   12    -17.59     -0.20
   -3   17   12      7.32      0.51
   -1   17   12     10.50     -0.03
    1   17   12     15.17     -0.04
    3   17   12     15.35     -0.23
    5   17   12     -3.01      0.31
    7   17   12     29.79     -0.36
    9   17   12      1.22     -0.32
   11   17   12      8.45      0.13
   13   17   12     -1.70     -0.77
   15   17   12     13.68      0.12
   17   17   12      8.54     -0.46
   19   17   12     11.47     -0.44
  -26   18   12      8.64     -0.01
  -24   18   12      8.38     -0.12
  -22   18   12     -4.77      0.15
  -20   18   12     -0.36      0.18
  -18   18   12      4.96      0.74
  -16   18   12      4.87     -0.10
  -14   18   12     14.38     -0.02
  -12   18   12     12.26      0.06
  -10   18   12      0.21     -0.61
   -8   18   12     19.36     -0.83
   -6   18   12     19.01     -0.64
   -4   18   12     28.46      0.05
   -2   18   12      2.71      0.65
    0   18   12     16.85      0.23
    2   18   12    -14.45     -0.24
    4   18   12     13.73     -0.39
    6   18   12     16.85      0.24
    8   18   12     19.86      1.50
   10   18   12      5.91      0.11
   12   18   12      2.95      0.09
   14   18   12      1.52      0.19
   16   18   12     -1.57      0.00
   18   18   12     -0.77      0.66
   20   18   12     -4.26      0.20
  -25   19   12      1.95     -0.19
  -23   19   12      4.29     -0.36
  -21   19   12     -4.79     -0.31
  -19   19   12      4.51      0.14
  -17   19   12      0.07      0.19
  -15   19   12      4.45     -0.21
  -13   19   12    -11.30     -0.18
  -11   19   12     -4.06     -0.73
   -9   19   12     -8.23     -0.12
   -7   19   12      2.61     -1.15
   -5   19   12      3.36     -1.13
   -3   19   12      1.22      0.33
   -1   19   12      2.79     -0.34
    1   19   12     -1.77      0.13
    3   19   12     -8.70      0.02
    5   19   12    -30.96     -0.11
    7   19   12      1.57     -0.14
    9   19   12    -11.44     -0.85
   11   19   12      3.99     -0.02
   13   19   12     -9.68     -0.80
   15   19   12      7.33     -0.05
   17   19   12      4.19     -0.11
   19   19   12     22.81     -0.04
  -24   20   12     -2.88     -0.03
  -22   20   12      0.18     -0.32
  -20   20   12      7.60     -0.35
  -18   20   12     10.03      0.21
  -16   20   12    -11.54      0.05
  -14   20   12    -22.34     -0.19
  -12   20   12     -6.42     -0.51
  -10   20   12     -4.00     -0.70
   -8   20   12      9.08     -0.35
   -6   20   12    -15.16      0.73
   -4   20   12     -9.94      0.17
   -2   20   12    -31.28     -0.02
    0   20   12     11.45      0.03
    2   20   12     22.47     -0.50
    4   20   12     12.81     -0.31
    6   20   12     -7.72     -0.19
    8   20   12     -4.20     -0.67
   10   20   12      3.47     -0.49
   12   20   12      5.49     -0.61
   14   20   12     -1.90     -0.23
   16   20   12     -6.26     -0.06
   18   20   12      5.77      0.09
   20   20   12      6.92      0.05
  -25   21   12     -2.32     -0.11
  -23   21   12     -2.51     -0.04
  -21   21   12      2.51     -0.17
  -19   21   12     13.96     -0.16
  -17   21   12    -21.31     -0.17
  -15   21   12      2.38     -0.34
  -13   21   12     12.88      0.26
  -11   21   12     20.93      0.08
   -9   21   12      8.84      0.36
   -7   21   12     15.62     -0.53
   -5   21   12     17.04     -1.21
   -3   21   12      9.87      0.88
   -1   21   12     21.85      0.13
    1   21   12      7.14     -0.03
    3   21   12      1.60     -0.81
    5   21   12     -3.72     -0.81
    7   21   12      7.08      1.05
    9   21   12      5.99     -0.64
   11   21   12     -1.12     -0.20
   13   21   12    -23.10     -0.08
   15   21   12    -15.24      0.00
   17   21   12    -12.16      0.01
   19   21   12     11.45      0.20
  -24   22   12      2.70     -0.10
  -22   22   12      5.75     -0.25
  -20   22   12      1.80     -0.52
  -18   22   12      2.26     -0.14
  -16   22   12     10.84      0.20
  -14   22   12     -3.99      0.07
  -12   22   12     -3.82     -0.57
  -10   22   12      0.56     -0.18
   -8   22   12     13.81     -0.15
   -6   22   12      6.62     -0.91
   -4   22   12     23.55     -0.92
   -2   22   12     -0.02     -0.39
    0   22   12     -7.42      0.33
    2   22   12     -1.86      0.22
    4   22   12     -4.45      0.62
    6   22   12      4.69      0.42
    8   22   12      4.27     -0.58
   10   22   12     -2.56      0.62
   12   22   12    -13.64      0.09
   14   22   12     -1.85     -0.39
   16   22   12     -1.13     -0.32
   18   22   12     -3.10     -0.15
  -23   23   12     -4.75      0.09
  -21   23   12      0.74     -0.29
  -19   23   12     14.93     -0.32
  -17   23   12     -6.28      0.04
  -15   23   12      6.42     -0.42
  -13   23   12     -6.51     -0.14
  -11   23   12      6.04      0.12
   -9   23   12     -7.12     -0.19
   -7   23   12    -10.81      0.84
   -5   23   12      2.56     -1.02
   -3   23   12    -17.18     -0.44
   -1   23   12     -9.21      0.58
    1   23   12     -6.30      0.74
    3   23   12      2.29      0.65
    5   23   12      0.27     -0.22
    7   23   12    -12.70     -0.47
    9   23   12      0.58     -0.67
   11   23   12     -3.80      0.91
   13   23   12    -12.84      0.50
   15   23   12     -4.08      0.13
   17   23   12     -4.05     -0.07
   19   23   12      9.77     -0.32
  -24   24   12     -4.64     -0.02
  -22   24   12     -7.27      0.11
  -20   24   12      5.66     -0.17
  -18   24   12     -6.25     -0.02
  -16   24   12     -1.11     -0.04
  -14   24   12     -8.00     -0.03
  -12   24   12      4.13     -0.60
  -10   24   12     22.43      0.29
   -8   24   12      5.92      1.12
   -6   24   12     -7.32     -0.53
   -4   24   12      1.38      0.22
   -2   24   12      6.55      0.12
    0   24   12     -1.25     -0.07
    2   24   12     -8.84     -0.44
    4   24   12    -11.96     -0.07
    6   24   12     -2.80      0.60
    8   24   12      6.62      0.11
   10   24   12      7.50      0.24
   12   24   12    -21.32      0.29
   14   24   12    -11.83      0.09
   16   24   12     -9.87     -0.34
   18   24   12     -7.02     -0.17
  -23   25   12      0.05      0.26
  -21   25   12     -2.02     -0.15
  -19   25   12     -4.29     -0.29
  -17   25   12     -3.62      0.23
  -15   25   12      1.10     -0.01
  -13   25   12    -23.42     -0.15
  -11   25   12      7.29      0.21
   -9   25   12     15.65      0.20
   -7   25   12      4.33      0.74
   -5   25   12     23.26     -0.86
   -3   25   12      4.80     -0.31
   -1   25   12     -1.04      0.50
    1   25   12      5.12      0.14
    3   25   12     15.74      0.89
    5   25   12     15.31      1.03
    7   25   12      2.42     -0.13
    9   25   12     14.97      0.01
   11   25   12      1.27      1.29
   13   25   12     -2.30      0.37
   15   25   12     10.78     -0.06
   17   25   12     -5.34      0.33
  -22   26   12     -7.33     -0.06
  -20   26   12     -0.33     -0.10
  -18   26   12     -4.61      0.11
  -16   26   12      5.67     -0.12
  -14   26   12     -1.48     -0.19
  -12   26   12     -0.53     -0.15
  -10   26   12     12.19     -0.40
   -8   26   12    -12.08     -0.14
   -6   26   12     -2.65     -1.18
   -4   26   12      0.46     -0.78
   -2   26   12      8.66     -0.09
    0   26   12     -7.54      0.14
    2   26   12    -12.31      0.18
    4   26   12      4.49      0.72
    6   26   12      1.39      0.30
    8   26   12     -0.21     -0.05
   10   26   12      9.57      0.73
   12   26   12      0.01      0.90
   14   26   12     10.26      0.42
   16   26   12      2.87     -0.02
  -23   27   12      2.42      0.11
  -21   27   12     -1.55     -0.06
  -19   27   12     -3.85     -0.03
  -17   27   12      2.98      0.20
  -15   27   12     -1.02      0.12
  -13   27   12    -18.78     -0.11
  -11   27   12     -3.00      0.03
   -9   27   12      5.87      0.50
   -7   27   12     -7.95     -1.19
   -5   27   12      0.46     -0.97
   -3   27   12    -13.05      0.74
   -1   27   12    -15.71      0.29
    1   27   12     -2.63     -0.53
    3   27   12     -4.64     -0.97
    5   27   12     -6.51     -0.19
    7   27   12     -9.95     -0.07
    9   27   12      4.79     -0.06
   11   27   12    -10.51      0.04
   13   27   12     -5.12      0.26
   15   27   12      5.41      0.00
   17   27   12      0.76      0.20
  -22   28   12     -0.01     -0.03
  -20   28   12      3.88     -0.12
  -18   28   12     -0.98     -0.18
  -16   28   12     -7.52     -0.05
  -14   28   12    -11.78      0.01
  -12   28   12    -11.23      0.14
  -10   28   12      6.32     -0.29
   -8   28   12      1.59      0.10
   -6   28   12     19.45      0.38
   -4   28   12      2.05      0.35
   -2   28   12      0.02      0.51
    0   28   12      3.41     -0.43
    2   28   12     19.87     -0.48
    4   28   12     17.35     -0.05
    6   28   12      5.59      0.20
    8   28   12      2.78     -0.34
   10   28   12     15.56     -0.13
   12   28   12     13.92     -0.20
   14   28   12     -6.64     -0.55
   16   28   12    -13.09     -0.01
  -21   29   12      6.21     -0.05
  -19   29   12      8.34      0.06
  -17   29   12     17.73      0.13
  -15   29   12      8.79     -0.09
  -13   29   12      7.10     -0.35
  -11   29   12      4.09     -0.30
   -9   29   12      8.15      0.25
   -7   29   12      6.72     -1.57
   -5   29   12      0.21     -0.79
   -3   29   12      6.88      0.19
   -1   29   12      1.62     -0.52
    1   29   12      5.32     -0.53
    3   29   12      6.75     -0.53
    5   29   12     12.21      0.21
    7   29   12     -0.13     -0.37
    9   29   12     -2.03      0.14
   11   29   12     -7.41     -0.32
   13   29   12      8.79      0.13
   15   29   12     -7.94      0.14
  -20   30   12     -4.24     -0.03
  -18   30   12      6.71      0.26
  -16   30   12     -5.62      0.54
  -14   30   12      8.10      0.46
  -12   30   12     -1.80      0.43
  -10   30   12    -13.73      0.07
   -8   30   12    -10.21     -0.64
   -6   30   12     18.86     -0.40
   -4   30   12      6.24      0.05
   -2   30   12    -12.04      0.36
    0   30   12     -9.68     -0.42
    2   30   12      5.75     -0.36
    4   30   12     -4.70     -1.39
    6   30   12      2.26     -0.63
    8   30   12    -10.59     -0.50
   10   30   12    -13.27     -0.51
   12   30   12     -3.76     -0.25
   14   30   12    -19.64     -0.29
   16   30   12    -12.38     -0.05
  -21   31   12      5.01      0.15
  -19   31   12     -0.08      0.10
  -17   31   12      0.54      0.07
  -15   31   12     -5.67     -0.04
  -13   31   12      3.25     -0.19
  -11   31   12     -4.62     -0.28
   -9   31   12    -11.75      0.14
   -7   31   12      2.86     -0.37
   -5   31   12     -0.95     -0.25
   -3   31   12     13.66      0.12
   -1   31   12     10.90      0.14
    1   31   12     11.12     -0.05
    3   31   12     -0.92     -0.34
    5   31   12      7.74      0.14
    7   31   12     12.10     -0.79
    9   31   12     -2.75     -0.02
   11   31   12     -8.95     -0.69
   13   31   12     -6.50     -0.56
   15   31   12    -23.56      0.04
  -20   32   12     -2.83     -0.26
  -18   32   12     15.65     -0.02
  -16   32   12     -7.70      0.19
  -14   32   12      2.91     -0.33
  -12   32   12      1.76     -0.75
  -10   32   12     -1.06     -0.50
   -8   32   12     13.96     -0.34
   -6   32   12     15.43      0.33
   -4   32   12      7.78     -0.17
   -2   32   12     -7.17     -0.39
    0   32   12    -14.37     -0.30
    2   32   12      5.06      0.53
    4   32   12      6.96     -0.37
    6   32   12     16.52     -0.18
    8   32   12      2.13      0.23
   10   32   12     -4.90      0.26
   12   32   12      2.67      0.12
   14   32   12     -6.80      0.14
  -19   33   12     -2.64     -0.10
  -17   33   12     -5.08      0.16
  -15   33   12     -5.23      0.11
  -13   33   12      1.90      0.35
  -11   33   12     -1.99      0.07
   -9   33   12    -16.21     -0.03
   -7   33   12     -2.31      0.07
   -5   33   12     12.32     -0.08
   -3   33   12      6.97      0.07
   -1   33   12     -3.14      0.35
    1   33   12     -3.09      0.23
    3   33   12    -16.65      0.11
    5   33   12     -4.62      0.20
    7   33   12      5.99     -0.57
    9   33   12     -0.92     -0.16
   11   33   12      4.46     -0.26
   13   33   12     -6.72     -0.02
  -18   34   12     10.66     -0.26
  -16   34   12     -7.10     -0.28
  -14   34   12     -2.08     -0.23
  -12   34   12      3.26     -0.27
  -10   34   12     -3.34     -0.20
   -8   34   12      0.55      0.00
   -6   34   12     -3.40      0.60
   -4   34   12      9.16      0.01
   -2   34   12      3.42      0.14
    0   34   12     -9.58     -0.04
    2   34   12    -10.89      0.05
    4   34   12    -13.22     -0.11
    6   34   12      3.42     -0.09
    8   34   12      3.63     -0.02
   10   34   12     -0.24      0.21
   12   34   12     -5.63     -0.15
  -17   35   12     -2.35     -0.05
  -15   35   12     -6.17     -0.06
  -13   35   12     -7.67     -0.04
  -11   35   12      2.53     -0.66
   -9   35   12     15.74     -0.39
   -7   35   12     -3.48     -0.40
   -5   35   12     -1.78     -0.19
   -3   35   12     -4.01     -0.40
   -1   35   12     -7.61     -0.08
    1   35   12      1.58      0.06
    3   35   12     -0.19      0.01
    5   35   12      0.61      0.05
    7   35   12      0.08      0.19
    9   35   12      3.80     -0.10
   11   35   12      3.00     -0.02
  -16   36   12     -1.52      0.05
  -14   36   12     -1.71      0.32
  -12   36   12      4.54      0.29
  -10   36   12      0.25     -0.19
   -8   36   12     -9.87      0.08
   -6   36   12     -8.56      0.35
   -4   36   12      4.67     -0.10
   -2   36   12    -11.65      0.15
    0   36   12     -9.76     -0.04
    2   36   12     -4.32     -0.10
    4   36   12     -9.83      0.00
    6   36   12      0.20      0.06
    8   36   12      8.01     -0.21
   10   36   12     19.91      0.19
   12   36   12      3.60     -0.19
  -15   37   12      8.46     -0.02
  -13   37   12      2.69      0.07
  -11   37   12    -12.90     -0.45
   -9   37   12      2.07      0.32
   -7   37   12     -7.80     -0.21
   -5   37   12      1.06      0.24
   -3   37   12     -3.43     -0.14
   -1   37   12    -16.74      0.02
    1   37   12     -4.67      0.16
    3   37   12     -4.14      0.02
    5   37   12      4.40      0.00
    7   37   12     -6.80      0.26
    9   37   12      6.55     -0.34
   11   37   12     -6.91     -0.04
  -16   38   12     -0.85     -0.01
  -14   38   12     -5.22      0.24
  -12   38   12      2.61     -0.31
  -10   38   12     12.92     -0.91
   -8   38   12     -0.22     -1.00
   -6   38   12    -12.96     -0.80
   -4   38   12      8.60     -0.26
   -2   38   12      2.73      0.23
    0   38   12      6.34      0.28
    2   38   12     18.34     -0.16
    4   38   12     -4.04     -0.13
    6   38   12     -3.43      0.38
    8   38   12      3.93     -0.06
   10   38   12      1.03     -0.13
  -15   39   12      4.65      0.13
  -13   39   12      1.00      0.25
  -11   39   12     -0.12     -0.73
   -9   39   12      6.56      0.04
   -7   39   12     -7.83     -0.01
   -5   39   12     -8.81     -0.07
   -3   39   12     -5.94     -0.17
   -1   39   12     -3.52     -0.01
    1   39   12     18.56      0.42
    3   39   12      1.32      0.36
    5   39   12     12.06      0.05
    7   39   12     -0.83      0.12
    9   39   12     19.12      0.04
  -12   40   12     -1.10     -0.56
  -10   40   12     -5.53      0.12
   -8   40   12     -1.98     -0.27
   -6   40   12      4.18     -0.56
   -4   40   12      7.32     -0.32
   -2   40   12     -9.50     -0.23
    0   40   12     -8.86      0.50
    2   40   12     12.62      0.19
    4   40   12      4.18      0.17
    6   40   12      3.07      0.27
    8   40   12      5.44      0.21
  -11   41   12     13.28     -0.91
   -9   41   12     11.57     -0.29
   -7   41   12     -6.63      0.11
   -5   41   12     -6.94     -0.46
   -3   41   12      2.79      0.04
   -1   41   12      0.09      0.11
    1   41   12     20.18      0.15
    3   41   12      1.55     -0.16
    5   41   12      2.51     -0.19
    7   41   12      1.42      0.12
  -10   42   12      1.73      0.45
   -8   42   12     -1.92      0.02
   -6   42   12      8.84     -0.18
   -4   42   12     -0.10      0.19
   -2   42   12     -0.52      0.15
    0   42   12      4.53      0.17
    2   42   12      6.67     -0.19
    4   42   12      3.09      0.17
   -9   43   12      9.72      0.12
   -7   43   12      1.82     -0.33
   -5   43   12      1.84     -0.29
   -3   43   12     -3.41      0.38
   -1   43   12      3.51      0.13
    1   43   12      9.68     -0.06
    3   43   12     -3.11     -0.08
   -6   44   12      8.99      0.27
   -4   44   12      6.46     -0.16
   -2   44   12      5.09     -0.02
    0   44   12     -1.06      0.10
  -28    0   13     -7.41     -0.28
  -26    0   13    -10.95     -0.64
  -24    0   13     -8.71      1.04
  -22    0   13     -3.07     -0.01
  -20    0   13      6.58      0.13
  -18    0   13     -3.29      0.11
  -16    0   13    -16.32      0.74
  -14    0   13      5.85      0.09
  -12    0   13     -4.83      0.39
  -10    0   13    -16.12      0.06
   -8    0   13     30.42     -0.28
   -6    0   13    -25.86     -0.75
   -4    0   13    -39.22     -0.84
   -2    0   13    -75.66     -0.84
    0    0   13      9.58     -0.52
    2    0   13    -23.07     -0.05
    4    0   13     44.45      0.10
    6    0   13    -31.51     -0.26
    8    0   13    -10.36     -0.25
   10    0   13     -3.29     -0.33
   12    0   13     -0.31      0.00
   14    0   13    -15.00     -0.16
   16    0   13    -26.46     -0.11
   18    0   13     -2.63      0.13
   20    0   13    -13.43     -0.48
   22    0   13     -2.64      0.00
  -27    1   13      1.11     -0.29
  -25    1   13    -13.62      0.23
  -23    1   13      2.55     -0.71
  -21    1   13    -17.69      0.25
  -19    1   13      5.94      1.53
  -17    1   13      7.04      1.10
  -15    1   13     11.72     -1.21
  -13    1   13     -8.32     -0.10
  -11    1   13      8.62     -0.55
   -9    1   13      0.39     -1.46
   -7    1   13      3.96     -0.20
   -5    1   13     13.77     -0.45
   -3    1   13     19.74     -0.03
   -1    1   13     -0.27     -0.23
    1    1   13      6.29     -0.23
    3    1   13      5.35     -0.28
    5    1   13    -15.92     -0.18
    7    1   13     -5.76     -0.04
    9    1   13     18.20      0.00
   11    1   13      7.49      0.46
   13    1   13     -2.06     -0.28
   15    1   13     -9.55     -0.03
   17    1   13     -4.65      0.14
   19    1   13      4.58      0.01
   21    1   13      4.86      0.27
  -28    2   13      4.68      0.30
  -26    2   13      2.49     -0.61
  -24    2   13     -1.12     -0.56
  -22    2   13    -10.86     -0.33
  -20    2   13    -17.94      0.00
  -18    2   13     -2.35      1.05
  -16    2   13      5.49      3.24
  -14    2   13      7.00     -0.40
  -12    2   13      0.95      0.66
  -10    2   13     -5.80      2.87
   -8    2   13      6.40      0.64
   -6    2   13      8.68     -0.13
   -4    2   13     39.89     -0.06
   -2    2   13    -27.09     -0.49
    0    2   13      4.17      0.08
    2    2   13    -10.65     -0.15
    4    2   13     30.83     -0.04
    6    2   13     -6.78     -0.49
    8    2   13     29.13     -0.25
   10    2   13     19.02      0.23
   12    2   13     10.43     -0.13
   14    2   13      9.02     -0.23
   16    2   13     -2.88     -0.07
   18    2   13     12.73      0.21
   20    2   13      6.69     -0.21
   22    2   13      9.16      0.11
  -27    3   13      2.07     -1.18
  -25    3   13    -10.02      0.62
  -23    3   13      3.57      0.29
  -21    3   13      8.60     -0.66
  -19    3   13      5.47      0.99
  -17    3   13    -19.60      2.72
  -15    3   13      7.51      0.94
  -13    3   13      3.19      1.21
  -11    3   13    -14.22      0.34
   -9    3   13     -7.27     -0.33
   -7    3   13     -6.09      0.10
   -5    3   13    -47.97     -0.28
   -3    3   13     -3.86     -0.37
   -1    3   13     26.63     -0.53
    1    3   13      2.11     -0.28
    3    3   13    -15.86      0.10
    5    3   13     -2.64     -0.13
    7    3   13     -3.54      0.32
    9    3   13      4.00     -0.17
   11    3   13      5.07      0.64
   13    3   13     -3.88     -0.20
   15    3   13     -6.85     -0.44
   17    3   13     -4.32      0.14
   19    3   13     -2.83     -0.26
   21    3   13    -10.34     -0.03
  -28    4   13     -8.76      0.28
  -26    4   13    -16.11      0.10
  -24    4   13    -15.38      0.32
  -22    4   13      6.60      0.52
  -20    4   13      0.04      1.23
  -18    4   13     16.53      1.79
  -16    4   13     10.62      1.48
  -14    4   13    -19.89     -0.95
  -12    4   13     -9.34     -0.51
  -10    4   13     18.74      0.47
   -8    4   13      6.00      0.02
   -6    4   13      5.94      0.06
   -4    4   13      9.74     -0.45
   -2    4   13      2.57     -0.46
    0    4   13     11.00      0.00
    2    4   13     19.28     -0.11
    4    4   13    -19.16     -0.10
    6    4   13    -27.00     -0.21
    8    4   13      1.27     -0.25
   10    4   13     -0.55     -0.17
   12    4   13     -7.14     -0.08
   14    4   13     -3.99     -0.14
   16    4   13     -9.20      0.05
   18    4   13     -4.16      0.34
   20    4   13     -8.44     -0.09
   22    4   13     -4.63     -0.06
  -27    5   13     13.18     -0.17
  -25    5   13     -0.21     -0.28
  -23    5   13     -9.48     -0.43
  -21    5   13     -3.91     -0.53
  -19    5   13     -6.08     -1.10
  -17    5   13     -7.55      0.94
  -15    5   13      9.84      0.71
  -13    5   13     -5.00     -0.09
  -11    5   13     -9.79      0.09
   -9    5   13      7.99      0.68
   -7    5   13      6.23      0.13
   -5    5   13     -0.46      0.42
   -3    5   13     17.03     -0.23
   -1    5   13      6.31     -0.40
    1    5   13     20.97     -0.25
    3    5   13     12.66     -0.02
    5    5   13     12.84     -0.25
    7    5   13      1.26     -0.05
    9    5   13      8.43     -0.06
   11    5   13     10.88      0.30
   13    5   13      9.32     -0.20
   15    5   13     17.74     -0.33
   17    5   13      6.56      0.03
   19    5   13     10.16     -0.13
   21    5   13      3.41      0.06
  -28    6   13     -4.80     -0.41
  -26    6   13      5.57     -0.32
  -24    6   13     -6.69      0.50
  -22    6   13     18.46      0.02
  -20    6   13      4.78     -0.23
  -18    6   13     -8.60      0.03
  -16    6   13     -3.88     -0.47
  -14    6   13      9.83      0.22
  -12    6   13     -6.78     -0.15
  -10    6   13     -6.88      0.02
   -8    6   13    -10.48      0.28
   -6    6   13     -2.67     -0.21
   -4    6   13      0.01     -0.66
   -2    6   13     90.14     -0.03
    0    6   13     13.29     -0.41
    2    6   13     -1.92     -0.41
    4    6   13    -24.74     -0.42
    6    6   13     37.46      0.54
    8    6   13     18.00      0.22
   10    6   13      8.39     -0.44
   12    6   13     -7.35      0.18
   14    6   13    -10.78     -0.05
   16    6   13     -6.77     -0.19
   18    6   13      1.51     -0.02
   20    6   13      0.44     -0.06
  -27    7   13     -9.88      0.73
  -25    7   13    -11.18      0.06
  -23    7   13     -6.92      0.54
  -21    7   13      0.23      1.20
  -19    7   13     -6.94     -0.15
  -17    7   13      9.40     -0.37
  -15    7   13     -0.08     -0.65
  -13    7   13     -1.90     -0.44
  -11    7   13     14.39     -0.19
   -9    7   13     10.08      0.22
   -7    7   13    -12.81     -0.49
   -5    7   13     16.95     -0.10
   -3    7   13     18.62     -0.54
   -1    7   13    -26.09     -0.10
    1    7   13      0.48     -0.06
    3    7   13    -11.23     -0.47
    5    7   13    -22.43      0.41
    7    7   13    -23.02     -0.17
    9    7   13    -13.50     -0.34
   11    7   13    -10.68      0.14
   13    7   13    -15.64      0.51
   15    7   13     -0.20     -0.01
   17    7   13      0.70      0.31
   19    7   13    -11.72      0.29
   21    7   13    -12.22     -0.18
  -26    8   13      8.75     -0.21
  -24    8   13    -14.02     -0.41
  -22    8   13     -4.66      0.16
  -20    8   13     10.01     -0.62
  -18    8   13      7.15     -0.77
  -16    8   13     -7.93     -1.31
  -14    8   13     -2.94      0.16
  -12    8   13    -27.27     -0.68
  -10    8   13     -0.16     -0.90
   -8    8   13      9.11     -0.18
   -6    8   13     11.80     -0.20
   -4    8   13    -19.67     -0.33
   -2    8   13     45.87     -0.08
    0    8   13    -20.29     -0.60
    2    8   13     28.40      0.23
    4    8   13     -4.57     -0.07
    6    8   13     13.38      0.06
    8    8   13    -28.39      0.12
   10    8   13      4.24     -0.06
   12    8   13     -3.95      0.21
   14    8   13      4.69      0.38
   16    8   13      2.07      0.28
   18    8   13     -1.20     -0.17
   20    8   13     16.14     -0.11
  -27    9   13      6.03      0.00
  -25    9   13     11.26     -0.25
  -23    9   13      6.81      0.37
  -21    9   13      2.34      0.08
  -19    9   13    -17.29     -0.22
  -17    9   13     -2.23     -0.60
  -15    9   13     -2.26     -0.71
  -13    9   13      8.23      0.02
  -11    9   13     -9.54     -0.07
   -9    9   13      7.26      0.08
   -7    9   13      6.19     -0.06
   -5    9   13     16.91     -0.45
   -3    9   13     35.32     -0.44
   -1    9   13     12.26      0.18
    1    9   13      5.42     -0.36
    3    9   13     12.27     -1.00
    5    9   13     28.07      0.72
    7    9   13     15.54      0.27
    9    9   13      0.56     -0.01
   11    9   13     17.37      0.10
   13    9   13      6.59      0.68
   15    9   13     -5.93     -0.28
   17    9   13      7.56     -0.25
   19    9   13     -2.77      0.17
   21    9   13     -6.76     -0.23
  -26   10   13     -3.07      0.28
  -24   10   13      5.63     -0.06
  -22   10   13     -1.71      1.05
  -20   10   13     -5.13      0.25
  -18   10   13     -2.99     -0.01
  -16   10   13    -12.06     -1.15
  -14   10   13      5.02     -0.36
  -12   10   13     14.18     -0.15
  -10   10   13     18.23     -0.26
   -8   10   13    -27.72      0.11
   -6   10   13      4.11      0.30
   -4   10   13     13.71      0.68
   -2   10   13      5.67      0.40
    0   10   13    -58.39      0.08
    2   10   13     -2.63     -0.40
    4   10   13    -24.20     -0.55
    6   10   13     -4.25      0.18
    8   10   13    -16.87      0.36
   10   10   13      7.50      0.34
   12   10   13    -20.67     -0.03
   14   10   13     -6.89     -0.45
   16   10   13      8.39     -0.04
   18   10   13     -8.26      0.26
   20   10   13     -3.20      0.10
  -27   11   13      6.60     -0.02
  -25   11   13      4.58     -0.56
  -23   11   13     -5.15      0.25
  -21   11   13     -0.67     -0.38
  -19   11   13     -0.71      0.00
  -17   11   13      1.91     -0.63
  -15   11   13     -1.98     -0.75
  -13   11   13      5.87      0.06
  -11   11   13    -32.08     -0.04
   -9   11   13      3.83      0.04
   -7   11   13      5.74      0.69
   -5   11   13     -9.72     -0.02
   -3   11   13     17.79     -0.09
   -1   11   13      2.84      0.02
    1   11   13    -34.53     -0.31
    3   11   13    -12.41     -0.21
    5   11   13      6.34     -0.38
    7   11   13    -11.05     -0.61
    9   11   13    -14.91      0.36
   11   11   13      9.33      0.18
   13   11   13      4.56     -0.16
   15   11   13     -4.87     -0.18
   17   11   13     -2.66     -0.16
   19   11   13      1.51      0.10
   21   11   13     -3.81     -0.16
  -26   12   13     -1.85     -0.08
  -24   12   13      5.31     -0.41
  -22   12   13      5.80      0.22
  -20   12   13      4.85     -0.41
  -18   12   13      7.87     -0.03
  -16   12   13     -3.26     -0.03
  -14   12   13     -9.38     -0.01
  -12   12   13    -10.05      0.28
  -10   12   13      9.08     -0.35
   -8   12   13     -0.74      0.71
   -6   12   13      8.90      0.89
   -4   12   13     -8.23      0.33
   -2   12   13    -22.55     -0.37
    0   12   13     -1.91     -0.33
    2   12   13     35.75     -0.85
    4   12   13     22.21     -0.27
    6   12   13      7.71      0.37
    8   12   13     -0.94     -0.22
   10   12   13     24.53     -0.43
   12   12   13     18.96      0.26
   14   12   13      5.99     -0.08
   16   12   13      3.84     -0.22
   18   12   13     -0.52      0.07
   20   12   13    -13.05     -0.10
  -27   13   13     -9.70      0.02
  -25   13   13     -8.47     -0.19
  -23   13   13     -9.06      0.13
  -21   13   13      1.87     -0.40
  -19   13   13     -4.40      0.22
  -17   13   13     -9.60     -0.05
  -15   13   13     -8.90      0.46
  -13   13   13     18.87      0.30
  -11   13   13     17.93      0.28
   -9   13   13     15.92      0.06
   -7   13   13    -20.49      0.22
   -5   13   13    -18.94      0.75
   -3   13   13     10.45      0.38
   -1   13   13      1.56      0.23
    1   13   13    -11.26     -0.64
    3   13   13     -1.10     -0.55
    5   13   13     -5.98     -0.24
    7   13   13     -1.53     -0.28
    9   13   13      8.16      0.01
   11   13   13      3.60      0.18
   13   13   13     -8.55     -1.14
   15   13   13     -0.85     -0.30
   17   13   13     -3.19     -0.20
   19   13   13    -10.66     -0.08
   21   13   13    -14.27     -0.17
  -26   14   13     -5.10     -0.08
  -24   14   13     -3.41      0.08
  -22   14   13      3.13      0.55
  -20   14   13     -7.57      0.20
  -18   14   13     -2.69      0.45
  -16   14   13      5.77      0.53
  -14   14   13     11.27     -0.23
  -12   14   13    -14.07      0.51
  -10   14   13    -10.64      0.04
   -8   14   13     17.77      1.37
   -6   14   13     15.82      0.57
   -4   14   13      9.33     -0.29
   -2   14   13     -1.75     -0.32
    0   14   13     -6.82     -0.81
    2   14   13    -31.43     -0.62
    4   14   13     11.43     -0.39
    6   14   13      8.78      0.28
    8   14   13     -0.17      0.59
   10   14   13     -3.08      0.16
   12   14   13     -5.36      0.54
   14   14   13    -12.68     -0.28
   16   14   13    -24.36     -0.31
   18   14   13    -14.63      0.21
   20   14   13    -17.54      0.09
  -25   15   13     -4.44      0.08
  -23   15   13     -7.69      0.03
  -21   15   13     13.68     -0.02
  -19   15   13     -0.21     -0.03
  -17   15   13      2.34     -0.22
  -15   15   13      1.90      0.27
  -13   15   13     -7.26     -0.12
  -11   15   13     -5.89      0.03
   -9   15   13     -8.21      0.08
   -7   15   13    -24.45     -0.13
   -5   15   13    -18.40      0.32
   -3   15   13    -16.50     -0.19
   -1   15   13     -2.87      0.22
    1   15   13     14.98     -0.54
    3   15   13      9.81     -0.31
    5   15   13     -0.75      0.88
    7   15   13     -2.48      0.25
    9   15   13      8.57     -0.62
   11   15   13     -0.44      0.89
   13   15   13     -2.63      0.02
   15   15   13      4.45      0.64
   17   15   13     12.03     -0.07
   19   15   13      0.00     -0.14
  -26   16   13     -7.07      0.12
  -24   16   13    -14.20      0.10
  -22   16   13      4.48     -0.26
  -20   16   13     -0.85     -0.43
  -18   16   13      8.78     -0.32
  -16   16   13      4.21      0.42
  -14   16   13     -1.69     -0.69
  -12   16   13      0.51     -0.38
  -10   16   13     16.85     -0.34
   -8   16   13     25.63      0.06
   -6   16   13    -11.60     -0.37
   -4   16   13     -8.81      0.00
   -2   16   13    -11.90      0.26
    0   16   13     11.92      0.04
    2   16   13      3.53      0.02
    4   16   13     18.10      0.13
    6   16   13     -2.43      0.49
    8   16   13     14.59     -0.41
   10   16   13     10.57     -0.64
   12   16   13     14.16      0.04
   14   16   13     13.27     -0.28
   16   16   13     -3.43      0.09
   18   16   13      3.27     -0.08
   20   16   13     -4.12     -0.42
  -25   17   13     -4.60      0.41
  -23   17   13    -11.23      0.33
  -21   17   13      3.94      0.12
  -19   17   13     -6.16      0.05
  -17   17   13      0.46      0.40
  -15   17   13     13.88      0.05
  -13   17   13      3.80      0.06
  -11   17   13     -7.54     -0.09
   -9   17   13      6.35      0.42
   -7   17   13     23.88      0.27
   -5   17   13      9.23     -0.31
   -3   17   13     -3.75     -0.08
   -1   17   13     11.99     -0.07
    1   17   13     12.01     -0.25
    3   17   13      9.89     -0.40
    5   17   13     14.05      0.17
    7   17   13    -11.19      0.66
    9   17   13     -4.58     -0.66
   11   17   13     -8.71      0.58
   13   17   13      0.05      0.11
   15   17   13     -1.36      0.12
   17   17   13     -1.44     -0.22
   19   17   13     -5.76      0.19
  -26   18   13     11.30      0.06
  -24   18   13      6.06      0.07
  -22   18   13      9.95     -0.06
  -20   18   13    -15.80     -0.22
  -18   18   13     -6.36     -0.47
  -16   18   13      9.09      0.44
  -14   18   13     -0.87     -0.02
  -12   18   13     -8.97     -0.08
  -10   18   13    -17.31      0.07
   -8   18   13    -12.32     -0.66
   -6   18   13    -22.76     -1.19
   -4   18   13     -1.96      0.07
   -2   18   13    -19.36      0.52
    0   18   13    -10.80      0.66
    2   18   13     -6.74      0.00
    4   18   13      1.74      0.82
    6   18   13     -9.62      0.98
    8   18   13      6.33     -0.08
   10   18   13    -12.02     -0.23
   12   18   13     -1.24      0.01
   14   18   13     13.25     -0.06
   16   18   13      5.23      0.36
   18   18   13      3.47      0.10
  -25   19   13      2.95      0.48
  -23   19   13      0.53      0.01
  -21   19   13      3.31     -0.29
  -19   19   13      9.99     -0.45
  -17   19   13     12.73     -0.19
  -15   19   13     14.65     -0.93
  -13   19   13     12.63     -0.37
  -11   19   13      0.41     -0.29
   -9   19   13      0.99     -0.85
   -7   19   13     16.68     -1.02
   -5   19   13      5.70     -1.17
   -3   19   13     -8.19     -0.50
   -1   19   13    -14.84      0.25
    1   19   13      2.42      0.62
    3   19   13     10.74     -0.45
    5   19   13      2.42     -0.36
    7   19   13     -5.08      0.18
    9   19   13      4.86     -0.77
   11   19   13     15.69      0.22
   13   19   13     22.17     -0.06
   15   19   13     14.63      0.08
   17   19   13     12.32     -0.17
   19   19   13     19.35     -0.06
  -24   20   13     -9.51      0.02
  -22   20   13    -10.89      0.11
  -20   20   13     -3.57     -0.14
  -18   20   13      0.63     -0.30
  -16   20   13      2.51      0.16
  -14   20   13      4.55      0.54
  -12   20   13      7.98      0.00
  -10   20   13      4.50     -0.06
   -8   20   13     24.94     -0.31
   -6   20   13      6.23     -0.53
   -4   20   13      0.20     -0.15
   -2   20   13      2.84     -0.46
    0   20   13     17.57     -0.44
    2   20   13     11.67     -0.32
    4   20   13      6.16     -0.14
    6   20   13    -12.52     -0.42
    8   20   13      3.07      0.30
   10   20   13     -0.91     -0.89
   12   20   13      7.60     -0.31
   14   20   13     14.49     -0.04
   16   20   13      9.38     -0.18
   18   20   13      2.31      0.23
  -25   21   13      1.25      0.17
  -23   21   13      9.45      0.05
  -21   21   13     -9.82      0.15
  -19   21   13     -9.55     -0.11
  -17   21   13     -0.43      0.28
  -15   21   13      3.71      0.17
  -13   21   13     -2.18      0.64
  -11   21   13     -4.41      0.87
   -9   21   13     -8.80      0.54
   -7   21   13     -9.86      1.62
   -5   21   13     -9.25      1.88
   -3   21   13     -7.85      0.35
   -1   21   13    -25.65      0.25
    1   21   13      0.40      0.33
    3   21   13     11.52      0.25
    5   21   13    -11.53      0.79
    7   21   13    -12.58     -0.11
    9   21   13    -22.34     -0.12
   11   21   13      1.61      0.48
   13   21   13      2.38     -0.17
   15   21   13      1.04      0.23
   17   21   13    -15.00      0.20
   19   21   13     -5.94     -0.04
  -24   22   13      8.82     -0.16
  -22   22   13     -2.80      0.19
  -20   22   13      7.56      0.18
  -18   22   13      2.03      0.09
  -16   22   13     -0.17     -0.11
  -14   22   13     17.13      0.18
  -12   22   13     17.56      0.14
  -10   22   13     -4.21     -0.51
   -8   22   13     -7.06     -0.73
   -6   22   13     -5.42      1.62
   -4   22   13      8.94     -0.56
   -2   22   13      5.72     -0.65
    0   22   13     -5.42     -0.13
    2   22   13    -17.55     -0.05
    4   22   13     -8.85      0.21
    6   22   13     -4.21     -0.33
    8   22   13      3.37      1.08
   10   22   13     -1.63     -0.51
   12   22   13     -0.23     -0.21
   14   22   13     -3.74     -0.09
   16   22   13      6.73     -0.44
   18   22   13      4.00     -0.10
  -23   23   13      4.38      0.02
  -21   23   13     -7.08      0.26
  -19   23   13     -3.55     -0.18
  -17   23   13     -3.40     -0.30
  -15   23   13      7.05     -0.06
  -13   23   13     -2.42      0.19
  -11   23   13     -1.37      0.08
   -9   23   13      2.99      0.10
   -7   23   13     -6.02      0.25
   -5   23   13      6.68      0.52
   -3   23   13     19.65     -0.26
   -1   23   13      9.78     -0.03
    1   23   13      1.12      0.19
    3   23   13     -7.31      0.17
    5   23   13     -7.92      0.08
    7   23   13     15.51      0.04
    9   23   13      4.40      0.46
   11   23   13      8.43      0.05
   13   23   13     -5.37      0.27
   15   23   13     15.15      0.11
   17   23   13      1.77     -0.03
  -24   24   13      3.20     -0.06
  -22   24   13      0.14      0.00
  -20   24   13     -1.93     -0.13
  -18   24   13      0.62      0.12
  -16   24   13      1.14      0.50
  -14   24   13     -1.45      0.20
  -12   24   13    -13.15      0.38
  -10   24   13     -1.78      0.34
   -8   24   13     -3.49      2.35
   -6   24   13    -11.52      7.77
   -4   24   13     -0.51      2.33
   -2   24   13     -5.08      0.54
    0   24   13     -3.53      0.26
    2   24   13      5.50      0.01
    4   24   13      4.92      0.72
    6   24   13     -0.61     -0.79
    8   24   13     -6.13     -0.06
   10   24   13      9.05      0.38
   12   24   13      8.73      0.41
   14   24   13    -16.57     -0.19
   16   24   13     -6.95      0.24
   18   24   13    -18.82      0.43
  -23   25   13     13.43      0.09
  -21   25   13     11.45      0.30
  -19   25   13      7.22      0.05
  -17   25   13     -7.15     -0.09
  -15   25   13     -5.35      0.10
  -13   25   13     -6.10      0.27
  -11   25   13      4.45      0.25
   -9   25   13      2.64      0.34
   -7   25   13    -27.39      0.96
   -5   25   13     -8.54      1.06
   -3   25   13      6.45     -0.13
   -1   25   13     16.14     -0.07
    1   25   13     -7.95      0.06
    3   25   13    -13.64      0.57
    5   25   13      0.33      0.26
    7   25   13      5.91      0.01
    9   25   13     -6.21     -0.70
   11   25   13     -9.48     -1.83
   13   25   13    -17.51     -0.32
   15   25   13      5.23      0.08
   17   25   13      3.04     -0.05
  -22   26   13      3.23      0.15
  -20   26   13    -11.36     -0.01
  -18   26   13     -1.63     -0.23
  -16   26   13      2.73      0.10
  -14   26   13      8.62     -0.05
  -12   26   13    -15.12     -0.04
  -10   26   13     -4.71     -0.52
   -8   26   13     -4.39     -0.60
   -6   26   13     -4.40      1.56
   -4   26   13     21.51     -0.71
   -2   26   13     10.16     -0.17
    0   26   13     -1.07      0.12
    2   26   13     -1.59     -0.20
    4   26   13     -5.54     -0.28
    6   26   13      5.39     -0.05
    8   26   13      1.31      0.57
   10   26   13     11.90      0.42
   12   26   13      7.85      0.14
   14   26   13     -0.53     -0.44
   16   26   13     17.49     -0.12
  -21   27   13     -2.58     -0.06
  -19   27   13    -11.06     -0.12
  -17   27   13     -0.85      0.18
  -15   27   13      0.15      0.35
  -13   27   13     -6.40      0.29
  -11   27   13     -5.13      0.43
   -9   27   13      5.80      0.45
   -7   27   13     -7.43      2.00
   -5   27   13      0.21      1.78
   -3   27   13      2.02      0.31
   -1   27   13     15.78      0.43
    1   27   13      2.36      0.10
    3   27   13     14.00      0.37
    5   27   13     17.38     -0.09
    7   27   13      6.79     -0.42
    9   27   13      0.74     -0.33
   11   27   13      5.98     -0.26
   13   27   13      7.80      0.15
   15   27   13     11.45      0.38
  -22   28   13      4.38      0.16
  -20   28   13     -6.18     -0.07
  -18   28   13      5.62     -0.33
  -16   28   13    -12.41     -0.01
  -14   28   13     -5.26      0.09
  -12   28   13    -11.25      0.14
  -10   28   13      3.94     -0.05
   -8   28   13     11.49     -0.16
   -6   28   13     -7.75     -0.62
   -4   28   13     -3.32      0.01
   -2   28   13     -8.37     -0.15
    0   28   13     -5.66     -0.02
    2   28   13      9.54      0.38
    4   28   13      7.52     -0.46
    6   28   13      2.34      0.11
    8   28   13    -11.48      0.03
   10   28   13     -0.45     -0.70
   12   28   13      9.04     -0.69
   14   28   13     11.17     -0.14
   16   28   13      8.79      0.07
  -21   29   13      2.43     -0.15
  -19   29   13    -10.17     -0.28
  -17   29   13      2.68     -0.09
  -15   29   13      6.11      0.07
  -13   29   13     16.04     -0.17
  -11   29   13      4.06     -0.23
   -9   29   13      1.75     -0.47
   -7   29   13     -0.73     -0.49
   -5   29   13      3.94     -0.67
   -3   29   13      2.42     -0.37
   -1   29   13      6.24      0.05
    1   29   13     -0.01     -0.04
    3   29   13      2.56      0.02
    5   29   13    -11.48      0.09
    7   29   13    -11.47      0.55
    9   29   13     -6.09     -0.17
   11   29   13      5.13     -0.09
   13   29   13      8.58     -0.36
   15   29   13      2.89     -0.20
  -20   30   13     -6.78      0.08
  -18   30   13      9.52     -0.10
  -16   30   13      6.67      0.00
  -14   30   13     13.75      0.12
  -12   30   13      9.40      0.41
  -10   30   13      4.25     -0.12
   -8   30   13      9.35      0.05
   -6   30   13     -5.36     -1.33
   -4   30   13      1.80      0.02
   -2   30   13     20.38     -0.20
    0   30   13      2.84      0.11
    2   30   13      7.84      0.80
    4   30   13      3.96      0.27
    6   30   13     10.98      0.56
    8   30   13      1.33     -0.06
   10   30   13     -2.59      0.21
   12   30   13     14.36     -0.03
   14   30   13     27.31     -0.06
  -19   31   13    -14.08     -0.23
  -17   31   13      1.85      0.13
  -15   31   13      2.32      0.10
  -13   31   13     12.66     -0.22
  -11   31   13      0.59      0.00
   -9   31   13      5.72      0.44
   -7   31   13      1.36     -0.21
   -5   31   13    -15.83     -0.10
   -3   31   13    -12.47      0.14
   -1   31   13     -2.82      0.15
    1   31   13      5.67      0.20
    3   31   13     15.36      0.04
    5   31   13      0.45     -0.56
    7   31   13     -2.74     -0.06
    9   31   13      3.86     -0.34
   11   31   13      6.63     -0.03
   13   31   13     16.42     -0.37
  -20   32   13      6.62     -0.13
  -18   32   13      7.17     -0.04
  -16   32   13      8.21      0.12
  -14   32   13      5.79      0.22
  -12   32   13      8.60      0.37
  -10   32   13      5.81     -0.54
   -8   32   13     -7.44      0.57
   -6   32   13     -5.91     -0.03
   -4   32   13    -14.76      0.34
   -2   32   13     -0.95      0.08
    0   32   13    -10.76      0.07
    2   32   13     -5.79      0.36
    4   32   13    -21.55     -0.05
    6   32   13     -2.69      0.13
    8   32   13      0.03     -0.71
   10   32   13      3.95     -0.09
   12   32   13     -0.19     -0.26
   14   32   13     -8.99     -0.23
  -19   33   13      1.56      0.24
  -17   33   13     15.95      0.12
  -15   33   13     14.59     -0.04
  -13   33   13      5.67     -0.16
  -11   33   13     -6.44      0.15
   -9   33   13      0.55      0.67
   -7   33   13    -13.55      0.17
   -5   33   13    -29.22      0.20
   -3   33   13     -1.53     -0.08
   -1   33   13      8.67      0.21
    1   33   13      2.78     -0.16
    3   33   13      5.20      0.30
    5   33   13     -3.22      0.33
    7   33   13     -2.97      0.29
    9   33   13      7.76      0.07
   11   33   13     -2.00      0.23
   13   33   13     10.07     -0.36
  -18   34   13     -5.62      0.15
  -16   34   13     -0.24      0.13
  -14   34   13     -8.08      0.04
  -12   34   13     -6.90      0.29
  -10   34   13     12.85     -0.41
   -8   34   13     -8.45      0.45
   -6   34   13     -6.28      0.48
   -4   34   13    -12.09      0.17
   -2   34   13      6.42     -0.11
    0   34   13     11.72     -0.31
    2   34   13     17.94     -0.22
    4   34   13      1.48     -0.26
    6   34   13      5.33      0.04
    8   34   13      0.68     -0.44
   10   34   13      8.24     -0.06
   12   34   13      3.74      0.02
  -17   35   13      8.98      0.14
  -15   35   13      6.91     -0.11
  -13   35   13    -11.99      0.40
  -11   35   13     -4.66      0.38
   -9   35   13      4.04      0.42
   -7   35   13     -8.59      0.39
   -5   35   13    -14.37      0.07
   -3   35   13    -11.50     -0.12
   -1   35   13      1.38      0.29
    1   35   13      3.30     -0.48
    3   35   13     -5.68     -0.28
    5   35   13     -4.74     -0.04
    7   35   13     -6.91     -0.24
    9   35   13     -1.65      0.04
   11   35   13    -12.87      0.31
  -16   36   13     -4.47      0.08
  -14   36   13     -7.58     -0.16
  -12   36   13    -20.25     -0.25
  -10   36   13     -7.12      0.05
   -8   36   13     -8.25      0.62
   -6   36   13     -8.27      0.77
   -4   36   13     -5.68     -0.02
   -2   36   13     -1.26     -0.22
    0   36   13     -2.47      0.21
    2   36   13      8.21     -0.16
    4   36   13      1.37     -0.16
    6   36   13     -6.30      0.32
    8   36   13     -2.45      0.38
   10   36   13      1.07      0.15
  -15   37   13      0.95     -0.25
  -13   37   13    -17.36      0.38
  -11   37   13     -3.71     -0.19
   -9   37   13      6.44     -0.17
   -7   37   13     -6.91      0.16
   -5   37   13      7.10     -0.38
   -3   37   13     11.69     -0.42
   -1   37   13     16.64     -0.21
    1   37   13     16.39      0.00
    3   37   13      4.28      0.17
    5   37   13      2.52      0.54
    7   37   13      2.29      0.04
    9   37   13     -3.25     -0.33
  -14   38   13     11.16     -0.12
  -12   38   13      3.39      0.29
  -10   38   13    -12.95      0.69
   -8   38   13      6.00      0.14
   -6   38   13     12.86      0.36
   -4   38   13     10.62     -0.01
   -2   38   13     -1.62     -0.11
    0   38   13     -1.27      0.17
    2   38   13      2.81     -0.26
    4   38   13      0.24     -0.08
    6   38   13     -4.58     -0.09
    8   38   13     -3.97      0.06
  -13   39   13    -11.82      0.10
  -11   39   13     -6.63     -0.50
   -9   39   13     11.77     -0.01
   -7   39   13      0.87      0.22
   -5   39   13     -3.51      0.07
   -3   39   13      0.57     -0.29
   -1   39   13     -4.85     -0.36
    1   39   13     -4.76      0.40
    3   39   13     -6.21     -0.06
    5   39   13     -7.91     -0.01
    7   39   13      8.39     -0.07
  -12   40   13      6.30     -0.14
  -10   40   13    -15.88      0.10
   -8   40   13      5.04     -0.06
   -6   40   13     -0.81      0.19
   -4   40   13      4.50     -0.68
   -2   40   13     -3.18     -0.54
    0   40   13     -9.63      0.04
    2   40   13      3.47      0.03
    4   40   13     -1.24     -0.13
    6   40   13      0.44     -0.32
  -11   41   13     -6.11      0.01
   -9   41   13     -7.04      0.10
   -7   41   13      5.21     -0.37
   -5   41   13     -0.20      0.06
   -3   41   13     -1.77     -0.33
   -1   41   13     -7.69     -0.63
    1   41   13    -10.47     -0.17
    3   41   13     -4.49     -0.10
    5   41   13      1.77     -0.12
  -10   42   13     -9.26      0.20
   -8   42   13     14.45     -0.33
   -6   42   13     -3.50      0.23
   -4   42   13     -4.16      0.10
   -2   42   13     -5.86      0.21
    0   42   13    -17.75     -0.04
    2   42   13      0.63     -0.18
    4   42   13     -6.97     -0.17
   -7   43   13      5.80     -0.05
   -5   43   13    -11.97      0.28
   -3   43   13     -4.78     -0.04
   -1   43   13      1.40      0.06
    1   43   13      1.11      0.05
  -28    0   14    -13.92      0.45
  -26    0   14     -6.08      0.25
  -24    0   14      3.82     -1.00
  -22    0   14      9.24     -0.11
  -20    0   14     12.93     -0.05
  -18    0   14     23.68     -0.44
  -16    0   14     10.99     -0.38
  -14    0   14     -5.45     -0.13
  -12    0   14     35.43      0.33
  -10    0   14     34.36      0.31
   -8    0   14     14.23     -0.23
   -6    0   14     23.59     -0.16
   -4    0   14     40.96      0.42
   -2    0   14      5.84      0.58
    0    0   14     -6.88      0.34
    2    0   14     12.05      0.03
    4    0   14      4.80     -0.06
    6    0   14    -24.13      0.13
    8    0   14    -16.13     -0.07
   10    0   14    -35.54     -0.20
   12    0   14     -7.62     -0.33
   14    0   14      7.46      0.54
   16    0   14     -4.43     -0.08
   18    0   14     -8.38     -0.13
   20    0   14     -6.90     -0.12
  -27    1   14    -11.69     -0.18
  -25    1   14      2.35     -0.59
  -23    1   14     -9.47      0.20
  -21    1   14     -4.93     -0.12
  -19    1   14     -1.06     -0.68
  -17    1   14    -18.06      1.73
  -15    1   14     -4.68      1.27
  -13    1   14     -0.62      0.21
  -11    1   14     -8.50      0.53
   -9    1   14    -28.08      0.69
   -7    1   14      3.99     -0.66
   -5    1   14    -15.11      0.09
   -3    1   14     -3.12      0.25
   -1    1   14    -36.24      0.00
    1    1   14    -28.61      0.28
    3    1   14    -23.29     -0.30
    5    1   14     23.94      0.15
    7    1   14     -4.55     -0.17
    9    1   14    -14.07     -0.11
   11    1   14     -9.26      0.42
   13    1   14      6.60     -0.18
   15    1   14      7.70     -0.38
   17    1   14    -15.13     -0.48
   19    1   14     -5.64     -0.42
   21    1   14     -0.60     -0.25
  -28    2   14     -6.56     -0.17
  -26    2   14     -2.67     -0.47
  -24    2   14     -3.93     -0.11
  -22    2   14     -6.11     -0.08
  -20    2   14     -4.97      0.07
  -18    2   14    -14.84      1.00
  -16    2   14    -23.08     -1.37
  -14    2   14     -8.86     -0.31
  -12    2   14      9.73      1.10
  -10    2   14    -22.68      0.02
   -8    2   14    -26.01      0.36
   -6    2   14    -26.66      0.38
   -4    2   14    -14.94      0.38
   -2    2   14      6.47      0.50
    0    2   14    -11.86      0.25
    2    2   14    -31.59      0.13
    4    2   14     -5.58     -0.30
    6    2   14      8.20     -0.23
    8    2   14      8.71     -0.14
   10    2   14    -18.29     -0.17
   12    2   14     -5.64     -0.08
   14    2   14      0.00      0.03
   16    2   14     -1.91     -0.41
   18    2   14     -1.71     -0.01
   20    2   14     -7.59     -0.05
  -27    3   14     -7.88      0.68
  -25    3   14     10.31     -0.13
  -23    3   14      4.48     -0.45
  -21    3   14     -3.53     -0.09
  -19    3   14      5.02     -0.94
  -17    3   14     13.10      1.94
  -15    3   14     14.90      0.94
  -13    3   14     12.08      1.14
  -11    3   14     38.24      0.87
   -9    3   14     17.95     -0.03
   -7    3   14     20.29     -0.71
   -5    3   14     28.31      0.43
   -3    3   14     19.06      0.49
   -1    3   14    -21.47      0.03
    1    3   14      7.87     -0.24
    3    3   14      6.14     -0.37
    5    3   14      1.00      0.10
    7    3   14     -5.34     -0.47
    9    3   14     -0.85      0.18
   11    3   14     -5.96      0.26
   13    3   14     -2.29      0.14
   15    3   14      5.83      0.19
   17    3   14     -5.72     -0.05
   19    3   14     -0.53      0.12
   21    3   14      1.13     -0.10
  -28    4   14     -4.74     -0.35
  -26    4   14      5.82     -0.54
  -24    4   14      5.23      0.23
  -22    4   14      1.54      0.43
  -20    4   14     20.96     -0.09
  -18    4   14      5.49      0.48
  -16    4   14     -6.60      0.10
  -14    4   14      4.88      0.95
  -12    4   14     -1.91      0.42
  -10    4   14     -6.91      0.07
   -8    4   14     35.97     -0.04
   -6    4   14     18.91      0.13
   -4    4   14    -28.51      0.33
   -2    4   14     -3.93     -0.45
    0    4   14     15.75     -0.39
    2    4   14      9.19      0.05
    4    4   14     23.84      0.29
    6    4   14     14.50      0.28
    8    4   14      5.06      0.44
   10    4   14      5.45      0.06
   12    4   14      9.17     -0.17
   14    4   14      5.29      0.12
   16    4   14     -3.51     -0.35
   18    4   14      0.49     -0.15
   20    4   14      8.15     -0.11
  -27    5   14      0.80     -0.36
  -25    5   14      6.36      0.33
  -23    5   14     -2.01     -0.23
  -21    5   14     -4.95     -0.01
  -19    5   14     -9.01     -0.24
  -17    5   14    -17.97      0.38
  -15    5   14    -11.75     -0.52
  -13    5   14      1.02      1.24
  -11    5   14      7.24      0.22
   -9    5   14      1.06     -0.72
   -7    5   14    -14.15      0.33
   -5    5   14    -38.02      0.40
   -3    5   14    -13.14      0.14
   -1    5   14     32.47      0.01
    1    5   14     29.58     -0.10
    3    5   14     10.29      0.11
    5    5   14     -0.73     -0.05
    7    5   14      9.73      0.25
    9    5   14     -0.08      0.18
   11    5   14      6.03     -0.16
   13    5   14     -8.72      0.14
   15    5   14     -4.50     -0.15
   17    5   14      9.10     -0.09
   19    5   14      7.38      0.47
   21    5   14     -2.00     -0.05
  -26    6   14      5.53      0.34
  -24    6   14     13.29      0.00
  -22    6   14     -9.90      0.39
  -20    6   14     -9.21      0.09
  -18    6   14     -0.14     -0.80
  -16    6   14      5.46     -0.52
  -14    6   14     -5.33      0.38
  -12    6   14     -9.07     -0.25
  -10    6   14     -4.17      0.04
   -8    6   14      5.95     -0.24
   -6    6   14     26.11      0.26
   -4    6   14      5.34      0.72
   -2    6   14    -28.91     -0.12
    0    6   14    -32.73     -0.13
    2    6   14    -11.34     -0.26
    4    6   14      6.54      0.27
    6    6   14      6.63      0.84
    8    6   14     12.08      1.28
   10    6   14     13.04      0.63
   12    6   14     -8.81     -0.24
   14    6   14     -8.67      0.34
   16    6   14     -4.58      0.03
   18    6   14     -1.96      0.18
   20    6   14     16.52      0.29
  -27    7   14      8.54     -0.23
  -25    7   14     17.31      0.19
  -23    7   14      3.06     -0.25
  -21    7   14     10.95     -0.07
  -19    7   14     11.04     -0.58
  -17    7   14    -10.67     -1.36
  -15    7   14      5.01     -0.69
  -13    7   14     17.62      0.28
  -11    7   14    -17.77     -0.06
   -9    7   14     10.28     -0.70
   -7    7   14      8.10      0.28
   -5    7   14    -24.87      0.10
   -3    7   14     -4.34      0.03
   -1    7   14     56.33      0.19
    1    7   14      5.97      0.09
    3    7   14      3.43      0.80
    5    7   14      5.68     -0.27
    7    7   14      9.33      0.46
    9    7   14     -7.28      0.12
   11    7   14     17.37     -0.32
   13    7   14      3.23      0.17
   15    7   14     -0.10      0.18
   17    7   14      6.38     -0.29
   19    7   14     23.32      0.12
   21    7   14     10.79      0.23
  -26    8   14     -5.91     -0.18
  -24    8   14      1.68     -0.30
  -22    8   14     -3.16     -0.25
  -20    8   14     -3.27      0.05
  -18    8   14      9.19     -0.33
  -16    8   14      0.05      0.12
  -14    8   14    -19.45      0.02
  -12    8   14     -2.98     -0.38
  -10    8   14     11.11     -0.23
   -8    8   14     11.29     -0.27
   -6    8   14      7.08     -0.05
   -4    8   14    -26.18     -0.03
   -2    8   14    -18.27     -0.15
    0    8   14     12.48      0.30
    2    8   14     37.23      0.16
    4    8   14     17.83     -0.13
    6    8   14      1.64      0.89
    8    8   14     -6.99      0.32
   10    8   14      4.54     -0.61
   12    8   14      7.34     -0.09
   14    8   14     -5.09      0.47
   16    8   14     -2.75      0.03
   18    8   14      2.45      0.01
   20    8   14      7.47      0.10
  -27    9   14     -4.18      0.39
  -25    9   14     10.41      0.27
  -23    9   14     -2.07      0.26
  -21    9   14    -10.05      0.40
  -19    9   14     -4.92      0.20
  -17    9   14     -5.13     -0.83
  -15    9   14    -11.14      0.15
  -13    9   14     -5.50     -0.75
  -11    9   14    -27.12     -0.53
   -9    9   14     -5.96     -0.77
   -7    9   14    -21.12     -0.14
   -5    9   14     -3.54      0.42
   -3    9   14    -16.52     -0.04
   -1    9   14     -4.10      0.19
    1    9   14    -39.91      0.48
    3    9   14     -6.26      1.17
    5    9   14    -12.08     -0.11
    7    9   14    -15.44      0.22
    9    9   14    -15.72      0.64
   11    9   14     -2.04      0.22
   13    9   14     -8.43     -0.33
   15    9   14     -0.06      0.02
   17    9   14     -8.29     -0.21
   19    9   14      7.90      0.05
   21    9   14     14.66      0.37
  -26   10   14      9.04     -0.18
  -24   10   14     13.88     -0.24
  -22   10   14      5.54     -0.16
  -20   10   14     -6.82     -0.21
  -18   10   14     -3.41     -0.21
  -16   10   14     -5.33      0.25
  -14   10   14      8.18     -0.57
  -12   10   14      2.50     -0.25
  -10   10   14    -13.92     -0.26
   -8   10   14      6.33      0.09
   -6   10   14      6.00     -0.24
   -4   10   14    -16.18     -0.30
   -2   10   14     18.62      0.39
    0   10   14    -13.59      0.05
    2   10   14    -18.11      0.62
    4   10   14     -3.76     -0.86
    6   10   14     21.60     -0.49
    8   10   14     -2.47     -0.33
   10   10   14    -10.30     -0.85
   12   10   14      3.24      0.02
   14   10   14     -3.21      0.21
   16   10   14    -13.80      0.04
   18   10   14      1.97     -0.23
   20   10   14     13.01      0.43
  -27   11   14     -7.33      0.10
  -25   11   14      1.09     -0.17
  -23   11   14      2.13     -0.05
  -21   11   14      4.17     -0.07
  -19   11   14      3.58      0.14
  -17   11   14     16.62     -0.52
  -15   11   14     -4.86      0.49
  -13   11   14      7.68     -0.40
  -11   11   14      7.04      0.31
   -9   11   14      9.66     -0.19
   -7   11   14    -14.54     -0.61
   -5   11   14     26.47      0.35
   -3   11   14      1.79     -0.24
   -1   11   14     11.57      0.35
    1   11   14      5.35      0.49
    3   11   14     14.39     -0.12
    5   11   14     -7.11     -0.27
    7   11   14     -4.61     -0.73
    9   11   14      3.55     -0.10
   11   11   14      4.70      0.41
   13   11   14      7.36      0.36
   15   11   14      2.21      0.27
   17   11   14      4.10      0.01
   19   11   14     -5.25      0.20
  -26   12   14     -5.87      0.03
  -24   12   14     -2.35     -0.17
  -22   12   14     -2.62      0.15
  -20   12   14      5.41      0.00
  -18   12   14     10.53      0.15
  -16   12   14    -13.95      0.61
  -14   12   14    -16.26     -0.11
  -12   12   14    -13.04     -0.12
  -10   12   14     -4.91     -0.43
   -8   12   14      3.60     -0.02
   -6   12   14     -9.50      0.05
   -4   12   14    -23.19      0.46
   -2   12   14     24.50      0.41
    0   12   14     -5.92      0.21
    2   12   14      1.02      2.43
    4   12   14    -16.88      0.49
    6   12   14    -12.42     -1.16
    8   12   14    -14.82     -0.69
   10   12   14    -11.11     -0.50
   12   12   14     -0.67      0.10
   14   12   14      9.74     -0.07
   16   12   14     -2.71      0.39
   18   12   14     -4.27     -0.24
   20   12   14      8.82     -0.02
  -25   13   14      3.35     -0.20
  -23   13   14     -5.60     -0.16
  -21   13   14     -0.53     -0.34
  -19   13   14     -6.76     -0.03
  -17   13   14      5.41     -0.06
  -15   13   14     -6.20      0.60
  -13   13   14     -2.07      0.69
  -11   13   14    -24.48      0.57
   -9   13   14     -0.09      0.20
   -7   13   14      4.14      0.54
   -5   13   14      5.16      0.71
   -3   13   14    -22.29     -0.15
   -1   13   14     -6.39     -0.18
    1   13   14     -9.82      0.00
    3   13   14     -3.37     -0.34
    5   13   14      8.69     -0.26
    7   13   14      0.76     -0.98
    9   13   14     -6.47     -0.34
   11   13   14     -7.69     -0.45
   13   13   14      8.51      0.29
   15   13   14    -11.36      0.08
   17   13   14     -3.83     -0.30
   19   13   14    -11.16      0.27
  -26   14   14     -6.56      0.09
  -24   14   14      4.65     -0.40
  -22   14   14      6.20      0.23
  -20   14   14      7.10      0.25
  -18   14   14     -1.87     -0.26
  -16   14   14     -4.65     -0.04
  -14   14   14      1.60      0.15
  -12   14   14     14.03      0.62
  -10   14   14     11.41      0.66
   -8   14   14    -19.99     -0.13
   -6   14   14     -3.72     -0.13
   -4   14   14     14.39      0.52
   -2   14   14     33.15     -0.10
    0   14   14      2.38     -0.38
    2   14   14      2.81      0.05
    4   14   14    -18.35     -0.48
    6   14   14      4.76     -0.57
    8   14   14     26.66      0.21
   10   14   14      4.68     -0.17
   12   14   14     -6.42      0.02
   14   14   14     -3.28     -0.44
   16   14   14      8.69      0.22
   18   14   14      2.47      0.02
   20   14   14      3.04      0.07
  -25   15   14     -1.09      0.04
  -23   15   14     -9.22      0.03
  -21   15   14     -0.08      0.05
  -19   15   14      4.64      0.25
  -17   15   14      5.88     -0.01
  -15   15   14      1.78     -0.33
  -13   15   14     14.30      0.35
  -11   15   14     -5.32      0.34
   -9   15   14     10.72      0.14
   -7   15   14     13.55      0.04
   -5   15   14     -2.58      0.01
   -3   15   14      8.07      0.08
   -1   15   14     17.24      0.07
    1   15   14      4.12      0.85
    3   15   14     -6.47      0.49
    5   15   14      6.65     -0.04
    7   15   14      8.24     -0.21
    9   15   14      0.98      0.80
   11   15   14     -6.73      0.18
   13   15   14      3.91      0.51
   15   15   14      3.35      0.33
   17   15   14      6.74     -0.18
   19   15   14      7.29      0.07
  -26   16   14     -1.20     -0.09
  -24   16   14     -5.17     -0.51
  -22   16   14    -12.73      0.11
  -20   16   14     -1.88      0.01
  -18   16   14     -3.80      0.02
  -16   16   14      3.20      0.12
  -14   16   14     -1.38      0.34
  -12   16   14     -8.96      0.20
  -10   16   14     -9.91     -0.36
   -8   16   14     -0.96      0.31
   -6   16   14      7.74      0.80
   -4   16   14    -21.89      0.19
   -2   16   14    -17.69     -0.63
    0   16   14      1.04     -0.82
    2   16   14     -2.70     -0.07
    4   16   14     -4.13     -0.04
    6   16   14     -6.77     -0.21
    8   16   14      7.54      0.78
   10   16   14     -3.33     -0.80
   12   16   14      2.74     -0.08
   14   16   14     -7.96     -0.31
   16   16   14      7.15     -0.06
   18   16   14     -1.13      0.17
  -25   17   14     -0.26      0.18
  -23   17   14      2.90     -0.14
  -21   17   14     -4.89      0.20
  -19   17   14    -10.05      0.20
  -17   17   14    -12.95      0.18
  -15   17   14     -9.50     -0.12
  -13   17   14      7.14      0.00
  -11   17   14     14.19      0.08
   -9   17   14     -4.60     -0.05
   -7   17   14    -11.66     -0.83
   -5   17   14    -14.76     -0.50
   -3   17   14      7.07     -0.40
   -1   17   14     -3.97     -0.55
    1   17   14      5.60      0.07
    3   17   14      0.68     -0.37
    5   17   14     -1.94      0.52
    7   17   14      7.97      0.52
    9   17   14     -5.73      0.66
   11   17   14     -8.75     -0.06
   13   17   14    -11.75     -0.50
   15   17   14      3.27      0.18
   17   17   14      5.84     -0.27
   19   17   14     17.10     -0.12
  -24   18   14     13.69      0.16
  -22   18   14     -6.00      0.39
  -20   18   14     -7.35      0.12
  -18   18   14     -5.44      0.40
  -16   18   14     -3.27     -0.11
  -14   18   14     15.54     -0.18
  -12   18   14     19.36      0.13
  -10   18   14     -7.02     -0.59
   -8   18   14     16.53     -0.63
   -6   18   14     34.52     -0.87
   -4   18   14     27.05     -0.92
   -2   18   14     12.54      0.27
    0   18   14      5.12      0.07
    2   18   14    -21.97      0.41
    4   18   14      3.03     -0.23
    6   18   14      4.68      0.89
    8   18   14     16.34      3.24
   10   18   14     -8.08      0.80
   12   18   14     -1.63      0.95
   14   18   14    -12.32      0.18
   16   18   14     -0.04      0.16
   18   18   14     -9.76      0.46
  -25   19   14      6.51     -0.18
  -23   19   14      5.01     -0.49
  -21   19   14    -10.78     -0.08
  -19   19   14    -12.26     -0.18
  -17   19   14    -13.73      0.01
  -15   19   14     -0.47     -0.19
  -13   19   14     -0.61     -0.24
  -11   19   14     -1.77     -0.64
   -9   19   14    -23.93     -0.10
   -7   19   14      9.41     -1.20
   -5   19   14      5.14     -1.24
   -3   19   14      8.66      0.18
   -1   19   14     -3.32     -0.17
    1   19   14     -7.21      0.79
    3   19   14    -11.25      0.27
    5   19   14    -11.34     -0.11
    7   19   14     -1.38      0.18
    9   19   14     -4.88      0.31
   11   19   14      3.92      0.28
   13   19   14     -6.06     -0.25
   15   19   14     11.16      0.14
   17   19   14      4.58     -0.20
   19   19   14     19.66      0.01
  -24   20   14      3.25      0.10
  -22   20   14     -1.89     -0.24
  -20   20   14     -0.31     -0.25
  -18   20   14     14.20      0.11
  -16   20   14    -13.26      0.17
  -14   20   14    -22.51     -0.20
  -12   20   14     -6.85      0.06
  -10   20   14     -9.93     -0.20
   -8   20   14      6.65     -0.36
   -6   20   14     -7.11      0.41
   -4   20   14    -10.18     -0.15
   -2   20   14    -30.76     -0.08
    0   20   14    -11.80      0.21
    2   20   14      2.52      0.25
    4   20   14      6.54     -0.03
    6   20   14    -16.28      0.03
    8   20   14     -9.03      0.60
   10   20   14    -12.48     -0.15
   12   20   14     11.62      0.14
   14   20   14     -0.48     -0.36
   16   20   14     -1.67      0.06
   18   20   14     -3.14     -0.04
  -23   21   14      1.38      0.08
  -21   21   14      2.23      0.33
  -19   21   14     13.46      0.13
  -17   21   14    -15.84     -0.05
  -15   21   14     -4.89     -0.21
  -13   21   14      8.78      0.40
  -11   21   14     16.52      0.48
   -9   21   14    -12.26      0.80
   -7   21   14     11.51     -0.61
   -5   21   14      0.78     -0.98
   -3   21   14      7.27      0.85
   -1   21   14     13.39     -0.37
    1   21   14     -6.40      0.09
    3   21   14    -13.13     -0.14
    5   21   14    -11.52     -0.43
    7   21   14     -7.03      1.31
    9   21   14     -6.30      0.26
   11   21   14     -3.10      0.06
   13   21   14    -15.43      0.38
   15   21   14     -8.43      0.36
   17   21   14    -10.98      0.12
  -24   22   14      9.66     -0.11
  -22   22   14      9.04     -0.23
  -20   22   14     -3.10     -0.11
  -18   22   14      5.70     -0.06
  -16   22   14     -0.83      0.39
  -14   22   14      1.60      0.30
  -12   22   14     -8.33      0.17
  -10   22   14    -13.44      0.11
   -8   22   14      2.64     -0.65
   -6   22   14     -8.65     -0.82
   -4   22   14      8.79      0.30
   -2   22   14     -1.70      0.14
    0   22   14     -7.61      0.53
    2   22   14     -8.22      0.18
    4   22   14      1.79      0.24
    6   22   14      5.11     -0.30
    8   22   14      7.05     -0.38
   10   22   14      3.24      0.18
   12   22   14      9.37      0.37
   14   22   14      8.97     -0.28
   16   22   14      7.67     -0.30
   18   22   14     -2.27     -0.22
  -23   23   14     -4.76      0.04
  -21   23   14      5.79      0.05
  -19   23   14     17.73      0.11
  -17   23   14     -3.82      0.13
  -15   23   14      2.49     -0.10
  -13   23   14     -9.20      0.17
  -11   23   14     -4.18      0.80
   -9   23   14    -12.89     -0.24
   -7   23   14     -7.25     -0.08
   -5   23   14    -22.23      0.40
   -3   23   14    -23.31      0.20
   -1   23   14     -6.25      0.04
    1   23   14     -4.41      0.22
    3   23   14      4.69      0.01
    5   23   14     -0.40     -0.40
    7   23   14     -6.02     -0.38
    9   23   14     -1.31     -1.04
   11   23   14      5.86      0.48
   13   23   14     -2.50      0.48
   15   23   14     -4.11     -0.04
   17   23   14      1.24      0.12
  -22   24   14     -1.06      0.34
  -20   24   14      9.42      0.32
  -18   24   14      5.17     -0.08
  -16   24   14     -6.49     -0.01
  -14   24   14     -0.99      0.23
  -12   24   14    -12.30      0.00
  -10   24   14      1.14      0.41
   -8   24   14      2.11      0.26
   -6   24   14    -27.18     -0.78
   -4   24   14    -14.52      1.06
   -2   24   14      4.74     -0.24
    0   24   14     13.73     -0.55
    2   24   14     -6.85     -0.53
    4   24   14    -11.44     -0.23
    6   24   14     -9.03     -0.06
    8   24   14     -4.94      0.16
   10   24   14      5.59     -0.23
   12   24   14    -13.35      0.34
   14   24   14    -20.35      0.48
   16   24   14    -12.85     -0.16
  -23   25   14      7.31      0.25
  -21   25   14     14.60      0.06
  -19   25   14      3.45     -0.05
  -17   25   14     -3.30     -0.10
  -15   25   14      8.00      0.03
  -13   25   14    -12.73     -0.01
  -11   25   14    -11.70      0.75
   -9   25   14      8.96     -0.42
   -7   25   14      4.51     -0.41
   -5   25   14     -7.01      0.51
   -3   25   14     -5.49      0.09
   -1   25   14      9.78      0.40
    1   25   14     13.00     -0.09
    3   25   14     22.79      0.24
    5   25   14     16.03      0.87
    7   25   14      3.34      0.00
    9   25   14      7.33     -0.80
   11   25   14      7.57      0.44
   13   25   14      1.87      0.17
   15   25   14      4.51     -0.46
   17   25   14      9.92      0.25
  -22   26   14     -3.76      0.13
  -20   26   14      1.72      0.14
  -18   26   14     -9.43     -0.12
  -16   26   14      2.69     -0.38
  -14   26   14      8.26     -0.29
  -12   26   14     -6.66     -0.04
  -10   26   14     -0.47     -0.38
   -8   26   14      1.72     -0.99
   -6   26   14     -4.80     -1.44
   -4   26   14     -0.58     -0.08
   -2   26   14     11.34     -0.13
    0   26   14      6.70      0.03
    2   26   14     -5.31      0.14
    4   26   14     10.02      0.21
    6   26   14      9.93     -0.08
    8   26   14     -1.15     -0.16
   10   26   14      5.91      0.03
   12   26   14     -1.70      0.54
   14   26   14      2.11      0.07
   16   26   14      5.69     -0.42
  -21   27   14     -5.91      0.16
  -19   27   14    -13.68      0.10
  -17   27   14     -2.21     -0.24
  -15   27   14     -1.70      0.00
  -13   27   14    -10.53     -0.17
  -11   27   14    -18.87      0.41
   -9   27   14      2.84      0.44
   -7   27   14      4.20     -1.37
   -5   27   14      4.08     -0.85
   -3   27   14     -0.46      0.27
   -1   27   14      5.33      0.21
    1   27   14      4.06     -0.45
    3   27   14      2.27     -0.51
    5   27   14     -0.06     -0.15
    7   27   14     -9.03      0.40
    9   27   14     -1.19      0.44
   11   27   14    -12.14      0.12
   13   27   14     -7.32      0.50
   15   27   14     -6.22      0.02
  -22   28   14     -3.41     -0.12
  -20   28   14      3.30      0.00
  -18   28   14    -11.43     -0.28
  -16   28   14     -0.49     -0.37
  -14   28   14     -2.83     -0.13
  -12   28   14     -2.82      0.33
  -10   28   14     -4.54     -0.06
   -8   28   14      9.25      0.05
   -6   28   14     23.85      0.23
   -4   28   14      5.86      0.10
   -2   28   14      7.35      0.44
    0   28   14      4.31     -0.16
    2   28   14     15.58     -0.01
    4   28   14     18.34     -0.05
    6   28   14      6.27      0.25
    8   28   14      0.95     -0.17
   10   28   14     10.10      0.11
   12   28   14     12.56      0.34
   14   28   14      2.64     -0.43
  -21   29   14      1.54      0.00
  -19   29   14     -5.34      0.01
  -17   29   14     11.40     -0.28
  -15   29   14     -1.59     -0.31
  -13   29   14     12.62     -0.69
  -11   29   14      5.71     -0.30
   -9   29   14      6.94      0.33
   -7   29   14     11.88     -1.43
   -5   29   14      3.23     -0.98
   -3   29   14      0.93      0.30
   -1   29   14     -4.04     -0.06
    1   29   14    -12.79     -0.29
    3   29   14     -0.20      0.24
    5   29   14      9.91      0.15
    7   29   14      1.65      0.13
    9   29   14     -6.65      0.60
   11   29   14    -14.75     -0.12
   13   29   14     20.99      0.25
   15   29   14      9.69      0.04
  -20   30   14    -10.89      0.17
  -18   30   14     -8.69      0.00
  -16   30   14     -5.21      0.21
  -14   30   14      1.27      0.33
  -12   30   14     12.25      0.67
  -10   30   14    -13.53      0.35
   -8   30   14     -3.67      0.10
   -6   30   14     27.80     -0.46
   -4   30   14      5.32     -0.54
   -2   30   14     -4.71      0.20
    0   30   14    -14.71     -0.27
    2   30   14     -4.83      0.19
    4   30   14     -6.77     -0.56
    6   30   14     -6.85      0.17
    8   30   14     -8.49      0.33
   10   30   14    -10.27      0.29
   12   30   14     -0.71      0.38
   14   30   14     -5.06     -0.06
  -19   31   14    -11.18      0.11
  -17   31   14      0.50     -0.12
  -15   31   14     -6.51     -0.09
  -13   31   14     15.58     -0.16
  -11   31   14      8.60      0.03
   -9   31   14    -12.75      0.32
   -7   31   14      4.99     -0.23
   -5   31   14      2.03     -0.24
   -3   31   14      7.69      0.03
   -1   31   14      7.41     -0.22
    1   31   14     -4.75     -0.45
    3   31   14     -6.02      0.01
    5   31   14     -9.67      0.04
    7   31   14      3.57     -0.20
    9   31   14     -7.71      0.32
   11   31   14     -8.07      0.03
   13   31   14     10.21      0.02
  -20   32   14      0.59     -0.20
  -18   32   14      7.54     -0.40
  -16   32   14     -6.68      0.11
  -14   32   14     -0.37     -0.34
  -12   32   14      5.32     -0.45
  -10   32   14     -9.12     -0.40
   -8   32   14     12.06      0.02
   -6   32   14     15.14      0.29
   -4   32   14    -12.08      0.17
   -2   32   14    -17.99     -0.21
    0   32   14    -30.35     -0.03
    2   32   14    -13.16      0.55
    4   32   14     -3.79     -0.11
    6   32   14     -0.85      0.13
    8   32   14     -2.33      0.56
   10   32   14     -6.17      0.43
   12   32   14      6.09      0.41
  -19   33   14     -6.60     -0.04
  -17   33   14     -6.30      0.03
  -15   33   14     -5.83      0.08
  -13   33   14      6.93      0.49
  -11   33   14      3.82      0.64
   -9   33   14    -15.62      0.25
   -7   33   14      2.26      0.27
   -5   33   14      7.72      0.22
   -3   33   14     -1.43      0.09
   -1   33   14     -4.73     -0.03
    1   33   14     -9.82      0.03
    3   33   14     -3.20      0.39
    5   33   14     -5.32      0.47
    7   33   14      4.71      0.08
    9   33   14     -7.11     -0.23
   11   33   14      8.08     -0.23
  -18   34   14      6.48     -0.28
  -16   34   14     -6.04     -0.11
  -14   34   14      9.55     -0.26
  -12   34   14      5.77      0.30
  -10   34   14     -6.95      0.22
   -8   34   14      9.56      0.23
   -6   34   14      4.98      0.55
   -4   34   14      1.44      0.43
   -2   34   14      3.33     -0.22
    0   34   14     -5.60     -0.02
    2   34   14     -2.62     -0.12
    4   34   14     -6.72     -0.25
    6   34   14      0.91     -0.28
    8   34   14     -2.63      0.16
   10   34   14     -2.93      0.05
   12   34   14     -3.73      0.25
  -17   35   14     -2.98      0.09
  -15   35   14      1.63     -0.01
  -13   35   14     -2.35     -0.07
  -11   35   14     -8.32     -0.13
   -9   35   14      9.63     -0.14
   -7   35   14      8.65      0.12
   -5   35   14     -6.02      0.39
   -3   35   14     -8.31      0.01
   -1   35   14    -11.62     -0.12
    1   35   14    -10.29      0.17
    3   35   14     11.86     -0.12
    5   35   14      2.53     -0.05
    7   35   14     -4.43      0.47
    9   35   14     -8.29     -0.04
   11   35   14      1.75     -0.02
  -16   36   14     -4.94      0.23
  -14   36   14      7.68      0.13
  -12   36   14      1.29      0.84
  -10   36   14     -9.45      0.18
   -8   36   14     -4.70      0.26
   -6   36   14     -0.44      0.43
   -4   36   14      7.98      0.45
   -2   36   14     -6.75      0.09
    0   36   14     -7.77      0.15
    2   36   14      5.26      0.12
    4   36   14      1.86      0.00
    6   36   14     10.29     -0.35
    8   36   14      0.25     -0.05
   10   36   14     18.47     -0.12
  -15   37   14     14.02      0.25
  -13   37   14     13.74      0.33
  -11   37   14    -14.02      0.32
   -9   37   14     -6.54      0.47
   -7   37   14     -1.17      0.19
   -5   37   14     -3.64      0.44
   -3   37   14      6.62      0.11
   -1   37   14     -4.24     -0.18
    1   37   14     -7.84      0.22
    3   37   14      8.29      0.03
    5   37   14      5.28     -0.15
    7   37   14     -6.83      0.32
    9   37   14      4.05     -0.23
  -14   38   14      4.01     -0.03
  -12   38   14      5.12      0.20
  -10   38   14      3.53     -0.69
   -8   38   14      3.74     -0.51
   -6   38   14     -8.15     -0.33
   -4   38   14      8.07      0.32
   -2   38   14      5.26      0.20
    0   38   14     -2.47      0.10
    2   38   14     13.23      0.17
    4   38   14     -9.05      0.16
    6   38   14    -13.44      0.25
    8   38   14    -14.72      0.25
  -13   39   14      9.45      0.11
  -11   39   14      5.42     -0.29
   -9   39   14     -2.38     -0.18
   -7   39   14      2.33      0.00
   -5   39   14     -4.89      0.24
   -3   39   14      4.41      0.24
   -1   39   14      2.95     -0.14
    1   39   14      2.60      0.34
    3   39   14     -2.98      0.40
    5   39   14     -3.23     -0.16
    7   39   14    -14.57      0.09
  -12   40   14     10.28      0.21
  -10   40   14     -9.22      0.00
   -8   40   14     -5.26     -0.04
   -6   40   14      5.72     -0.33
   -4   40   14     13.69      0.03
   -2   40   14      6.88     -0.10
    0   40   14    -11.80      0.04
    2   40   14      1.59      0.12
    4   40   14     -7.03      0.15
    6   40   14    -10.21     -0.14
  -11   41   14     15.55     -0.49
   -9   41   14     -0.15     -0.32
   -7   41   14     -1.24      0.18
   -5   41   14     -7.02      0.14
   -3   41   14      6.44      0.28
   -1   41   14      3.96     -0.09
    1   41   14      5.12      0.15
    3   41   14     -2.34      0.03
   -8   42   14     -1.07      0.09
   -6   42   14     14.27      0.02
   -4   42   14      1.39      0.16
   -2   42   14      5.15      0.06
    0   42   14      0.61     -0.06
    2   42   14     -0.38     -0.16
   -5   43   14      3.02     -0.21
   -3   43   14      0.63      0.15
   -1   43   14      6.14     -0.15
  -26    0   15      2.73     -0.62
  -24    0   15      5.29      0.33
  -22    0   15     17.59     -0.61
  -20    0   15      2.23     -0.04
  -18    0   15      7.99     -0.30
  -16    0   15    -17.58      0.81
  -14    0   15     -5.94      0.07
  -12    0   15    -15.73     -0.01
  -10    0   15    -17.57      0.10
   -8    0   15     -4.79      0.19
   -6    0   15    -31.89     -0.35
   -4    0   15    -66.32     -0.59
   -2    0   15    -72.29     -0.67
    0    0   15     -9.38     -0.28
    2    0   15    -35.36      0.25
    4    0   15     -4.72      0.51
    6    0   15    -25.29      0.17
    8    0   15    -26.70     -0.26
   10    0   15    -26.05     -0.57
   12    0   15    -32.93      0.04
   14    0   15    -19.29     -0.47
   16    0   15    -11.52      0.21
   18    0   15     -7.73      0.11
   20    0   15    -23.41     -0.24
  -27    1   15      6.33      0.27
  -25    1   15     -9.74      0.57
  -23    1   15      2.30     -0.78
  -21    1   15    -12.32     -0.39
  -19    1   15     -5.97     -0.15
  -17    1   15      8.78      0.30
  -15    1   15      4.45     -0.81
  -13    1   15    -16.34     -0.73
  -11    1   15      7.39     -0.35
   -9    1   15     -8.35     -0.71
   -7    1   15     -8.81     -0.01
   -5    1   15     11.59     -0.53
   -3    1   15     35.84      0.11
   -1    1   15      1.19     -0.01
    1    1   15     19.23      0.16
    3    1   15    -27.13      0.23
    5    1   15     -7.92     -0.02
    7    1   15    -20.16     -0.14
    9    1   15     13.42     -0.07
   11    1   15    -12.04      0.39
   13    1   15    -17.99     -0.17
   15    1   15     -7.97      0.34
   17    1   15     -7.76      0.30
   19    1   15     -4.92      0.13
  -26    2   15     -3.31     -0.03
  -24    2   15     -6.33     -0.19
  -22    2   15     -6.52     -0.46
  -20    2   15    -29.70     -0.45
  -18    2   15     -2.97     -0.37
  -16    2   15     -0.33      2.80
  -14    2   15      1.23      0.47
  -12    2   15     -0.20      0.35
  -10    2   15      6.50      3.34
   -8    2   15      4.57      1.61
   -6    2   15     25.58      0.09
   -4    2   15     40.89      0.12
   -2    2   15      0.71      0.00
    0    2   15     14.67      0.44
    2    2   15     -2.89     -0.05
    4    2   15      9.97      0.34
    6    2   15     -1.46     -0.09
    8    2   15     19.45     -0.43
   10    2   15     14.45     -0.03
   12    2   15     -5.53     -0.01
   14    2   15      0.09     -0.35
   16    2   15      1.31      0.13
   18    2   15     -0.42      0.17
   20    2   15    -10.25     -0.08
  -27    3   15     13.83     -0.58
  -25    3   15      2.88      0.32
  -23    3   15     12.79     -0.35
  -21    3   15     12.28     -0.79
  -19    3   15      5.62     -0.79
  -17    3   15    -13.46      1.51
  -15    3   15      2.24      1.55
  -13    3   15      0.43      0.87
  -11    3   15     -6.44      0.72
   -9    3   15    -21.25      0.39
   -7    3   15    -14.21      0.20
   -5    3   15    -43.37     -0.24
   -3    3   15    -33.54     -0.09
   -1    3   15     -4.01     -0.18
    1    3   15      2.87      0.20
    3    3   15    -32.54      0.87
    5    3   15     -5.64      0.11
    7    3   15    -10.96      0.00
    9    3   15      0.78     -0.55
   11    3   15     -3.15      0.36
   13    3   15     -9.20     -0.04
   15    3   15      1.37     -0.27
   17    3   15     -1.23      0.10
   19    3   15     -1.58     -0.17
  -26    4   15    -12.51     -0.05
  -24    4   15     -6.64      0.02
  -22    4   15     14.25     -0.08
  -20    4   15      0.54      0.48
  -18    4   15     18.55      0.44
  -16    4   15      9.61      0.91
  -14    4   15    -20.98     -1.10
  -12    4   15    -14.66     -0.74
  -10    4   15      2.33      0.76
   -8    4   15     -4.27      0.07
   -6    4   15      6.72     -0.40
   -4    4   15     -0.23     -0.26
   -2    4   15    -22.94     -0.16
    0    4   15     -4.68      0.18
    2    4   15     12.80      0.00
    4    4   15    -12.91      0.24
    6    4   15    -17.35     -0.34
    8    4   15      4.63     -0.48
   10    4   15      5.89     -0.40
   12    4   15      6.73     -0.36
   14    4   15      5.23     -0.14
   16    4   15     10.32      0.19
   18    4   15      1.92      0.18
   20    4   15    -10.88      0.12
  -27    5   15      7.52      0.13
  -25    5   15     -5.43      0.17
  -23    5   15     -8.87     -0.43
  -21    5   15     -9.35     -0.27
  -19    5   15     -8.04     -1.14
  -17    5   15     -7.63      0.12
  -15    5   15      8.63      0.77
  -13    5   15     -0.51      0.11
  -11    5   15      3.23      0.29
   -9    5   15      3.89      0.85
   -7    5   15     19.81     -0.10
   -5    5   15     34.20      0.29
   -3    5   15      2.18      0.09
   -1    5   15     13.76      0.12
    1    5   15     23.91     -0.32
    3    5   15     27.63      0.22
    5    5   15     20.00     -0.35
    7    5   15     12.40     -0.51
    9    5   15     16.96     -0.10
   11    5   15     23.10      0.06
   13    5   15     14.91     -0.36
   15    5   15     26.18     -0.25
   17    5   15      4.51     -0.12
   19    5   15      5.58     -0.23
  -26    6   15      4.77     -0.30
  -24    6   15      1.11      0.21
  -22    6   15     14.63     -0.12
  -20    6   15      5.91      0.36
  -18    6   15     -4.66      0.27
  -16    6   15     -4.60     -0.09
  -14    6   15      7.94     -0.37
  -12    6   15      7.34     -0.08
  -10    6   15    -18.18     -0.09
   -8    6   15     -8.47     -0.12
   -6    6   15      0.70     -0.44
   -4    6   15    -10.26     -0.12
   -2    6   15     36.60     -0.04
    0    6   15     14.14     -0.22
    2    6   15      1.25     -0.38
    4    6   15    -15.27     -0.56
    6    6   15     39.82     -0.15
    8    6   15     28.73      0.49
   10    6   15      9.20     -0.22
   12    6   15     14.88     -0.09
   14    6   15      1.63     -0.03
   16    6   15      3.07     -0.08
   18    6   15     -0.52     -0.34
   20    6   15     -3.33      0.05
  -27    7   15    -13.52      0.28
  -25    7   15    -12.30      0.14
  -23    7   15      1.25      0.05
  -21    7   15      2.72      0.92
  -19    7   15     -8.03      0.50
  -17    7   15     12.57     -0.35
  -15    7   15      0.05     -1.21
  -13    7   15     -7.62     -0.79
  -11    7   15      3.10     -0.49
   -9    7   15    -12.54     -0.01
   -7    7   15    -35.02     -0.63
   -5    7   15      7.82     -0.20
   -3    7   15    -34.93     -0.44
   -1    7   15    -27.12      0.22
    1    7   15    -21.44     -0.19
    3    7   15      2.28     -0.20
    5    7   15    -13.30     -0.11
    7    7   15     -2.72     -0.58
    9    7   15     -9.01      0.10
   11    7   15      4.79     -0.20
   13    7   15      2.37     -0.07
   15    7   15     18.41     -0.08
   17    7   15      8.79     -0.03
   19    7   15     -9.65     -0.05
  -26    8   15     -7.36     -0.14
  -24    8   15    -11.03     -0.49
  -22    8   15     -3.02     -0.19
  -20    8   15     10.19     -0.03
  -18    8   15      3.94     -0.28
  -16    8   15     -6.33     -0.75
  -14    8   15    -11.74     -0.21
  -12    8   15    -13.98     -0.58
  -10    8   15    -18.42     -1.01
   -8    8   15      5.65     -0.45
   -6    8   15     14.27     -0.40
   -4    8   15    -11.73      0.23
   -2    8   15     24.02      0.16
    0    8   15     -5.53     -0.07
    2    8   15     11.95      0.28
    4    8   15     -4.60     -0.01
    6    8   15     23.00     -0.26
    8    8   15    -11.51      0.30
   10    8   15     -8.12     -0.05
   12    8   15     -0.19     -0.26
   14    8   15     11.29      0.05
   16    8   15      6.37      0.29
   18    8   15    -11.18     -0.61
   20    8   15      5.80     -0.22
  -27    9   15     -2.05      0.04
  -25    9   15      5.07      0.06
  -23    9   15      8.40     -0.10
  -21    9   15      3.96      0.19
  -19    9   15    -20.94      0.35
  -17    9   15      2.60      0.18
  -15    9   15     -4.17     -0.73
  -13    9   15     14.01     -0.15
  -11    9   15     -3.76     -0.34
   -9    9   15      2.01     -0.58
   -7    9   15    -10.95     -0.14
   -5    9   15     16.73     -0.20
   -3    9   15     -4.92     -0.38
   -1    9   15     20.70      0.30
    1    9   15     -8.65     -0.20
    3    9   15      7.78     -0.18
    5    9   15     16.03      0.76
    7    9   15     26.28      0.48
    9    9   15     -9.90      0.53
   11    9   15     10.05     -0.35
   13    9   15     10.59      0.41
   15    9   15     -1.67     -0.08
   17    9   15      0.44     -0.22
   19    9   15    -12.90     -0.10
  -26   10   15    -19.72      0.18
  -24   10   15      7.39     -0.29
  -22   10   15      8.85      0.54
  -20   10   15     -5.30      0.44
  -18   10   15     -8.91      0.53
  -16   10   15     -1.14     -0.44
  -14   10   15     -8.91     -0.12
  -12   10   15     17.56     -0.35
  -10   10   15      3.07     -0.21
   -8   10   15    -36.39      0.02
   -6   10   15    -22.39     -0.20
   -4   10   15    -11.30      0.50
   -2   10   15    -11.84      0.23
    0   10   15    -46.29     -0.06
    2   10   15    -25.26     -0.34
    4   10   15    -31.58     -0.14
    6   10   15     -2.00      0.27
    8   10   15    -11.79     -0.15
   10   10   15     -4.51     -0.11
   12   10   15    -23.46     -0.54
   14   10   15     -5.84     -0.80
   16   10   15      9.72      0.13
   18   10   15    -11.23      0.03
   20   10   15     -5.18      0.13
  -27   11   15      1.15      0.11
  -25   11   15      1.93     -0.14
  -23   11   15     -0.60     -0.18
  -21   11   15      2.33     -0.14
  -19   11   15     -4.64      0.05
  -17   11   15      8.98      0.06
  -15   11   15      0.45     -0.36
  -13   11   15     12.78      0.15
  -11   11   15    -26.50      0.14
   -9   11   15     -7.99     -0.42
   -7   11   15    -13.12      0.28
   -5   11   15     -1.63     -0.32
   -3   11   15     -1.11     -0.21
   -1   11   15     17.13     -0.06
    1   11   15    -34.24     -0.49
    3   11   15    -24.52      0.54
    5   11   15    -10.78      0.23
    7   11   15     -9.43     -0.86
    9   11   15    -28.25      0.04
   11   11   15     -8.87     -0.58
   13   11   15      0.09     -0.17
   15   11   15     -1.34     -0.22
   17   11   15     -6.92     -0.19
   19   11   15     -9.25     -0.06
  -26   12   15    -10.60      0.46
  -24   12   15      0.39     -0.23
  -22   12   15      2.60      0.03
  -20   12   15      4.32     -0.40
  -18   12   15      9.71      0.36
  -16   12   15     11.09     -0.03
  -14   12   15    -14.32      0.16
  -12   12   15      4.37      0.03
  -10   12   15      5.96     -0.47
   -8   12   15      6.60      0.07
   -6   12   15      8.03      0.25
   -4   12   15    -13.69      0.21
   -2   12   15    -29.67     -0.07
    0   12   15      4.21     -0.31
    2   12   15     25.53     -0.22
    4   12   15     14.29      0.81
    6   12   15      8.69      1.57
    8   12   15     -3.98     -0.11
   10   12   15     12.77     -0.50
   12   12   15     11.41      0.18
   14   12   15      5.93     -0.05
   16   12   15      8.13      0.33
   18   12   15      4.17      0.03
  -25   13   15     -2.91      0.17
  -23   13   15     -5.59     -0.18
  -21   13   15     -0.15     -0.09
  -19   13   15     -4.57      0.30
  -17   13   15     -3.55      0.24
  -15   13   15     -6.46      0.77
  -13   13   15     11.15      0.14
  -11   13   15     17.66      0.58
   -9   13   15     10.91      0.01
   -7   13   15    -22.75     -0.33
   -5   13   15    -12.86     -0.08
   -3   13   15     -6.98      0.32
   -1   13   15      8.95      0.07
    1   13   15     -1.70     -0.97
    3   13   15      1.74     -0.30
    5   13   15     -4.48      0.15
    7   13   15     -3.55     -1.02
    9   13   15      5.39     -0.30
   11   13   15      1.68     -0.49
   13   13   15     -8.53     -0.83
   15   13   15      0.97     -0.12
   17   13   15      2.02      0.18
   19   13   15     -1.54      0.31
  -26   14   15      3.01      0.23
  -24   14   15      7.35      0.23
  -22   14   15      2.94      0.32
  -20   14   15      0.18      0.12
  -18   14   15      0.28      0.94
  -16   14   15      7.28      0.53
  -14   14   15      8.07      0.00
  -12   14   15      1.64      0.48
  -10   14   15    -19.81      0.10
   -8   14   15     14.03      0.79
   -6   14   15     20.06     -0.15
   -4   14   15     13.36     -0.55
   -2   14   15     -5.31     -0.21
    0   14   15      6.85     -1.09
    2   14   15    -18.82     -0.69
    4   14   15     -2.27     -0.12
    6   14   15      0.29      0.35
    8   14   15    -10.05      0.24
   10   14   15     -6.95     -0.35
   12   14   15     -4.56      0.20
   14   14   15     -7.96     -0.44
   16   14   15    -17.58      0.08
   18   14   15     -8.37      0.15
  -25   15   15     -4.22      0.31
  -23   15   15    -10.71     -0.20
  -21   15   15     12.14     -0.01
  -19   15   15      2.87     -0.06
  -17   15   15     -3.54     -0.46
  -15   15   15     -3.48      0.37
  -13   15   15     -9.23     -0.46
  -11   15   15      5.74      0.35
   -9   15   15     -4.79      0.14
   -7   15   15     -4.30     -0.10
   -5   15   15      1.13      0.02
   -3   15   15    -23.83      0.33
   -1   15   15     -5.19      0.55
    1   15   15     19.81     -0.24
    3   15   15     11.96     -0.11
    5   15   15      5.54      1.06
    7   15   15     -5.16      0.11
    9   15   15     13.45      0.26
   11   15   15      4.57      0.61
   13   15   15     -6.25      0.19
   15   15   15      0.59      0.57
   17   15   15     17.70      0.13
   19   15   15     13.25      0.11
  -26   16   15     -1.53     -0.04
  -24   16   15     -5.97      0.05
  -22   16   15      0.29     -0.49
  -20   16   15      2.85     -0.33
  -18   16   15      4.66     -0.10
  -16   16   15     -6.23      0.52
  -14   16   15    -14.86     -0.60
  -12   16   15      3.31     -0.40
  -10   16   15     18.20      0.05
   -8   16   15     27.78      0.19
   -6   16   15      2.79     -0.65
   -4   16   15     -1.37      0.09
   -2   16   15    -16.68      0.42
    0   16   15     16.13      0.16
    2   16   15     17.80     -0.15
    4   16   15     18.64     -0.27
    6   16   15      2.88     -0.63
    8   16   15      9.03     -0.39
   10   16   15      9.55     -0.59
   12   16   15      9.93      0.10
   14   16   15      4.59     -0.42
   16   16   15    -11.71      0.24
   18   16   15      3.17      0.01
  -25   17   15      2.24      0.34
  -23   17   15      0.68      0.35
  -21   17   15     18.07      0.16
  -19   17   15     -1.97      0.11
  -17   17   15     -5.57      0.27
  -15   17   15      3.33      0.44
  -13   17   15      3.60     -0.10
  -11   17   15      6.89      0.10
   -9   17   15     -3.65      0.42
   -7   17   15     27.40      0.63
   -5   17   15     21.61     -0.72
   -3   17   15     -2.41     -0.11
   -1   17   15      6.54     -0.15
    1   17   15     15.03     -0.36
    3   17   15     -1.42     -0.12
    5   17   15      5.16     -0.08
    7   17   15    -23.09     -0.12
    9   17   15     -6.14      0.01
   11   17   15    -15.13      0.09
   13   17   15    -10.50      0.13
   15   17   15    -12.40      0.03
   17   17   15     -6.03     -0.11
  -24   18   15      4.08      0.20
  -22   18   15     18.04     -0.11
  -20   18   15     -8.75     -0.03
  -18   18   15    -11.59     -0.67
  -16   18   15     -0.06      0.55
  -14   18   15     -7.23     -0.03
  -12   18   15      1.16      0.16
  -10   18   15     -2.63      0.77
   -8   18   15    -19.80      0.26
   -6   18   15     -6.16     -0.87
   -4   18   15      9.08      0.01
   -2   18   15    -16.55      0.40
    0   18   15    -19.01      0.79
    2   18   15    -16.59      0.24
    4   18   15     -6.59      0.86
    6   18   15    -10.01      0.10
    8   18   15      1.76      0.40
   10   18   15     -9.21      0.28
   12   18   15     -5.59      0.28
   14   18   15      2.63     -0.13
   16   18   15     -3.46      0.26
   18   18   15     -2.60      0.09
  -25   19   15     -5.60      0.15
  -23   19   15     -2.18      0.05
  -21   19   15      2.23     -0.18
  -19   19   15     -2.05     -0.13
  -17   19   15     10.92      0.01
  -15   19   15      4.57     -0.46
  -13   19   15      7.12     -0.52
  -11   19   15     20.34     -0.06
   -9   19   15     -0.40      0.04
   -7   19   15     10.60      0.05
   -5   19   15      5.72     -0.84
   -3   19   15     -2.79     -0.39
   -1   19   15    -18.60      0.19
    1   19   15      4.43      0.30
    3   19   15      5.36     -0.19
    5   19   15      9.76     -0.75
    7   19   15     -2.57     -0.82
    9   19   15     10.43      0.04
   11   19   15     -2.12      0.30
   13   19   15     10.38      0.24
   15   19   15     -3.09     -0.18
   17   19   15     -4.96     -0.23
  -24   20   15    -12.29      0.12
  -22   20   15     -1.23      0.06
  -20   20   15     -6.17      0.07
  -18   20   15      3.19     -0.38
  -16   20   15      4.24      0.22
  -14   20   15     -5.35      0.36
  -12   20   15      7.67     -0.06
  -10   20   15      9.80      0.04
   -8   20   15      0.62      0.20
   -6   20   15      9.95     -0.82
   -4   20   15      0.57     -0.64
   -2   20   15      3.53     -0.26
    0   20   15      8.31     -0.63
    2   20   15      0.67      0.15
    4   20   15      2.50      0.32
    6   20   15     -9.27     -1.03
    8   20   15      5.60      0.41
   10   20   15     -3.26     -0.26
   12   20   15     -0.75      0.04
   14   20   15      3.04      0.27
   16   20   15      4.57     -0.04
   18   20   15     -8.23      0.14
  -23   21   15      8.18      0.12
  -21   21   15     -4.20      0.17
  -19   21   15     -6.86      0.16
  -17   21   15     10.07      0.32
  -15   21   15     -1.52      0.10
  -13   21   15    -10.00      0.19
  -11   21   15      5.43      0.71
   -9   21   15    -11.85      0.81
   -7   21   15    -13.42      0.98
   -5   21   15    -14.83      1.37
   -3   21   15    -13.74     -0.05
   -1   21   15    -35.92     -0.01
    1   21   15    -11.06      0.18
    3   21   15     -2.30      0.71
    5   21   15     -7.39      1.46
    7   21   15    -16.07     -0.26
    9   21   15    -14.73      0.43
   11   21   15     -5.57      0.25
   13   21   15     17.00      0.29
   15   21   15      6.74      0.32
   17   21   15     -8.06      0.31
  -24   22   15     -3.71     -0.17
  -22   22   15     -7.67      0.15
  -20   22   15     -2.80      0.38
  -18   22   15      6.71      0.33
  -16   22   15      3.69     -0.01
  -14   22   15      9.31      0.11
  -12   22   15     18.27     -0.21
  -10   22   15      4.15     -0.39
   -8   22   15    -15.19     -0.80
   -6   22   15     -8.73      0.46
   -4   22   15     -4.77     -0.63
   -2   22   15     -1.91     -0.18
    0   22   15     -9.68     -0.63
    2   22   15    -20.88      0.06
    4   22   15     -8.53     -0.09
    6   22   15     -0.33     -0.84
    8   22   15     14.87      0.49
   10   22   15     -4.20     -0.79
   12   22   15      1.28     -0.50
   14   22   15     -5.62     -0.01
   16   22   15      5.95     -0.27
  -23   23   15     -0.15     -0.26
  -21   23   15     -9.12      0.14
  -19   23   15     -1.56      0.06
  -17   23   15     -3.59     -0.27
  -15   23   15     -5.43     -0.23
  -13   23   15     -6.59     -0.22
  -11   23   15     -0.20     -0.39
   -9   23   15     -4.74     -0.35
   -7   23   15     -5.02     -1.49
   -5   23   15     -2.89     -0.30
   -3   23   15      5.83     -0.32
   -1   23   15     11.64     -0.22
    1   23   15     11.55     -0.20
    3   23   15     -4.84     -0.26
    5   23   15      0.54      0.02
    7   23   15     14.63     -0.44
    9   23   15     11.46      0.69
   11   23   15     11.99     -0.78
   13   23   15      4.25      0.20
   15   23   15      4.22      0.16
   17   23   15      3.07      0.01
  -22   24   15      1.71      0.03
  -20   24   15     11.97      0.04
  -18   24   15     13.16      0.43
  -16   24   15      4.93      0.35
  -14   24   15      1.27      0.02
  -12   24   15    -11.54     -0.27
  -10   24   15     -7.41     -0.03
   -8   24   15      5.19      0.53
   -6   24   15     -1.67      4.59
   -4   24   15     -8.54      1.35
   -2   24   15    -15.27     -0.04
    0   24   15     -1.19     -0.25
    2   24   15      3.26      0.02
    4   24   15      3.13      0.39
    6   24   15     -7.50     -0.31
    8   24   15     -5.40     -0.26
   10   24   15      1.09     -0.34
   12   24   15     18.16     -0.12
   14   24   15     -9.89     -0.14
   16   24   15     -2.15      0.07
  -23   25   15     12.34     -0.03
  -21   25   15     17.07      0.37
  -19   25   15     20.17      0.35
  -17   25   15      0.04     -0.06
  -15   25   15     -3.78      0.02
  -13   25   15      6.35     -0.19
  -11   25   15     11.53     -0.13
   -9   25   15      1.47     -0.14
   -7   25   15    -14.32     -0.98
   -5   25   15     -8.28     -0.10
   -3   25   15     -7.10     -0.38
   -1   25   15      9.72     -0.40
    1   25   15     -5.06     -0.26
    3   25   15    -21.44     -0.08
    5   25   15     -6.71     -0.32
    7   25   15     -0.57     -0.66
    9   25   15    -18.72     -0.99
   11   25   15    -12.82     -3.09
   13   25   15    -18.55     -0.82
   15   25   15     -6.98     -0.10
  -22   26   15      1.94      0.20
  -20   26   15      3.70      0.20
  -18   26   15     -2.85      0.11
  -16   26   15     -5.19     -0.12
  -14   26   15     11.72     -0.21
  -12   26   15     -1.64     -0.44
  -10   26   15     -9.15     -0.64
   -8   26   15      0.67     -0.97
   -6   26   15      2.96      0.11
   -4   26   15     18.54     -0.99
   -2   26   15      5.77     -0.19
    0   26   15     14.10      0.39
    2   26   15     -0.18     -0.35
    4   26   15     -2.57     -0.79
    6   26   15      2.02     -0.38
    8   26   15     -1.76      0.44
   10   26   15      5.87      0.08
   12   26   15      5.52     -0.55
   14   26   15    -14.05     -0.42
  -21   27   15      9.54     -0.08
  -19   27   15     -1.23      0.23
  -17   27   15      1.09      0.16
  -15   27   15      2.41      0.18
  -13   27   15      6.03     -0.35
  -11   27   15      2.55      0.24
   -9   27   15     -0.18      0.21
   -7   27   15      9.17      1.05
   -5   27   15     23.26      0.76
   -3   27   15     11.93     -0.31
   -1   27   15     17.67      0.16
    1   27   15     -2.36     -0.07
    3   27   15      1.95      0.23
    5   27   15      9.22     -0.08
    7   27   15     11.65     -0.15
    9   27   15     -8.01      0.09
   11   27   15     -4.13     -0.42
   13   27   15     -7.49      0.25
   15   27   15     -2.98      0.13
  -20   28   15      6.75      0.04
  -18   28   15      8.18     -0.08
  -16   28   15     -8.97     -0.15
  -14   28   15     -8.95     -0.08
  -12   28   15     -1.12     -0.27
  -10   28   15      5.27     -0.16
   -8   28   15      7.05      0.65
   -6   28   15      6.08     -0.87
   -4   28   15      7.17     -0.47
   -2   28   15    -15.59      0.07
    0   28   15     -7.94      0.59
    2   28   15    -14.54      0.47
    4   28   15     -7.89     -0.30
    6   28   15     -2.19     -0.52
    8   28   15    -15.45      0.17
   10   28   15     -6.18     -0.24
   12   28   15     -6.81     -0.65
   14   28   15      0.64      0.18
  -21   29   15      9.09     -0.09
  -19   29   15     -8.35      0.19
  -17   29   15      0.00     -0.09
  -15   29   15     -8.67      0.01
  -13   29   15      9.21     -0.51
  -11   29   15     15.27     -0.10
   -9   29   15     -8.79     -0.22
   -7   29   15    -10.60      0.62
   -5   29   15      2.70     -0.53
   -3   29   15     -5.13      0.02
   -1   29   15      3.01      0.81
    1   29   15    -14.00      0.02
    3   29   15     -4.82      0.34
    5   29   15    -11.57      0.21
    7   29   15      0.01      0.63
    9   29   15     -1.78      0.39
   11   29   15     -0.72      0.23
   13   29   15     -1.93     -0.01
  -20   30   15     -0.70      0.04
  -18   30   15      7.32     -0.13
  -16   30   15      4.06     -0.29
  -14   30   15     -3.72     -0.09
  -12   30   15     10.41      0.03
  -10   30   15     10.33     -0.16
   -8   30   15     -4.74      0.62
   -6   30   15      5.04     -1.30
   -4   30   15      9.76     -0.35
   -2   30   15     13.66      0.05
    0   30   15      2.30      0.31
    2   30   15    -11.67      0.61
    4   30   15     -8.74      0.70
    6   30   15     13.24      0.40
    8   30   15     10.25      0.60
   10   30   15     -0.40      0.92
   12   30   15     -7.30      0.53
  -19   31   15    -12.25     -0.11
  -17   31   15      7.36     -0.02
  -15   31   15    -10.37      0.25
  -13   31   15     -0.51     -0.46
  -11   31   15      7.99     -0.05
   -9   31   15      0.28      0.22
   -7   31   15     -4.37      0.53
   -5   31   15     -7.90     -0.52
   -3   31   15    -17.49      0.33
   -1   31   15     -1.29      0.48
    1   31   15    -11.44     -0.02
    3   31   15      1.07      0.29
    5   31   15     -9.53     -0.35
    7   31   15     -1.09     -0.03
    9   31   15      8.70      0.12
   11   31   15      3.48      0.30
   13   31   15     11.46     -0.08
  -18   32   15      7.45     -0.04
  -16   32   15      3.58     -0.09
  -14   32   15    -12.77      0.28
  -12   32   15      1.52      0.31
  -10   32   15      3.07     -0.48
   -8   32   15    -31.52      0.22
   -6   32   15    -12.73     -0.27
   -4   32   15    -21.93      0.24
   -2   32   15     -7.29      0.31
    0   32   15     -5.01     -0.06
    2   32   15    -13.81      0.05
    4   32   15    -23.13      0.20
    6   32   15     -0.32     -0.23
    8   32   15      9.35     -0.46
   10   32   15     12.18      0.03
   12   32   15     -1.29      0.10
  -17   33   15     17.69     -0.13
  -15   33   15      3.36      0.04
  -13   33   15     -0.08     -0.49
  -11   33   15     -3.80     -0.02
   -9   33   15     -2.29     -0.14
   -7   33   15    -18.99     -0.40
   -5   33   15    -24.54     -0.46
   -3   33   15     -8.72      0.11
   -1   33   15     16.31      0.07
    1   33   15      1.84     -0.37
    3   33   15      6.31      0.17
    5   33   15     -0.51      0.30
    7   33   15      6.28      0.32
    9   33   15      6.23      0.25
   11   33   15     -9.35      0.18
  -18   34   15     -4.81      0.05
  -16   34   15      1.23      0.11
  -14   34   15     -9.12      0.08
  -12   34   15     -5.79      0.04
  -10   34   15     13.25     -0.47
   -8   34   15     -5.54     -0.35
   -6   34   15      6.24     -0.16
   -4   34   15     -7.02     -0.20
   -2   34   15     10.15     -0.15
    0   34   15     18.83     -0.22
    2   34   15      8.70     -0.08
    4   34   15      2.58      0.06
    6   34   15      4.32     -0.22
    8   34   15      1.73     -0.43
   10   34   15      5.68     -0.35
  -17   35   15      4.59     -0.06
  -15   35   15     -1.98     -0.14
  -13   35   15    -10.10     -0.06
  -11   35   15     -4.49      0.34
   -9   35   15     -2.79     -0.16
   -7   35   15    -13.98     -0.39
   -5   35   15     -7.72     -0.17
   -3   35   15    -13.36      0.11
   -1   35   15      4.18      0.05
    1   35   15     -0.51     -0.52
    3   35   15     -5.47     -0.33
    5   35   15      0.15     -0.19
    7   35   15      3.91     -0.31
    9   35   15     -5.72      0.11
  -16   36   15     -4.70      0.11
  -14   36   15     -6.22     -0.21
  -12   36   15    -13.55     -0.49
  -10   36   15     -3.74     -0.23
   -8   36   15     -0.92     -0.19
   -6   36   15      0.50      0.36
   -4   36   15     -2.80      0.00
   -2   36   15      6.00      0.01
    0   36   15      4.24      0.36
    2   36   15     -0.52     -0.10
    4   36   15      8.19     -0.16
    6   36   15     -0.11     -0.05
    8   36   15      3.89      0.28
  -15   37   15     -2.82      0.14
  -13   37   15    -11.69      0.27
  -11   37   15      7.85      0.17
   -9   37   15      8.34     -0.18
   -7   37   15      0.33     -0.19
   -5   37   15     17.90     -0.17
   -3   37   15     16.26     -0.01
   -1   37   15     20.65     -0.09
    1   37   15      9.56      0.17
    3   37   15      4.58      0.24
    5   37   15      8.31      0.52
    7   37   15      8.23      0.02
  -14   38   15      2.26     -0.26
  -12   38   15      8.13      0.18
  -10   38   15     -2.53      0.72
   -8   38   15      2.41      0.01
   -6   38   15     12.82      0.24
   -4   38   15      1.82      0.08
   -2   38   15     -5.81      0.19
    0   38   15     -1.78      0.10
    2   38   15     -9.01     -0.28
    4   38   15     -0.22      0.09
    6   38   15     -6.48     -0.05
  -13   39   15    -12.95     -0.05
  -11   39   15     11.57     -0.28
   -9   39   15     14.40     -0.09
   -7   39   15      6.83     -0.07
   -5   39   15      1.75      0.06
   -3   39   15      1.31      0.02
   -1   39   15      0.15     -0.23
    1   39   15    -13.21      0.24
    3   39   15     -7.20     -0.29
    5   39   15     -9.54      0.00
  -10   40   15     -1.55      0.39
   -8   40   15      0.15     -0.17
   -6   40   15     10.59      0.02
   -4   40   15      4.13     -0.22
   -2   40   15      0.02      0.07
    0   40   15     -1.70      0.12
    2   40   15     -2.86     -0.01
    4   40   15     -0.42     -0.10
   -9   41   15    -13.61      0.23
   -7   41   15     -6.09     -0.18
   -5   41   15     -4.23     -0.01
   -3   41   15     -8.12     -0.01
   -1   41   15     -1.65     -0.25
    1   41   15    -15.71     -0.19
    3   41   15     -7.64     -0.15
   -6   42   15     -0.66     -0.10
   -4   42   15    -11.88      0.06
   -2   42   15    -11.37      0.37
    0   42   15    -10.82      0.01
  -26    0   16     21.44      0.09
  -24    0   16     14.26     -0.20
  -22    0   16     19.44     -0.07
  -20    0   16     20.79      0.56
  -18    0   16     22.99      0.25
  -16    0   16     22.27     -0.22
  -14    0   16      0.99     -0.06
  -12    0   16      6.42     -0.01
  -10    0   16     24.26      0.65
   -8    0   16     -4.99      0.36
   -6    0   16     -0.86      0.39
   -4    0   16     39.20      0.36
   -2    0   16     24.75      0.58
    0    0   16     -7.23      0.35
    2    0   16     39.75      0.15
    4    0   16      7.14      0.19
    6    0   16     -3.94      0.55
    8    0   16    -18.95      0.00
   10    0   16    -23.40     -0.49
   12    0   16     -5.09     -0.38
   14    0   16      4.53      0.17
   16    0   16      8.46      0.04
   18    0   16     -2.50      0.15
   20    0   16     -6.02     -0.12
  -27    1   16     -2.62      0.27
  -25    1   16     -2.26      0.20
  -23    1   16     -8.88      0.54
  -21    1   16      4.77     -0.22
  -19    1   16     -0.87     -1.13
  -17    1   16     -8.43     -0.63
  -15    1   16      7.51      0.33
  -13    1   16     -6.68     -0.17
  -11    1   16      6.28      0.12
   -9    1   16    -18.81      1.04
   -7    1   16     -0.79      0.40
   -5    1   16     -6.98      0.07
   -3    1   16      9.78      0.29
   -1    1   16    -19.88      0.00
    1    1   16     -0.41      0.06
    3    1   16    -10.54     -0.25
    5    1   16     15.13      0.32
    7    1   16     -1.86      0.27
    9    1   16     -5.04     -0.36
   11    1   16      0.44      0.35
   13    1   16      2.38      0.00
   15    1   16      5.11     -0.35
   17    1   16    -16.35     -0.04
   19    1   16      5.05     -0.19
  -26    2   16     -5.66      0.01
  -24    2   16    -10.54      0.60
  -22    2   16     -3.66      0.08
  -20    2   16      2.00      0.45
  -18    2   16     -8.50     -0.12
  -16    2   16    -12.93     -0.70
  -14    2   16      1.39     -0.46
  -12    2   16      6.32      0.15
  -10    2   16      1.46     -0.30
   -8    2   16    -15.48      0.44
   -6    2   16    -16.96      0.30
   -4    2   16      1.76      0.20
   -2    2   16     19.45      0.08
    0    2   16     -8.59     -0.01
    2    2   16     -2.43     -0.15
    4    2   16    -19.62     -0.16
    6    2   16      6.87      0.21
    8    2   16     -0.30     -0.01
   10    2   16     -9.39     -0.21
   12    2   16     -1.44      0.23
   14    2   16    -10.36      0.12
   16    2   16     -1.99     -0.26
   18    2   16      0.62      0.32
   20    2   16     -3.42     -0.13
  -27    3   16     13.06      0.50
  -25    3   16     20.78      0.27
  -23    3   16      2.55      0.18
  -21    3   16      2.37     -0.03
  -19    3   16      1.25     -0.89
  -17    3   16     20.26      0.13
  -15    3   16     24.39      0.37
  -13    3   16      4.42      0.59
  -11    3   16     26.09     -0.10
   -9    3   16      4.94      0.12
   -7    3   16     -6.11     -0.02
   -5    3   16     22.74      0.06
   -3    3   16     23.69      0.73
   -1    3   16    -23.49      0.28
    1    3   16      9.43     -0.09
    3    3   16     19.18     -0.18
    5    3   16      0.18      0.54
    7    3   16    -17.74     -0.27
    9    3   16     -2.44     -0.11
   11    3   16      4.67      0.34
   13    3   16      3.35      0.41
   15    3   16      4.92      0.38
   17    3   16     -0.40      0.20
   19    3   16     11.42      0.11
  -26    4   16      3.68     -0.35
  -24    4   16      1.59      0.49
  -22    4   16     -1.84     -0.05
  -20    4   16     18.47     -0.01
  -18    4   16     11.06     -1.37
  -16    4   16     -5.80     -0.81
  -14    4   16      8.33     -0.15
  -12    4   16     -7.34     -0.46
  -10    4   16     -4.48     -0.33
   -8    4   16     18.02      0.21
   -6    4   16     18.98      0.19
   -4    4   16    -13.75      0.75
   -2    4   16    -12.49      0.00
    0    4   16     -0.72     -0.01
    2    4   16     15.10     -0.33
    4    4   16      7.14      0.45
    6    4   16      6.09      0.64
    8    4   16     -4.35      0.22
   10    4   16      3.18      0.19
   12    4   16     17.37      0.22
   14    4   16      5.95      0.31
   16    4   16      6.78      0.01
   18    4   16     10.40      0.13
   20    4   16     13.35     -0.18
  -27    5   16     -3.51     -0.12
  -25    5   16      6.39      0.44
  -23    5   16    -15.09      0.17
  -21    5   16     -4.50     -0.01
  -19    5   16     -7.34     -0.01
  -17    5   16     -5.80      0.22
  -15    5   16     -2.50     -0.50
  -13    5   16     12.00      0.92
  -11    5   16     18.25     -0.03
   -9    5   16     12.72     -0.79
   -7    5   16    -10.28      0.00
   -5    5   16     -9.93     -0.08
   -3    5   16     -5.94      0.42
   -1    5   16      7.82      0.05
    1    5   16     13.42      0.02
    3    5   16      5.44      0.00
    5    5   16    -17.76     -0.09
    7    5   16     -7.09     -0.29
    9    5   16     -6.97      0.23
   11    5   16      9.00     -0.02
   13    5   16     -2.63      0.29
   15    5   16    -14.16      0.01
   17    5   16     11.27      0.17
   19    5   16     16.94      0.21
  -26    6   16      7.27     -0.03
  -24    6   16      9.21      0.41
  -22    6   16    -14.16      0.04
  -20    6   16    -12.26      0.62
  -18    6   16      5.26     -0.21
  -16    6   16     12.63     -0.27
  -14    6   16      6.46      0.42
  -12    6   16     -6.47     -0.37
  -10    6   16     -0.12      0.06
   -8    6   16      1.38      0.06
   -6    6   16     14.71      0.13
   -4    6   16     17.49      0.75
   -2    6   16    -27.61      0.42
    0    6   16    -24.28      0.25
    2    6   16     -6.41     -0.69
    4    6   16      3.30     -0.06
    6    6   16     -5.77      0.31
    8    6   16      9.53      0.38
   10    6   16     14.25      0.95
   12    6   16      6.17     -0.20
   14    6   16     -8.79     -0.01
   16    6   16      0.05      0.14
   18    6   16      0.73      0.02
   20    6   16     10.22      0.18
  -27    7   16     11.47     -0.30
  -25    7   16     18.75      0.08
  -23    7   16     -9.16     -0.28
  -21    7   16      6.87     -0.13
  -19    7   16     10.60     -0.22
  -17    7   16     -5.38     -0.87
  -15    7   16      5.76     -0.83
  -13    7   16     18.85     -0.09
  -11    7   16    -11.36      0.05
   -9    7   16     -1.61     -0.34
   -7    7   16     -3.92      0.49
   -5    7   16     -7.46      0.30
   -3    7   16     -5.36      0.32
   -1    7   16     37.68      0.19
    1    7   16      5.77      0.19
    3    7   16      4.47      0.46
    5    7   16     -6.49     -0.71
    7    7   16     15.58     -0.50
    9    7   16     -5.93      0.29
   11    7   16     15.17     -0.24
   13    7   16     10.74      0.19
   15    7   16      4.64     -0.03
   17    7   16     15.23      0.04
   19    7   16     22.94     -0.17
  -26    8   16    -11.24     -0.32
  -24    8   16     -7.63     -0.11
  -22    8   16     -6.19     -0.37
  -20    8   16     -0.18      0.24
  -18    8   16     11.82      0.69
  -16    8   16      9.40      0.35
  -14    8   16    -12.54      0.53
  -12    8   16      5.18     -0.13
  -10    8   16     22.74      0.19
   -8    8   16     36.12     -0.28
   -6    8   16      2.19     -0.19
   -4    8   16     -1.96     -0.01
   -2    8   16    -32.00      0.13
    0    8   16     10.88      0.43
    2    8   16     14.18     -0.14
    4    8   16      3.10     -0.67
    6    8   16     -9.02      0.27
    8    8   16      6.14     -0.08
   10    8   16      1.49      0.04
   12    8   16     11.14     -0.31
   14    8   16     -9.98     -0.02
   16    8   16     -0.50      0.14
   18    8   16      4.05     -0.13
  -27    9   16      1.67      0.10
  -25    9   16     -2.54      0.19
  -23    9   16     -7.97      0.17
  -21    9   16     -3.33      0.48
  -19    9   16     -4.15      0.74
  -17    9   16     -0.46      0.08
  -15    9   16      5.66      0.94
  -13    9   16     -4.70     -0.32
  -11    9   16     -5.99     -0.21
   -9    9   16      0.97     -0.28
   -7    9   16    -20.30      0.22
   -5    9   16      3.44      0.21
   -3    9   16     -6.41     -0.14
   -1    9   16     15.55      0.04
    1    9   16    -20.15      0.00
    3    9   16      3.97      0.75
    5    9   16    -20.34     -0.28
    7    9   16     -1.24     -0.33
    9    9   16     -9.29      0.72
   11    9   16     -1.88      0.29
   13    9   16    -13.89     -0.18
   15    9   16     -2.05     -0.34
   17    9   16     -7.36      0.04
   19    9   16      1.49     -0.13
  -26   10   16      5.89     -0.18
  -24   10   16      4.98     -0.07
  -22   10   16      3.42      0.01
  -20   10   16     -0.72     -0.21
  -18   10   16     -7.37      0.27
  -16   10   16      3.17     -0.04
  -14   10   16      6.31     -0.30
  -12   10   16      9.84     -0.23
  -10   10   16    -16.35      0.08
   -8   10   16     12.40     -0.09
   -6   10   16    -21.28     -0.37
   -4   10   16      4.46     -0.55
   -2   10   16      1.16     -0.17
    0   10   16     10.80     -0.10
    2   10   16    -13.11      0.15
    4   10   16     -5.38     -0.89
    6   10   16     15.85     -0.28
    8   10   16     16.85     -0.46
   10   10   16     -9.77     -0.55
   12   10   16      3.45     -0.03
   14   10   16     -1.43      0.25
   16   10   16     -6.16      0.30
   18   10   16      4.04     -0.13
  -25   11   16    -16.42     -0.16
  -23   11   16     -2.43     -0.12
  -21   11   16      5.85     -0.01
  -19   11   16     -1.68      0.21
  -17   11   16     15.39     -0.58
  -15   11   16     11.70      0.64
  -13   11   16     -0.49     -0.35
  -11   11   16     23.44      0.21
   -9   11   16     23.91     -0.27
   -7   11   16    -10.65     -0.48
   -5   11   16     19.06     -0.24
   -3   11   16     -4.77     -0.39
   -1   11   16     11.84      0.39
    1   11   16     -0.86     -0.04
    3   11   16     13.05     -0.22
    5   11   16    -22.46      0.04
    7   11   16      0.35     -0.24
    9   11   16      4.49      0.22
   11   11   16      4.26      0.46
   13   11   16     -2.29      0.39
   15   11   16     -1.57     -0.20
   17   11   16      1.94      0.04
   19   11   16     -4.00     -0.07
  -26   12   16     -6.90     -0.04
  -24   12   16     -8.65     -0.09
  -22   12   16     -6.88      0.09
  -20   12   16      6.73     -0.09
  -18   12   16      6.28      0.36
  -16   12   16      7.60      0.40
  -14   12   16    -10.65      0.04
  -12   12   16     -6.59     -0.42
  -10   12   16     -3.20     -0.31
   -8   12   16     12.71     -0.19
   -6   12   16    -21.94     -0.47
   -4   12   16      4.19      0.06
   -2   12   16     14.29      0.11
    0   12   16     15.74      0.38
    2   12   16     13.97      1.72
    4   12   16     -2.41      0.85
    6   12   16     -6.57     -0.18
    8   12   16     -6.89     -0.71
   10   12   16    -18.15     -0.20
   12   12   16    -13.18      0.31
   14   12   16      3.85      0.04
   16   12   16     -1.48      0.12
   18   12   16      1.57     -0.48
  -25   13   16      6.53      0.02
  -23   13   16     -5.50      0.13
  -21   13   16     -6.83     -0.27
  -19   13   16     -5.91     -0.13
  -17   13   16     11.41     -0.65
  -15   13   16      7.73     -0.01
  -13   13   16     -4.77      0.26
  -11   13   16    -19.87      0.13
   -9   13   16     -5.21     -0.45
   -7   13   16     -5.99      0.24
   -5   13   16      6.61     -0.05
   -3   13   16    -22.59     -0.41
   -1   13   16     -7.40      0.18
    1   13   16      1.74     -0.26
    3   13   16     15.64     -0.34
    5   13   16      4.00      0.06
    7   13   16      2.44     -0.60
    9   13   16     -2.59     -0.20
   11   13   16     -4.95     -0.46
   13   13   16     11.04      0.63
   15   13   16     -6.66      0.17
   17   13   16     -0.08      0.08
   19   13   16     -2.27      0.09
  -26   14   16      2.03     -0.08
  -24   14   16      8.48     -0.32
  -22   14   16      5.10     -0.09
  -20   14   16     10.26      0.09
  -18   14   16     -1.85     -0.37
  -16   14   16      7.45     -0.18
  -14   14   16      0.31      0.11
  -12   14   16     10.22     -0.04
  -10   14   16     13.64      0.39
   -8   14   16    -15.33     -0.28
   -6   14   16     -5.58     -0.55
   -4   14   16     29.44      0.04
   -2   14   16     22.65     -0.14
    0   14   16     -1.55     -0.01
    2   14   16      2.32     -0.34
    4   14   16    -17.14     -0.89
    6   14   16     -0.68     -0.34
    8   14   16     14.69     -0.52
   10   14   16      3.14     -0.12
   12   14   16     -6.02     -0.18
   14   14   16     -3.52     -0.49
   16   14   16      1.19      0.09
   18   14   16     -0.17     -0.04
  -25   15   16     11.09     -0.09
  -23   15   16     -7.22     -0.04
  -21   15   16     -6.44     -0.22
  -19   15   16      9.32      0.07
  -17   15   16     11.55     -0.29
  -15   15   16      6.47     -0.41
  -13   15   16      6.88      0.13
  -11   15   16     -6.97     -0.03
   -9   15   16      8.56      0.13
   -7   15   16      7.22      0.40
   -5   15   16     16.86     -0.17
   -3   15   16     20.29     -0.21
   -1   15   16     15.14      0.41
    1   15   16     16.50      0.61
    3   15   16      8.25      0.08
    5   15   16      7.26     -0.40
    7   15   16      4.67     -1.04
    9   15   16      5.82      0.68
   11   15   16    -10.88     -0.13
   13   15   16      7.72      0.52
   15   15   16     -2.43     -0.20
   17   15   16      2.43     -0.35
  -24   16   16     -2.38     -0.18
  -22   16   16    -13.60      0.15
  -20   16   16      5.95      0.18
  -18   16   16      3.88     -0.27
  -16   16   16      6.31     -0.17
  -14   16   16     -4.86      0.24
  -12   16   16    -15.94     -0.24
  -10   16   16    -12.03     -0.55
   -8   16   16    -13.31      0.36
   -6   16   16     11.28      1.34
   -4   16   16     -3.84      0.21
   -2   16   16    -12.51     -0.03
    0   16   16     -3.04     -0.49
    2   16   16     11.90     -0.18
    4   16   16      0.81     -0.82
    6   16   16     -2.52     -0.29
    8   16   16     -0.04     -0.10
   10   16   16      1.55     -0.19
   12   16   16      5.39     -0.09
   14   16   16     -6.32     -0.20
   16   16   16      6.47      0.11
   18   16   16     -6.25      0.15
  -25   17   16     10.76      0.03
  -23   17   16      9.79     -0.13
  -21   17   16      6.46      0.31
  -19   17   16      2.63      0.13
  -17   17   16     -9.04      0.00
  -15   17   16     -8.56      0.08
  -13   17   16     -8.40     -0.14
  -11   17   16     12.02     -0.35
   -9   17   16      0.19      0.02
   -7   17   16    -17.94      0.00
   -5   17   16      2.35      0.05
   -3   17   16     20.72     -0.70
   -1   17   16     -9.93     -0.39
    1   17   16     -1.95      0.03
    3   17   16     -6.77     -0.84
    5   17   16     -4.86      0.18
    7   17   16     -4.59     -0.88
    9   17   16      0.22      0.42
   11   17   16    -10.28     -0.59
   13   17   16     -2.16     -0.31
   15   17   16     -4.81     -0.06
   17   17   16     -2.72     -0.09
  -24   18   16     15.08      0.11
  -22   18   16      0.15      0.18
  -20   18   16      0.80      0.00
  -18   18   16     -4.50     -0.10
  -16   18   16     -6.52     -0.30
  -14   18   16      8.34     -0.05
  -12   18   16      7.50     -0.03
  -10   18   16      2.42     -0.26
   -8   18   16      0.77      0.50
   -6   18   16     25.45      0.70
   -4   18   16     38.82     -0.92
   -2   18   16     28.23      0.49
    0   18   16      4.03     -0.30
    2   18   16    -11.77      0.03
    4   18   16     -4.04     -0.96
    6   18   16      6.17      0.16
    8   18   16     20.20      1.42
   10   18   16      5.82      0.77
   12   18   16      2.26      0.51
   14   18   16    -10.21     -0.15
   16   18   16      0.11     -0.01
   18   18   16    -24.67      0.12
  -25   19   16     -2.76     -0.24
  -23   19   16      0.70     -0.30
  -21   19   16     -4.61      0.25
  -19   19   16    -16.10     -0.18
  -17   19   16    -16.82     -0.09
  -15   19   16      3.58     -0.17
  -13   19   16     -8.82     -0.29
  -11   19   16      4.12     -0.68
   -9   19   16    -25.27      0.24
   -7   19   16    -12.17      0.83
   -5   19   16      3.84      0.50
   -3   19   16     18.51      0.64
   -1   19   16      2.27      0.27
    1   19   16      1.27      0.28
    3   19   16     -2.63     -0.56
    5   19   16      5.93      0.04
    7   19   16      4.16     -0.97
    9   19   16      9.43      0.48
   11   19   16      1.15      0.18
   13   19   16    -10.20     -0.01
   15   19   16      4.86     -0.04
   17   19   16      2.35     -0.26
  -24   20   16      4.62      0.19
  -22   20   16      0.02     -0.15
  -20   20   16      0.28     -0.03
  -18   20   16     14.39      0.13
  -16   20   16     -3.86      0.13
  -14   20   16    -17.39     -0.17
  -12   20   16    -20.06     -0.28
  -10   20   16     10.01     -0.23
   -8   20   16      6.04      0.22
   -6   20   16     -7.17      1.17
   -4   20   16      0.50     -0.17
   -2   20   16    -19.42      0.13
    0   20   16    -16.19      0.00
    2   20   16      2.10     -0.19
    4   20   16      9.42     -0.10
    6   20   16     -4.42      0.18
    8   20   16      5.59     -0.19
   10   20   16     -5.75      0.05
   12   20   16      3.87      0.10
   14   20   16     -1.46     -0.33
   16   20   16     -0.68      0.05
  -23   21   16      1.78     -0.13
  -21   21   16      1.86      0.01
  -19   21   16      4.45     -0.25
  -17   21   16     -8.12     -0.22
  -15   21   16     -1.76     -0.49
  -13   21   16     -3.58     -0.05
  -11   21   16     19.74     -0.19
   -9   21   16     -0.79      0.31
   -7   21   16      8.64     -0.01
   -5   21   16     -1.76     -1.00
   -3   21   16     10.94      0.44
   -1   21   16     13.68     -0.37
    1   21   16      3.76     -0.66
    3   21   16     -6.07     -0.58
    5   21   16      0.73     -0.01
    7   21   16      4.96      0.12
    9   21   16      9.50      0.06
   11   21   16      0.90     -0.25
   13   21   16    -12.26      0.18
   15   21   16      3.04      0.39
   17   21   16     -5.16      0.18
  -24   22   16     -0.36      0.07
  -22   22   16     -3.99     -0.29
  -20   22   16    -16.51     -0.26
  -18   22   16     -0.21     -0.04
  -16   22   16     -0.85      0.15
  -14   22   16      8.70      0.17
  -12   22   16    -17.26     -0.17
  -10   22   16     -4.68     -0.24
   -8   22   16     -7.09     -0.69
   -6   22   16    -12.39     -0.96
   -4   22   16      5.73      0.38
   -2   22   16     -2.37      0.56
    0   22   16      5.07      0.56
    2   22   16      5.24     -0.58
    4   22   16     16.00     -0.04
    6   22   16     14.89     -0.41
    8   22   16     15.90     -0.80
   10   22   16      4.10      0.37
   12   22   16      6.48      0.18
   14   22   16     10.59      0.03
   16   22   16      8.04     -0.21
  -23   23   16    -14.31     -0.03
  -21   23   16     -9.30     -0.05
  -19   23   16      4.95      0.12
  -17   23   16      0.43      0.34
  -15   23   16      3.85      0.07
  -13   23   16     -4.82     -0.06
  -11   23   16      1.84      0.24
   -9   23   16      5.95     -0.72
   -7   23   16      9.67     -0.99
   -5   23   16    -16.87     -0.37
   -3   23   16    -19.09      0.10
   -1   23   16     -8.27     -0.09
    1   23   16      9.93     -0.46
    3   23   16     11.96     -0.34
    5   23   16      5.97      0.06
    7   23   16      3.99     -0.30
    9   23   16      3.52     -0.58
   11   23   16     -0.47      0.40
   13   23   16     -2.72      0.10
   15   23   16      0.30     -0.13
  -22   24   16    -13.81     -0.09
  -20   24   16     -1.67     -0.19
  -18   24   16     10.56     -0.12
  -16   24   16     -7.27     -0.31
  -14   24   16      2.18      0.15
  -12   24   16    -15.56     -0.61
  -10   24   16     12.40     -0.51
   -8   24   16     12.93     -0.89
   -6   24   16    -10.21     -2.51
   -4   24   16     -9.72     -0.17
   -2   24   16     -6.23     -0.72
    0   24   16     23.11     -0.63
    2   24   16      3.60     -0.44
    4   24   16     -7.83      0.14
    6   24   16     -7.82     -0.29
    8   24   16     -6.82     -0.14
   10   24   16      4.65      0.18
   12   24   16      0.27     -0.22
   14   24   16     -4.47      0.64
  -23   25   16     -4.95      0.11
  -21   25   16      2.85     -0.14
  -19   25   16      5.60     -0.04
  -17   25   16     -2.51      0.11
  -15   25   16      4.90      0.18
  -13   25   16     -1.73     -0.20
  -11   25   16    -11.80      0.39
   -9   25   16      7.83     -0.82
   -7   25   16      2.92     -1.32
   -5   25   16    -17.78     -0.04
   -3   25   16    -13.79     -0.01
   -1   25   16     -0.86      0.37
    1   25   16     22.43     -0.32
    3   25   16     21.13      0.06
    5   25   16      9.30      0.78
    7   25   16     -5.27     -0.07
    9   25   16     -4.50     -0.36
   11   25   16      0.75      0.44
   13   25   16     11.52     -0.08
   15   25   16      7.09     -0.42
  -22   26   16    -13.69      0.11
  -20   26   16     -5.47     -0.03
  -18   26   16    -12.69      0.25
  -16   26   16     -0.62     -0.07
  -14   26   16     15.65      0.30
  -12   26   16      4.31     -0.22
  -10   26   16     12.46     -0.20
   -8   26   16      7.22     -0.84
   -6   26   16     -3.64     -1.28
   -4   26   16      3.50      0.08
   -2   26   16     -0.24     -0.17
    0   26   16      9.23     -0.01
    2   26   16     -5.16      0.18
    4   26   16     -0.01      0.20
    6   26   16      4.52     -0.23
    8   26   16     -6.70     -0.43
   10   26   16     -5.90      0.38
   12   26   16     -8.93     -0.06
   14   26   16      1.43     -0.02
  -21   27   16     -5.34     -0.16
  -19   27   16     -3.43      0.00
  -17   27   16     -0.53     -0.02
  -15   27   16     -0.42      0.18
  -13   27   16     -4.78     -0.09
  -11   27   16     -5.90      0.26
   -9   27   16     14.92      0.32
   -7   27   16      4.49     -0.51
   -5   27   16      7.27     -0.55
   -3   27   16      8.36     -0.40
   -1   27   16      3.54      0.03
    1   27   16     10.07     -0.43
    3   27   16     -5.31     -0.09
    5   27   16     -2.48      0.00
    7   27   16     -6.67     -0.05
    9   27   16      2.06      0.63
   11   27   16     -5.68      0.16
   13   27   16     -1.87      0.14
  -20   28   16     15.99     -0.04
  -18   28   16     -6.17      0.29
  -16   28   16     11.70     -0.11
  -14   28   16     -3.62      0.20
  -12   28   16     -3.70     -0.03
  -10   28   16     -0.05      0.06
   -8   28   16      2.86      0.49
   -6   28   16      4.69      1.33
   -4   28   16      5.90      0.14
   -2   28   16      0.92      0.12
    0   28   16      3.72     -0.14
    2   28   16      8.97     -0.17
    4   28   16     11.81     -0.25
    6   28   16     -0.67     -0.06
    8   28   16      4.77     -0.75
   10   28   16      8.38      0.58
   12   28   16      0.43      0.56
   14   28   16      1.55     -0.05
  -21   29   16      3.68     -0.06
  -19   29   16     -2.65      0.12
  -17   29   16      7.72      0.15
  -15   29   16     -0.71      0.06
  -13   29   16     -4.76     -0.45
  -11   29   16      9.31     -0.44
   -9   29   16     13.15      0.32
   -7   29   16     -8.32      0.46
   -5   29   16     -1.61      0.42
   -3   29   16     -0.03      0.38
   -1   29   16     -9.31      0.20
    1   29   16     -7.49     -0.51
    3   29   16     -2.88     -0.11
    5   29   16     10.00      0.05
    7   29   16      4.26     -0.32
    9   29   16     -7.49      0.39
   11   29   16    -24.14     -0.04
   13   29   16      1.86      0.22
  -20   30   16      3.36      0.06
  -18   30   16     -9.58      0.14
  -16   30   16     10.06      0.02
  -14   30   16    -12.22      0.44
  -12   30   16      4.31      0.37
  -10   30   16      1.89      0.35
   -8   30   16      1.41      0.83
   -6   30   16     13.83      0.87
   -4   30   16      9.63     -0.83
   -2   30   16     -0.85     -0.07
    0   30   16     -0.36     -0.07
    2   30   16      2.54     -0.05
    4   30   16      6.68     -0.36
    6   30   16     -4.70      0.31
    8   30   16      9.98     -0.18
   10   30   16      3.23      0.47
   12   30   16     -9.35      0.41
  -19   31   16     -5.42      0.19
  -17   31   16      3.98     -0.01
  -15   31   16     -2.50     -0.14
  -13   31   16     -6.40     -0.21
  -11   31   16      6.48     -0.21
   -9   31   16     -3.89     -0.02
   -7   31   16    -10.03      0.41
   -5   31   16      6.45      0.19
   -3   31   16      4.79     -0.19
   -1   31   16      5.59     -0.15
    1   31   16      7.00     -0.61
    3   31   16      4.54     -0.38
    5   31   16     -7.53      0.04
    7   31   16      7.36     -0.40
    9   31   16      2.03      0.20
   11   31   16     -4.56      0.35
  -18   32   16     -5.05     -0.30
  -16   32   16     -1.37     -0.02
  -14   32   16    -18.66     -0.09
  -12   32   16    -16.08     -0.68
  -10   32   16    -11.49     -0.49
   -8   32   16      8.34      0.27
   -6   32   16      6.25      0.73
   -4   32   16    -10.95      0.13
   -2   32   16    -19.55      0.05
    0   32   16    -11.18      0.36
    2   32   16     -0.22      0.20
    4   32   16      7.05     -0.14
    6   32   16     -6.90      0.40
    8   32   16      3.15      0.27
   10   32   16     -4.46      0.39
  -17   33   16     -7.53     -0.09
  -15   33   16     -7.65      0.01
  -13   33   16     -1.12      0.32
  -11   33   16      4.75      0.40
   -9   33   16     -4.14      0.02
   -7   33   16     -3.34      0.07
   -5   33   16     15.20     -0.11
   -3   33   16     -1.23     -0.10
   -1   33   16      0.51      0.02
    1   33   16      9.19      0.07
    3   33   16     17.50      0.21
    5   33   16      5.15      0.77
    7   33   16     11.87      0.11
    9   33   16     -1.64     -0.20
   11   33   16     10.84     -0.42
  -16   34   16     -6.16     -0.05
  -14   34   16      6.15     -0.08
  -12   34   16      0.67     -0.03
  -10   34   16      0.82      0.13
   -8   34   16     15.61     -0.11
   -6   34   16     10.39     -0.11
   -4   34   16      3.69      0.03
   -2   34   16     -4.39     -0.18
    0   34   16      7.06      0.31
    2   34   16      5.04     -0.01
    4   34   16     -5.69     -0.18
    6   34   16     -2.87     -0.21
    8   34   16      3.14      0.02
   10   34   16     -2.81      0.07
  -15   35   16     -2.96      0.08
  -13   35   16      0.16     -0.29
  -11   35   16    -12.81     -0.35
   -9   35   16     14.52     -0.22
   -7   35   16     11.91     -0.12
   -5   35   16      2.65     -0.02
   -3   35   16     -5.26     -0.10
   -1   35   16    -13.60     -0.19
    1   35   16     -8.50      0.26
    3   35   16     10.25     -0.34
    5   35   16     -0.53      0.20
    7   35   16     -2.83      0.33
    9   35   16     -8.43      0.14
  -16   36   16     -9.32      0.04
  -14   36   16     10.55     -0.09
  -12   36   16      1.13      0.12
  -10   36   16     -0.56     -0.08
   -8   36   16     -0.85     -0.16
   -6   36   16      7.41     -0.13
   -4   36   16     15.94      0.09
   -2   36   16     -5.98     -0.07
    0   36   16      3.09     -0.17
    2   36   16      8.82     -0.03
    4   36   16      5.56     -0.08
    6   36   16     17.79     -0.47
    8   36   16      5.91     -0.18
  -15   37   16      8.58      0.47
  -13   37   16     16.68      0.11
  -11   37   16     -5.14      0.07
   -9   37   16      8.14      0.31
   -7   37   16     -0.95     -0.01
   -5   37   16     -5.79      0.02
   -3   37   16      8.05      0.01
   -1   37   16     -3.20     -0.27
    1   37   16     -2.51      0.03
    3   37   16      6.62     -0.36
    5   37   16      5.54     -0.12
    7   37   16      1.26      0.01
  -12   38   16     -0.78     -0.22
  -10   38   16     13.72     -0.55
   -8   38   16     11.13     -0.37
   -6   38   16     -3.87     -0.27
   -4   38   16      7.01      0.05
   -2   38   16     -0.50      0.00
    0   38   16     -1.32     -0.34
    2   38   16      9.22      0.09
    4   38   16     -3.99      0.07
    6   38   16     -6.86      0.24
  -11   39   16      8.72     -0.48
   -9   39   16      9.07     -0.10
   -7   39   16      1.39     -0.05
   -5   39   16     -1.00      0.07
   -3   39   16      6.71      0.18
   -1   39   16      4.49     -0.21
    1   39   16     11.42      0.00
    3   39   16      4.71      0.10
    5   39   16      6.53     -0.05
  -10   40   16      5.41      0.15
   -8   40   16     -1.02      0.16
   -6   40   16      0.92     -0.11
   -4   40   16     16.27      0.04
   -2   40   16     12.14      0.23
    0   40   16      1.94     -0.01
    2   40   16      5.51      0.06
   -7   41   16     -3.76      0.25
   -5   41   16     -3.43      0.40
   -3   41   16      6.37      0.30
   -1   41   16      5.04      0.02
    1   41   16     12.07      0.25
  -26    0   17      0.94     -0.40
  -24    0   17      2.68      0.39
  -22    0   17     11.55      0.06
  -20    0   17     12.39     -0.08
  -18    0   17     13.92     -0.22
  -16    0   17    -20.43      0.57
  -14    0   17     -0.11      0.06
  -12    0   17    -29.95     -0.11
  -10    0   17     -0.90     -0.01
   -8    0   17      8.00      0.17
   -6    0   17    -24.07      0.07
   -4    0   17    -72.45     -0.60
   -2    0   17    -36.02     -0.58
    0    0   17    -14.56     -0.18
    2    0   17     -1.60     -0.09
    4    0   17     -5.94      0.11
    6    0   17      0.91      0.37
    8    0   17    -12.07      0.04
   10    0   17     -6.27     -0.48
   12    0   17    -21.91      0.08
   14    0   17     -9.21     -0.52
   16    0   17     11.66     -0.06
   18    0   17     -0.25      0.47
  -27    1   17      2.73      0.30
  -25    1   17      5.49      0.09
  -23    1   17      1.01      0.16
  -21    1   17      8.65     -0.29
  -19    1   17      0.83     -0.25
  -17    1   17     11.62      0.03
  -15    1   17      2.31     -0.48
  -13    1   17     -6.08     -0.39
  -11    1   17     -1.03     -0.55
   -9    1   17     10.53     -0.42
   -7    1   17     -6.45      0.17
   -5    1   17     -7.05     -0.62
   -3    1   17     49.74     -0.24
   -1    1   17     12.96     -0.33
    1    1   17     19.93      0.33
    3    1   17      1.16      0.01
    5    1   17      7.76     -0.02
    7    1   17     -0.54      0.50
    9    1   17     30.12      0.16
   11    1   17      2.47      0.15
   13    1   17     -8.10      0.04
   15    1   17     -3.55      0.22
   17    1   17      2.76      0.24
   19    1   17      7.00      0.23
  -26    2   17     -4.33     -0.09
  -24    2   17      1.12      0.16
  -22    2   17      1.17      0.17
  -20    2   17    -10.12      0.05
  -18    2   17      3.25     -0.66
  -16    2   17     -2.73      1.04
  -14    2   17     12.74      0.29
  -12    2   17     -7.89     -0.61
  -10    2   17     21.40      1.52
   -8    2   17     15.62      0.87
   -6    2   17     14.71      0.08
   -4    2   17     26.58     -0.65
   -2    2   17     28.46     -0.15
    0    2   17      3.42      0.15
    2    2   17     11.19     -0.57
    4    2   17     12.32     -0.35
    6    2   17     11.08      0.39
    8    2   17     19.27      0.12
   10    2   17     22.21     -0.07
   12    2   17     -3.25      0.01
   14    2   17     -2.65     -0.25
   16    2   17      7.58     -0.30
   18    2   17     -3.45      0.14
  -27    3   17      2.53     -0.19
  -25    3   17     -0.99     -0.01
  -23    3   17      1.62      0.39
  -21    3   17      9.65     -0.04
  -19    3   17      5.16     -0.67
  -17    3   17    -10.15      0.13
  -15    3   17     -7.38      0.48
  -13    3   17      0.06      0.21
  -11    3   17     -6.14     -0.14
   -9    3   17    -10.75      0.08
   -7    3   17     -6.24      0.13
   -5    3   17    -42.02     -0.36
   -3    3   17    -22.56     -0.04
   -1    3   17     -7.32     -0.05
    1    3   17     -5.31      0.51
    3    3   17    -21.48      0.26
    5    3   17    -15.55     -0.21
    7    3   17    -17.31      0.16
    9    3   17     -8.56     -0.56
   11    3   17     -7.95      0.11
   13    3   17     -1.55      0.24
   15    3   17     -0.29     -0.39
   17    3   17     -2.25     -0.08
   19    3   17      8.32     -0.01
  -26    4   17    -13.62     -0.47
  -24    4   17      0.07      0.09
  -22    4   17      9.00      0.17
  -20    4   17      1.72      0.56
  -18    4   17     11.09      0.34
  -16    4   17      1.83      0.16
  -14    4   17    -17.06     -0.76
  -12    4   17    -25.25     -0.62
  -10    4   17      0.61      0.46
   -8    4   17      4.32     -0.11
   -6    4   17     -6.01     -0.35
   -4    4   17      8.30     -0.61
   -2    4   17     -9.88      0.23
    0    4   17    -20.21      0.51
    2    4   17      2.10     -0.13
    4    4   17      0.80     -0.22
    6    4   17    -17.96     -0.11
    8    4   17     -5.48     -0.39
   10    4   17     -7.38     -0.26
   12    4   17      5.56     -0.29
   14    4   17      4.69      0.18
   16    4   17      8.94     -0.02
   18    4   17     -0.67      0.17
  -27    5   17      0.52      0.13
  -25    5   17     -4.87      0.02
  -23    5   17     -0.35      0.07
  -21    5   17     -9.69     -0.11
  -19    5   17     -6.41     -0.67
  -17    5   17     -4.44     -0.39
  -15    5   17      7.26      0.15
  -13    5   17      4.80      0.12
  -11    5   17     14.29     -0.23
   -9    5   17      5.24      0.19
   -7    5   17     24.34     -0.26
   -5    5   17     30.15     -0.38
   -3    5   17      8.30     -0.07
   -1    5   17      4.10      0.25
    1    5   17     -6.14     -0.14
    3    5   17     19.11     -0.21
    5    5   17      3.73     -0.41
    7    5   17     -5.84     -0.29
    9    5   17     -4.73     -0.26
   11    5   17     -0.17      0.18
   13    5   17      5.95     -0.11
   15    5   17      7.75     -0.11
   17    5   17    -13.17      0.02
   19    5   17      2.53     -0.11
  -26    6   17     -2.33     -0.36
  -24    6   17      5.21      0.38
  -22    6   17      2.39      0.10
  -20    6   17      5.74      0.34
  -18    6   17     -3.98      0.27
  -16    6   17     -4.87     -0.18
  -14    6   17      6.63     -0.64
  -12    6   17     12.72      0.10
  -10    6   17    -13.12      0.19
   -8    6   17      8.74     -0.30
   -6    6   17     -2.42     -0.41
   -4    6   17      9.98     -0.07
   -2    6   17     20.93     -0.01
    0    6   17      8.05      0.48
    2    6   17    -22.12     -0.12
    4    6   17    -26.33     -0.67
    6    6   17     -2.55     -0.53
    8    6   17      8.59     -0.03
   10    6   17    -19.70      0.12
   12    6   17      7.53     -0.03
   14    6   17     -2.43      0.24
   16    6   17     -6.53     -0.20
   18    6   17    -10.59      0.02
  -27    7   17     -8.90      0.15
  -25    7   17    -11.45     -0.11
  -23    7   17      3.04      0.14
  -21    7   17     -6.86      0.31
  -19    7   17    -12.50      0.47
  -17    7   17      7.79     -0.06
  -15    7   17     -1.24     -0.85
  -13    7   17    -14.05      0.07
  -11    7   17      2.41      0.05
   -9    7   17     -8.54      0.34
   -7    7   17    -13.80      0.10
   -5    7   17      7.72     -0.28
   -3    7   17    -16.48     -0.37
   -1    7   17    -15.56      0.37
    1    7   17    -29.21      0.19
    3    7   17      9.13      0.11
    5    7   17    -14.36     -0.40
    7    7   17     -8.38     -0.70
    9    7   17    -11.46     -0.19
   11    7   17     -4.07      0.22
   13    7   17      6.02     -0.07
   15    7   17     11.08     -0.08
   17    7   17      1.13      0.05
   19    7   17     -6.21     -0.02
  -26    8   17     -6.67     -0.16
  -24    8   17     -2.68     -0.20
  -22    8   17     -6.38     -0.28
  -20    8   17     15.79     -0.16
  -18    8   17     -0.78     -0.13
  -16    8   17     -4.69     -0.19
  -14    8   17    -12.01     -0.05
  -12    8   17     -6.32     -0.02
  -10    8   17    -15.17     -0.49
   -8    8   17     27.88     -0.38
   -6    8   17     19.19     -0.21
   -4    8   17     12.75      0.42
   -2    8   17     11.00     -0.13
    0    8   17      2.97      0.33
    2    8   17     -8.37      0.13
    4    8   17     -0.55     -0.09
    6    8   17      5.81     -0.22
    8    8   17      0.16     -0.04
   10    8   17    -20.09      0.36
   12    8   17     -8.50     -0.22
   14    8   17      1.11      0.19
   16    8   17      1.57      0.11
   18    8   17    -18.99     -0.17
  -25    9   17      3.49      0.21
  -23    9   17      2.51      0.12
  -21    9   17      4.24      0.02
  -19    9   17    -11.04      0.19
  -17    9   17      1.59      0.45
  -15    9   17     -2.81     -0.55
  -13    9   17     12.75      0.52
  -11    9   17      4.62      0.17
   -9    9   17     14.64     -0.30
   -7    9   17     16.54      0.33
   -5    9   17     12.09      0.29
   -3    9   17      5.13     -0.44
   -1    9   17     23.47      0.01
    1    9   17     -5.11     -0.11
    3    9   17     10.22      0.09
    5    9   17     -0.08      0.45
    7    9   17     15.01      0.92
    9    9   17     -5.98      0.57
   11    9   17      2.68     -0.15
   13    9   17     12.50      0.26
   15    9   17     -4.08     -0.16
   17    9   17     -1.92      0.01
   19    9   17    -14.04     -0.01
  -26   10   17    -19.67      0.06
  -24   10   17      2.96     -0.14
  -22   10   17      7.10      0.23
  -20   10   17      4.15      0.03
  -18   10   17    -19.42      0.38
  -16   10   17     -3.94      0.12
  -14   10   17    -12.31      0.60
  -12   10   17      6.41      0.52
  -10   10   17      2.83      0.67
   -8   10   17     -2.75      0.60
   -6   10   17    -20.09      0.26
   -4   10   17      2.73      0.33
   -2   10   17      2.93     -0.23
    0   10   17     -6.69     -0.16
    2   10   17    -14.61     -0.61
    4   10   17     -4.56     -0.50
    6   10   17      0.20      0.86
    8   10   17      8.43     -0.28
   10   10   17      8.74      0.18
   12   10   17    -10.18     -0.44
   14   10   17     -3.73     -0.41
   16   10   17     14.06      0.10
   18   10   17     -5.04      0.23
  -25   11   17      6.21     -0.04
  -23   11   17     -3.97     -0.06
  -21   11   17      3.92     -0.22
  -19   11   17     -6.18     -0.27
  -17   11   17     -4.66      0.34
  -15   11   17      2.48     -0.44
  -13   11   17     14.60      0.59
  -11   11   17    -18.38      0.35
   -9   11   17     -3.65     -0.26
   -7   11   17      5.43      0.35
   -5   11   17     -9.76      0.12
   -3   11   17      5.88     -0.47
   -1   11   17     15.79     -0.27
    1   11   17    -19.76     -0.74
    3   11   17     -5.20      0.17
    5   11   17     -3.11      0.43
    7   11   17      0.81      0.43
    9   11   17     -9.82      0.32
   11   11   17     -5.79     -0.48
   13   11   17      2.49      0.19
   15   11   17      1.98     -0.25
   17   11   17      1.06     -0.02
  -26   12   17    -12.61      0.53
  -24   12   17     -5.24      0.05
  -22   12   17     -4.49      0.00
  -20   12   17      6.67     -0.54
  -18   12   17      4.85      0.51
  -16   12   17      8.86     -0.20
  -14   12   17     -5.54      0.09
  -12   12   17      2.26      0.08
  -10   12   17      6.61     -0.22
   -8   12   17     31.42     -0.19
   -6   12   17      3.31      0.52
   -4   12   17     -9.68      0.10
   -2   12   17    -29.64     -0.13
    0   12   17      4.51     -0.24
    2   12   17     18.38     -0.05
    4   12   17     26.35      0.69
    6   12   17      9.02      3.43
    8   12   17     -2.50      0.94
   10   12   17     10.22      0.39
   12   12   17      5.35      0.19
   14   12   17      2.91      0.08
   16   12   17     10.50      0.25
   18   12   17     10.84     -0.07
  -25   13   17      5.04      0.12
  -23   13   17     -2.89     -0.18
  -21   13   17     -2.69     -0.27
  -19   13   17     -7.72     -0.19
  -17   13   17     -9.00      0.27
  -15   13   17      2.81      0.47
  -13   13   17      4.58      0.32
  -11   13   17      9.06      0.48
   -9   13   17      6.24      0.21
   -7   13   17    -10.06     -0.16
   -5   13   17    -21.68      0.04
   -3   13   17      5.09      0.05
   -1   13   17     12.16      0.26
    1   13   17      3.51     -0.61
    3   13   17     13.20     -0.40
    5   13   17     -1.90      0.52
    7   13   17     -5.59      0.23
    9   13   17      4.89      0.07
   11   13   17      6.92     -0.12
   13   13   17     -2.04      0.08
   15   13   17      3.03      0.10
   17   13   17      8.99      0.45
  -26   14   17      5.47      0.13
  -24   14   17     16.06      0.24
  -22   14   17     -3.51     -0.16
  -20   14   17     -5.13     -0.64
  -18   14   17     -2.48      0.72
  -16   14   17      1.24     -0.14
  -14   14   17     19.75     -0.18
  -12   14   17      5.03      0.14
  -10   14   17    -27.48     -0.07
   -8   14   17      7.96      0.07
   -6   14   17     -1.44      0.03
   -4   14   17     13.73     -0.44
   -2   14   17    -10.10      0.01
    0   14   17     -4.49     -0.49
    2   14   17    -24.08     -0.14
    4   14   17     -3.52     -0.16
    6   14   17     -5.09      1.40
    8   14   17    -15.53      0.15
   10   14   17     -2.20     -0.03
   12   14   17     -0.07      0.18
   14   14   17      3.64     -0.11
   16   14   17     -9.36      0.18
   18   14   17     -5.21     -0.02
  -25   15   17     -6.26      0.22
  -23   15   17    -14.16     -0.16
  -21   15   17     -0.51     -0.04
  -19   15   17      2.21     -0.07
  -17   15   17     -3.48     -0.57
  -15   15   17      2.19     -0.04
  -13   15   17     -7.94     -0.54
  -11   15   17      1.89      0.09
   -9   15   17     -8.53     -0.11
   -7   15   17      0.20      0.00
   -5   15   17     -7.68      0.35
   -3   15   17    -15.57      0.33
   -1   15   17    -18.51      0.77
    1   15   17     -3.78      0.60
    3   15   17      1.56      0.37
    5   15   17     -5.84      1.31
    7   15   17    -13.24      0.87
    9   15   17      2.15      0.50
   11   15   17      8.79      0.73
   13   15   17     -4.67      0.14
   15   15   17     -3.11     -0.01
   17   15   17     15.46     -0.13
  -24   16   17     -0.81      0.03
  -22   16   17    -10.47     -0.65
  -20   16   17      2.65     -0.34
  -18   16   17     11.86     -0.05
  -16   16   17     -3.78      0.14
  -14   16   17     -9.78     -0.16
  -12   16   17    -12.64     -0.34
  -10   16   17      5.71      0.30
   -8   16   17     18.79      0.07
   -6   16   17    -13.82      0.05
   -4   16   17      3.92      0.62
   -2   16   17     -8.12      0.29
    0   16   17      6.62      0.61
    2   16   17      8.42      0.40
    4   16   17      9.87     -0.24
    6   16   17     -6.13     -0.22
    8   16   17     -9.51     -0.69
   10   16   17      6.17     -0.17
   12   16   17     12.66      0.33
   14   16   17     13.52     -0.21
   16   16   17     -8.07      0.00
  -25   17   17      2.25      0.11
  -23   17   17      0.77      0.23
  -21   17   17     15.77     -0.12
  -19   17   17      5.23     -0.02
  -17   17   17     -1.53     -0.29
  -15   17   17      2.91      0.26
  -13   17   17      4.51      0.04
  -11   17   17     -3.03     -0.05
   -9   17   17    -10.19     -0.08
   -7   17   17      8.52      0.80
   -5   17   17     -0.76      0.25
   -3   17   17      4.16      0.17
   -1   17   17      1.54      0.02
    1   17   17      2.99      0.10
    3   17   17     -6.68      0.27
    5   17   17     -3.21     -0.21
    7   17   17    -26.32     -0.55
    9   17   17     -4.32     -0.68
   11   17   17      4.28      0.02
   13   17   17      2.54      0.03
   15   17   17     -1.41     -0.04
   17   17   17      3.55     -0.22
  -24   18   17     -4.65      0.22
  -22   18   17     11.81     -0.07
  -20   18   17      0.34      0.34
  -18   18   17    -12.26     -0.80
  -16   18   17     -3.03      0.09
  -14   18   17     -2.35      0.08
  -12   18   17    -10.65      0.34
  -10   18   17      0.31      0.95
   -8   18   17    -23.53      0.00
   -6   18   17    -21.81     -0.03
   -4   18   17      6.55      0.47
   -2   18   17      1.60     -0.13
    0   18   17    -19.94      1.03
    2   18   17    -18.53      0.47
    4   18   17     -8.25      0.34
    6   18   17     -6.62     -0.10
    8   18   17     -3.40     -0.70
   10   18   17      8.78     -0.12
   12   18   17     10.88      0.10
   14   18   17      8.62     -0.18
   16   18   17      2.19     -0.18
  -23   19   17     -5.97      0.14
  -21   19   17      5.47     -0.15
  -19   19   17     -4.07      0.06
  -17   19   17      8.95     -0.20
  -15   19   17      4.64     -0.06
  -13   19   17      4.40      0.02
  -11   19   17      4.52      0.20
   -9   19   17      9.10      0.47
   -7   19   17     -5.66      0.97
   -5   19   17    -17.72      0.85
   -3   19   17     11.84     -0.19
   -1   19   17      0.55     -0.10
    1   19   17     13.59     -0.05
    3   19   17     10.97     -0.36
    5   19   17     15.59     -0.74
    7   19   17     -5.34     -0.62
    9   19   17     17.04     -0.32
   11   19   17      0.70      0.47
   13   19   17      5.93      0.17
   15   19   17     -4.47     -0.30
  -24   20   17    -11.02      0.14
  -22   20   17      5.99     -0.06
  -20   20   17     -1.62      0.06
  -18   20   17     -0.52     -0.71
  -16   20   17     11.65     -0.13
  -14   20   17      5.43      0.10
  -12   20   17     -5.27      0.12
  -10   20   17     10.06      0.06
   -8   20   17     -1.43      0.10
   -6   20   17      1.23      0.17
   -4   20   17     -3.40     -0.13
   -2   20   17     22.92     -0.26
    0   20   17     12.05     -0.20
    2   20   17     11.82      0.30
    4   20   17     10.57      0.00
    6   20   17      2.12     -0.33
    8   20   17      4.37     -0.33
   10   20   17     11.51     -0.23
   12   20   17      1.47     -0.01
   14   20   17     -3.26      0.43
   16   20   17     14.67     -0.10
  -23   21   17      7.00      0.11
  -21   21   17      0.15     -0.08
  -19   21   17    -15.59     -0.10
  -17   21   17      6.32     -0.05
  -15   21   17      1.37     -0.22
  -13   21   17     -8.35      0.02
  -11   21   17     -6.88      0.22
   -9   21   17      7.84      0.47
   -7   21   17     -0.16      0.18
   -5   21   17     -9.97      1.30
   -3   21   17      3.64     -0.54
   -1   21   17    -23.76      0.11
    1   21   17     -1.28      0.31
    3   21   17      6.72      0.39
    5   21   17      9.23      1.38
    7   21   17    -16.61      0.26
    9   21   17      0.62     -0.19
   11   21   17     -2.94      0.10
   13   21   17     19.26      0.21
   15   21   17      7.81      0.19
  -22   22   17     -7.44     -0.02
  -20   22   17    -18.93      0.06
  -18   22   17     -7.01     -0.13
  -16   22   17      5.06     -0.13
  -14   22   17     14.14      0.20
  -12   22   17      6.53      0.09
  -10   22   17      1.12      0.22
   -8   22   17     -3.87     -0.10
   -6   22   17      1.70      0.51
   -4   22   17      3.97     -0.41
   -2   22   17     19.76     -0.11
    0   22   17     -2.06     -0.45
    2   22   17     -6.35      0.21
    4   22   17     -6.10     -0.44
    6   22   17     -2.05      0.44
    8   22   17      9.50      0.32
   10   22   17     -3.40     -0.34
   12   22   17     -9.97     -0.50
   14   22   17    -15.54      0.13
  -23   23   17      1.61     -0.34
  -21   23   17    -16.41     -0.20
  -19   23   17    -14.89     -0.38
  -17   23   17     -4.97     -0.23
  -15   23   17     -5.13     -0.45
  -13   23   17      1.04      0.22
  -11   23   17     -7.42     -0.14
   -9   23   17     -1.47      0.32
   -7   23   17     13.12     -1.32
   -5   23   17     11.67     -0.18
   -3   23   17     19.40     -0.43
   -1   23   17     10.21      0.26
    1   23   17     25.10      0.14
    3   23   17      4.23     -0.12
    5   23   17      8.07      0.59
    7   23   17      4.18      0.62
    9   23   17     11.56      0.82
   11   23   17      7.94     -0.42
   13   23   17      4.79      0.04
   15   23   17     -2.72      0.18
  -22   24   17     -5.26     -0.16
  -20   24   17     -2.52     -0.11
  -18   24   17      7.30      0.25
  -16   24   17      3.36      0.30
  -14   24   17      6.80      0.18
  -12   24   17     -7.85     -0.46
  -10   24   17     -9.69      0.22
   -8   24   17     29.25      0.05
   -6   24   17     29.94      1.98
   -4   24   17     10.21      0.46
   -2   24   17    -12.68     -0.37
    0   24   17    -12.39      0.02
    2   24   17      9.05      0.59
    4   24   17      8.92      0.40
    6   24   17     -7.32      1.16
    8   24   17     -2.63     -0.04
   10   24   17     -0.97      0.11
   12   24   17     21.94     -0.02
   14   24   17      4.61      0.01
  -21   25   17     -3.06      0.27
  -19   25   17      8.42     -0.01
  -17   25   17     -3.16      0.15
  -15   25   17     -9.98     -0.05
  -13   25   17     10.28      0.46
  -11   25   17      4.25      0.18
   -9   25   17     -3.85      0.57
   -7   25   17      2.82     -0.92
   -5   25   17      2.33     -0.25
   -3   25   17      2.73     -0.49
   -1   25   17     -5.98     -0.33
    1   25   17     -2.36     -0.19
    3   25   17    -25.88     -0.02
    5   25   17    -14.97      0.20
    7   25   17    -12.65      0.39
    9   25   17    -27.18     -0.32
   11   25   17    -11.81     -1.92
   13   25   17    -10.53     -0.62
  -22   26   17     -8.02      0.10
  -20   26   17     -3.19      0.08
  -18   26   17     -6.61      0.21
  -16   26   17     -9.52      0.06
  -14   26   17     14.69      0.40
  -12   26   17      6.33      0.04
  -10   26   17    -19.00      0.45
   -8   26   17     -0.71      0.07
   -6   26   17     -0.63      0.15
   -4   26   17     16.13     -0.31
   -2   26   17      1.68     -0.25
    0   26   17      9.28      0.65
    2   26   17      6.46     -0.06
    4   26   17     -0.59     -0.48
    6   26   17     -4.80      0.52
    8   26   17     -6.28      0.43
   10   26   17     -0.45      0.50
   12   26   17     13.10     -0.32
   14   26   17     -6.34     -0.03
  -21   27   17      3.80     -0.06
  -19   27   17      2.95     -0.06
  -17   27   17     -0.08      0.36
  -15   27   17      9.54      0.17
  -13   27   17     22.58      0.07
  -11   27   17      4.76      0.31
   -9   27   17     -0.71      0.13
   -7   27   17     15.66      0.50
   -5   27   17     20.12      0.71
   -3   27   17     17.53     -0.51
   -1   27   17     -1.09     -0.14
    1   27   17    -10.76     -0.04
    3   27   17     -6.17      0.15
    5   27   17      5.84      0.08
    7   27   17     15.77      0.21
    9   27   17     -1.76     -0.24
   11   27   17      6.58     -0.01
   13   27   17     -3.19      0.21
  -20   28   17      8.19     -0.01
  -18   28   17      6.81      0.06
  -16   28   17     -1.61     -0.15
  -14   28   17     -5.60      0.25
  -12   28   17    -10.61     -0.13
  -10   28   17     -6.76     -0.07
   -8   28   17      3.91      0.72
   -6   28   17     -4.58      0.03
   -4   28   17      5.14      0.10
   -2   28   17    -15.85     -0.33
    0   28   17     -9.76      0.61
    2   28   17    -17.39      0.09
    4   28   17    -14.79     -0.40
    6   28   17     -8.60     -0.35
    8   28   17    -20.13     -0.26
   10   28   17     -3.12     -0.14
   12   28   17     -1.84     -0.45
  -19   29   17     -4.60      0.22
  -17   29   17     -1.27      0.20
  -15   29   17      2.95      0.03
  -13   29   17     11.15     -0.04
  -11   29   17      2.55      0.27
   -9   29   17    -13.44     -0.19
   -7   29   17    -25.56      1.29
   -5   29   17    -17.57      0.77
   -3   29   17     -0.33      0.17
   -1   29   17      5.01      0.52
    1   29   17     -4.32     -0.21
    3   29   17      5.98     -0.03
    5   29   17     -4.59     -0.02
    7   29   17     -4.26      0.33
    9   29   17     -5.05     -0.50
   11   29   17      0.10      0.08
  -20   30   17      2.30     -0.15
  -18   30   17      3.27     -0.21
  -16   30   17     16.45     -0.50
  -14   30   17     11.74     -0.01
  -12   30   17      4.67      0.08
  -10   30   17      8.69     -0.22
   -8   30   17      0.20      0.05
   -6   30   17     -2.44     -0.53
   -4   30   17      9.49     -0.14
   -2   30   17     11.29     -0.34
    0   30   17      4.27      0.38
    2   30   17     -9.10      0.21
    4   30   17     -3.52      0.14
    6   30   17     13.69     -0.03
    8   30   17     10.46     -0.31
   10   30   17      8.33      0.10
   12   30   17    -12.78      0.32
  -19   31   17    -10.01     -0.10
  -17   31   17      8.24     -0.06
  -15   31   17      2.93      0.06
  -13   31   17     -5.82     -0.12
  -11   31   17    -11.41     -0.03
   -9   31   17      2.31     -0.20
   -7   31   17     -6.38      0.83
   -5   31   17     -6.22      0.10
   -3   31   17     -6.65      0.22
   -1   31   17     -0.26      0.32
    1   31   17     -5.49     -0.02
    3   31   17      7.92      0.08
    5   31   17     -2.09     -0.44
    7   31   17     -5.54     -0.18
    9   31   17     10.50     -0.54
   11   31   17     10.39      0.05
  -18   32   17      0.36      0.01
  -16   32   17      6.92     -0.29
  -14   32   17     -6.80      0.27
  -12   32   17    -10.47      0.47
  -10   32   17    -11.21     -0.11
   -8   32   17    -30.72     -0.03
   -6   32   17    -17.68      0.25
   -4   32   17    -10.20      0.23
   -2   32   17      4.08      0.01
    0   32   17     12.53     -0.22
    2   32   17      4.05      0.05
    4   32   17     -3.89      0.13
    6   32   17     -3.43     -0.21
    8   32   17      6.18     -0.70
   10   32   17     14.68     -0.31
  -17   33   17     12.63     -0.27
  -15   33   17      8.80     -0.09
  -13   33   17      4.64     -0.14
  -11   33   17    -12.23     -0.04
   -9   33   17      1.43     -0.29
   -7   33   17    -17.02     -0.52
   -5   33   17    -14.54     -0.39
   -3   33   17      0.75      0.09
   -1   33   17     13.78     -0.01
    1   33   17      9.19     -0.11
    3   33   17     11.96      0.09
    5   33   17      2.99      0.12
    7   33   17      0.79      0.25
    9   33   17      3.41     -0.03
  -16   34   17      4.56      0.13
  -14   34   17     -0.81      0.27
  -12   34   17     -4.15      0.10
  -10   34   17     -2.66     -0.26
   -8   34   17      2.65     -0.46
   -6   34   17      7.60     -0.11
   -4   34   17      4.35     -0.34
   -2   34   17     11.13     -0.15
    0   34   17     11.47     -0.07
    2   34   17     -0.98      0.41
    4   34   17      0.65      0.15
    6   34   17     -7.62     -0.03
    8   34   17      3.35     -0.36
  -15   35   17     -5.15     -0.23
  -13   35   17     -3.27      0.21
  -11   35   17    -11.73      0.32
   -9   35   17     -7.76      0.04
   -7   35   17    -17.79     -0.54
   -5   35   17     -0.16     -0.16
   -3   35   17     -2.79     -0.03
   -1   35   17      0.27     -0.24
    1   35   17      0.08     -0.41
    3   35   17     -8.83     -0.17
    5   35   17     -5.49     -0.11
    7   35   17      1.18     -0.24
  -14   36   17     -0.33      0.02
  -12   36   17     -6.26     -0.40
  -10   36   17    -12.35     -0.28
   -8   36   17     10.16     -0.28
   -6   36   17     -1.30      0.26
   -4   36   17      3.45     -0.07
   -2   36   17     13.09     -0.12
    0   36   17      1.45      0.16
    2   36   17     -7.24      0.05
    4   36   17      2.45     -0.41
    6   36   17    -11.47     -0.12
  -13   37   17      1.65      0.41
  -11   37   17      4.04     -0.02
   -9   37   17      6.76     -0.14
   -7   37   17      0.43     -0.34
   -5   37   17     17.10      0.01
   -3   37   17     16.18     -0.09
   -1   37   17      7.75     -0.21
    1   37   17     -3.29      0.03
    3   37   17     -3.61      0.02
    5   37   17      4.66      0.23
  -12   38   17      4.98      0.00
  -10   38   17     -2.44      0.36
   -8   38   17      7.85      0.02
   -6   38   17      1.62     -0.10
   -4   38   17    -10.13     -0.26
   -2   38   17    -11.90     -0.10
    0   38   17     -7.71     -0.19
    2   38   17     -7.81     -0.33
    4   38   17      2.49     -0.14
  -11   39   17      2.83     -0.33
   -9   39   17     15.79     -0.09
   -7   39   17      9.24     -0.17
   -5   39   17     -0.64     -0.15
   -3   39   17      0.79     -0.44
   -1   39   17     -3.17     -0.43
    1   39   17    -10.39      0.08
    3   39   17      3.71     -0.36
   -8   40   17      1.89     -0.04
   -6   40   17     12.20     -0.27
   -4   40   17      0.41     -0.20
   -2   40   17     -2.25      0.00
    0   40   17     -4.32      0.04
   -5   41   17    -10.05     -0.34
   -3   41   17    -11.83     -0.26
  -26    0   18     12.92     -0.03
  -24    0   18      9.17     -0.37
  -22    0   18     -2.25      0.06
  -20    0   18     11.54      0.73
  -18    0   18      5.06      0.63
  -16    0   18     13.58      0.38
  -14    0   18      6.71      0.18
  -12    0   18     -6.51     -0.26
  -10    0   18      8.33      0.24
   -8    0   18     -3.50     -0.23
   -6    0   18      9.16      0.82
   -4    0   18     18.47      0.16
   -2    0   18     40.27      0.37
    0    0   18     -0.58     -0.13
    2    0   18     42.23      0.37
    4    0   18     34.83      0.06
    6    0   18     30.07     -0.03
    8    0   18      2.87      0.51
   10    0   18      9.01     -0.74
   12    0   18     16.02     -0.22
   14    0   18     12.50      0.03
   16    0   18     24.16     -0.14
   18    0   18      1.83      0.06
  -27    1   18     -7.06      0.29
  -25    1   18    -10.47      0.21
  -23    1   18     -7.97      0.35
  -21    1   18     -7.92      0.25
  -19    1   18     -5.48     -0.41
  -17    1   18    -12.19     -0.57
  -15    1   18     -0.35      0.32
  -13    1   18      4.86      0.18
  -11    1   18      2.67     -0.44
   -9    1   18    -14.81      0.22
   -7    1   18     14.86      0.29
   -5    1   18     -9.52      0.27
   -3    1   18    -15.42     -0.04
   -1    1   18     -1.42     -0.61
    1    1   18     -0.89     -0.04
    3    1   18      7.11      0.07
    5    1   18     24.06     -0.24
    7    1   18     19.20      0.45
    9    1   18      7.84     -0.42
   11    1   18     21.81      0.14
   13    1   18     12.60      0.07
   15    1   18      6.46      0.02
   17    1   18     -5.47     -0.49
  -26    2   18    -13.33     -0.10
  -24    2   18     -4.45      0.14
  -22    2   18     -5.94     -0.02
  -20    2   18      4.54      0.70
  -18    2   18    -14.99     -0.04
  -16    2   18    -15.73      0.06
  -14    2   18      4.55     -0.58
  -12    2   18      2.66     -0.59
  -10    2   18     -2.12     -1.28
   -8    2   18    -14.02     -0.80
   -6    2   18     -7.49      0.13
   -4    2   18    -23.01     -0.31
   -2    2   18     14.82     -0.66
    0    2   18    -12.44     -0.62
    2    2   18     -8.33     -0.08
    4    2   18    -12.80      0.03
    6    2   18     16.69     -0.12
    8    2   18      1.90      0.56
   10    2   18     -0.84     -0.20
   12    2   18      3.27      0.27
   14    2   18     -9.25      0.20
   16    2   18      3.94     -0.54
   18    2   18     -3.91     -0.03
  -27    3   18      8.56      0.32
  -25    3   18     10.49      0.18
  -23    3   18      0.72      0.38
  -21    3   18     -7.60      0.25
  -19    3   18     -8.54      0.16
  -17    3   18     10.33      0.12
  -15    3   18      9.10      0.14
  -13    3   18      3.47      0.41
  -11    3   18      2.58     -1.05
   -9    3   18     -8.91     -0.78
   -7    3   18     -9.12     -0.14
   -5    3   18      9.33     -0.19
   -3    3   18     16.81      0.05
   -1    3   18     -0.74     -0.52
    1    3   18     -0.84     -0.23
    3    3   18     25.32     -0.04
    5    3   18     17.01      0.05
    7    3   18    -10.19      0.25
    9    3   18     -0.12     -0.23
   11    3   18     10.51      0.20
   13    3   18     10.22      0.04
   15    3   18     -0.24      0.49
   17    3   18     -3.87     -0.41
  -26    4   18     -9.39      0.03
  -24    4   18      0.04      0.39
  -22    4   18     -8.20     -0.04
  -20    4   18      6.58      0.47
  -18    4   18     -1.69     -1.01
  -16    4   18    -14.28     -0.27
  -14    4   18     -0.59     -0.58
  -12    4   18    -10.90     -0.42
  -10    4   18     -8.77     -0.61
   -8    4   18      6.86     -0.14
   -6    4   18     28.13      0.37
   -4    4   18    -17.54      0.64
   -2    4   18     -4.88     -0.24
    0    4   18      4.83     -0.20
    2    4   18      4.45     -0.30
    4    4   18     10.66      0.54
    6    4   18     11.47      0.57
    8    4   18     -8.67      0.43
   10    4   18    -10.33      0.26
   12    4   18      1.54      0.33
   14    4   18     -1.87      0.47
   16    4   18      0.41     -0.09
   18    4   18     -9.70      0.00
  -27    5   18     -6.16      0.04
  -25    5   18      8.23     -0.04
  -23    5   18     -0.80      0.09
  -21    5   18     -4.20     -0.39
  -19    5   18    -14.67      0.10
  -17    5   18     -6.61      0.40
  -15    5   18    -12.32     -0.28
  -13    5   18     15.48      0.67
  -11    5   18      8.38     -0.24
   -9    5   18     -2.84     -0.69
   -7    5   18    -13.66     -0.27
   -5    5   18    -21.03     -0.29
   -3    5   18    -14.82     -0.13
   -1    5   18     -7.63     -0.65
    1    5   18    -14.21      0.16
    3    5   18    -15.58      0.66
    5    5   18    -20.47      0.24
    7    5   18    -23.00     -0.07
    9    5   18    -23.09     -0.25
   11    5   18    -22.63     -0.10
   13    5   18    -15.66     -0.07
   15    5   18    -33.84      0.16
   17    5   18     -6.28     -0.05
  -26    6   18      0.07      0.13
  -24    6   18     15.38      0.19
  -22    6   18     -5.62     -0.30
  -20    6   18    -14.75      0.05
  -18    6   18     -3.55     -0.29
  -16    6   18      5.56      0.13
  -14    6   18      0.73      0.30
  -12    6   18    -13.99      0.16
  -10    6   18    -12.71      0.16
   -8    6   18    -20.69      0.11
   -6    6   18     -1.10     -0.10
   -4    6   18      0.78     -0.01
   -2    6   18    -18.57     -0.17
    0    6   18    -10.10     -0.18
    2    6   18    -26.23     -0.37
    4    6   18     -1.22      0.24
    6    6   18    -18.10      0.05
    8    6   18     -1.54     -0.56
   10    6   18      0.88      0.37
   12    6   18     -9.09     -0.40
   14    6   18    -20.99     -0.18
   16    6   18    -13.21     -0.01
   18    6   18    -19.91     -0.08
  -25    7   18     15.70     -0.11
  -23    7   18     -6.32     -0.31
  -21    7   18     -4.45     -0.50
  -19    7   18      0.97     -0.47
  -17    7   18     -7.12     -0.50
  -15    7   18     -6.20     -0.62
  -13    7   18     18.06     -0.01
  -11    7   18     -7.15      0.38
   -9    7   18    -21.07      0.40
   -7    7   18      7.65      0.39
   -5    7   18     -1.16      0.50
   -3    7   18      6.50      0.11
   -1    7   18     30.78     -0.54
    1    7   18     13.71      0.21
    3    7   18     -2.56      1.03
    5    7   18     -3.23     -0.37
    7    7   18      9.68     -0.73
    9    7   18     -4.04     -0.20
   11    7   18    -10.09     -0.06
   13    7   18     -1.37      0.24
   15    7   18     -9.94      0.09
   17    7   18      7.75      0.25
  -26    8   18     -7.99      0.01
  -24    8   18     -0.39     -0.43
  -22    8   18     -5.83     -0.48
  -20    8   18     -4.49     -0.21
  -18    8   18      6.19      0.58
  -16    8   18      5.52      0.46
  -14    8   18    -10.86      0.56
  -12    8   18     -0.28      0.32
  -10    8   18     12.62      0.67
   -8    8   18     33.96     -0.09
   -6    8   18      6.62     -0.19
   -4    8   18     -5.64     -0.05
   -2    8   18    -36.54     -0.22
    0    8   18     13.98     -0.11
    2    8   18     -8.02      0.24
    4    8   18      7.03     -0.10
    6    8   18    -15.41      0.01
    8    8   18      8.93     -0.50
   10    8   18     -8.20      0.12
   12    8   18     -6.08     -0.39
   14    8   18    -23.96     -0.09
   16    8   18    -10.02      0.02
   18    8   18     -3.40     -0.09
  -25    9   18     -3.05      0.09
  -23    9   18      0.35      0.08
  -21    9   18      2.00      0.27
  -19    9   18      3.96      0.10
  -17    9   18     -5.33      0.29
  -15    9   18      1.15      1.19
  -13    9   18    -10.32      0.35
  -11    9   18     -7.01      0.23
   -9    9   18    -25.34      0.36
   -7    9   18     -7.17      0.16
   -5    9   18    -15.78      0.10
   -3    9   18     -4.90     -0.28
   -1    9   18     16.19     -0.74
    1    9   18      2.95     -0.51
    3    9   18      4.45      0.70
    5    9   18    -10.86     -0.79
    7    9   18     -2.59     -0.53
    9    9   18     -1.73      0.16
   11    9   18     -4.81      0.17
   13    9   18    -16.86     -0.15
   15    9   18    -10.30     -0.37
   17    9   18     -3.08      0.10
  -26   10   18      8.88     -0.03
  -24   10   18      5.56     -0.19
  -22   10   18      0.70      0.14
  -20   10   18      6.93     -0.54
  -18   10   18     -7.48      0.14
  -16   10   18     -7.72     -0.17
  -14   10   18      1.51     -0.23
  -12   10   18     10.75      0.16
  -10   10   18    -22.90      0.71
   -8   10   18     14.52     -0.15
   -6   10   18     -5.52     -0.38
   -4   10   18     14.89     -0.10
   -2   10   18      1.12     -0.49
    0   10   18     35.34     -0.19
    2   10   18     -8.17      0.17
    4   10   18     14.77     -0.69
    6   10   18     14.61     -0.64
    8   10   18     32.73     -0.07
   10   10   18      2.64     -0.10
   12   10   18      9.89     -0.02
   14   10   18      4.38      0.58
   16   10   18      3.62      0.31
   18   10   18     10.62      0.00
  -25   11   18    -19.90     -0.28
  -23   11   18      1.80     -0.07
  -21   11   18      2.20      0.34
  -19   11   18     -1.01     -0.07
  -17   11   18     -4.85     -0.31
  -15   11   18      3.39      0.53
  -13   11   18     -6.66     -0.22
  -11   11   18     25.87      0.13
   -9   11   18     18.88     -0.01
   -7   11   18     27.34     -0.27
   -5   11   18      6.73      0.01
   -3   11   18     -3.47      0.06
   -1   11   18      8.31      0.17
    1   11   18     11.05     -0.24
    3   11   18     18.84     -0.09
    5   11   18     -1.05     -0.83
    7   11   18     12.03      0.77
    9   11   18     13.59      0.78
   11   11   18     11.86      0.67
   13   11   18     -1.70      0.19
   15   11   18     -6.78     -0.43
   17   11   18      2.56     -0.23
  -26   12   18     -4.90     -0.16
  -24   12   18     -1.43     -0.04
  -22   12   18      0.90      0.51
  -20   12   18     13.26     -0.25
  -18   12   18     -4.58      0.42
  -16   12   18     -3.89      0.65
  -14   12   18    -14.16      0.20
  -12   12   18     -4.95     -0.14
  -10   12   18    -12.91      0.10
   -8   12   18      9.95     -0.12
   -6   12   18    -14.45     -0.57
   -4   12   18      0.99      0.33
   -2   12   18     -0.64     -0.30
    0   12   18     19.50      0.40
    2   12   18      3.67      1.06
    4   12   18     17.15      0.45
    6   12   18      2.66     -0.32
    8   12   18      2.02      0.14
   10   12   18    -19.79     -0.13
   12   12   18    -19.65     -0.11
   14   12   18     -0.19     -0.01
   16   12   18     -1.96     -0.29
  -25   13   18      7.95     -0.07
  -23   13   18     10.02      0.37
  -21   13   18     -9.36     -0.23
  -19   13   18     -3.99     -0.56
  -17   13   18     -1.55     -0.56
  -15   13   18     -0.92     -0.35
  -13   13   18     -0.65      0.09
  -11   13   18     -9.54     -0.10
   -9   13   18    -14.07     -0.57
   -7   13   18     10.88     -0.16
   -5   13   18     -0.79     -0.10
   -3   13   18    -20.39     -0.16
   -1   13   18    -18.46      0.29
    1   13   18     -4.43      0.00
    3   13   18      8.85      0.19
    5   13   18      5.61     -0.75
    7   13   18      2.09      0.53
    9   13   18      0.24      0.30
   11   13   18      0.98     -0.20
   13   13   18     16.43      0.44
   15   13   18     -1.31      0.25
   17   13   18      1.46      0.07
  -24   14   18     13.46     -0.29
  -22   14   18      9.78      0.13
  -20   14   18      4.70     -0.05
  -18   14   18    -14.17     -0.32
  -16   14   18      0.30      0.09
  -14   14   18     -1.12     -0.08
  -12   14   18     18.88     -0.32
  -10   14   18     16.18      0.01
   -8   14   18     -9.37     -0.45
   -6   14   18     -0.81     -0.80
   -4   14   18     17.82      0.17
   -2   14   18     10.95     -0.36
    0   14   18    -11.26      0.30
    2   14   18    -15.60      0.06
    4   14   18    -10.59     -0.84
    6   14   18      8.36     -0.35
    8   14   18     15.26     -0.06
   10   14   18      0.03     -0.10
   12   14   18     -7.07     -0.24
   14   14   18     -0.69     -0.24
   16   14   18    -12.43     -0.01
  -25   15   18     11.47     -0.19
  -23   15   18      6.90      0.22
  -21   15   18    -13.63     -0.37
  -19   15   18      4.26      0.04
  -17   15   18      5.73      0.00
  -15   15   18     -0.76     -0.10
  -13   15   18     12.20      0.56
  -11   15   18     -0.62     -0.18
   -9   15   18     -2.86      0.32
   -7   15   18     -0.99      0.00
   -5   15   18     -1.87     -0.26
   -3   15   18      5.98     -0.43
   -1   15   18     -2.36      0.00
    1   15   18     -0.67      0.44
    3   15   18     -3.86      0.77
    5   15   18      5.05     -0.81
    7   15   18      1.59     -0.55
    9   15   18      1.98      0.19
   11   15   18    -21.10     -0.57
   13   15   18      6.07      0.00
   15   15   18     -8.02     -0.41
   17   15   18     -1.80     -0.34
  -24   16   18     -1.72      0.03
  -22   16   18    -14.45      0.21
  -20   16   18      4.95      0.24
  -18   16   18     12.95     -0.17
  -16   16   18     11.19     -0.12
  -14   16   18     -2.62      0.01
  -12   16   18     -8.05     -0.04
  -10   16   18    -16.10     -0.60
   -8   16   18    -24.23     -0.11
   -6   16   18      0.00      0.68
   -4   16   18    -25.61      0.31
   -2   16   18    -23.84     -0.18
    0   16   18    -26.70     -0.53
    2   16   18     -8.58      0.62
    4   16   18    -10.12     -0.10
    6   16   18     -2.88      0.44
    8   16   18    -15.41      0.10
   10   16   18    -10.37      0.07
   12   16   18      0.25     -0.08
   14   16   18      3.89      0.07
   16   16   18      3.78      0.22
  -25   17   18      6.63     -0.03
  -23   17   18      7.48      0.02
  -21   17   18      3.28      0.27
  -19   17   18     11.38      0.58
  -17   17   18      0.80      0.03
  -15   17   18     -7.14      0.17
  -13   17   18     -3.86      0.10
  -11   17   18     10.85     -0.81
   -9   17   18      1.87     -0.16
   -7   17   18    -19.18     -0.75
   -5   17   18    -16.81      0.21
   -3   17   18      1.61     -0.58
   -1   17   18    -15.95     -0.52
    1   17   18    -13.89      0.27
    3   17   18    -13.39      0.28
    5   17   18      1.86      0.19
    7   17   18     -1.72     -0.40
    9   17   18     -1.18     -0.09
   11   17   18    -12.51     -0.78
   13   17   18     13.04      0.00
   15   17   18     -7.39      0.14
  -24   18   18     10.37      0.14
  -22   18   18     -2.03     -0.03
  -20   18   18      7.76      0.14
  -18   18   18      0.25     -0.05
  -16   18   18    -13.61     -0.18
  -14   18   18      6.56      0.15
  -12   18   18      8.22      0.49
  -10   18   18      2.72      0.05
   -8   18   18     -5.36      0.44
   -6   18   18      3.21      0.40
   -4   18   18     -1.34     -0.35
   -2   18   18     25.52      0.38
    0   18   18      4.09     -0.57
    2   18   18     -7.38      0.51
    4   18   18     -4.40     -0.77
    6   18   18     12.85      0.05
    8   18   18     11.93      0.24
   10   18   18     10.26     -0.09
   12   18   18      8.36     -0.25
   14   18   18      1.79     -0.16
   16   18   18      2.98      0.11
  -23   19   18     -3.22      0.16
  -21   19   18      5.59      0.43
  -19   19   18     -2.93      0.31
  -17   19   18    -13.01     -0.03
  -15   19   18      1.86     -0.25
  -13   19   18     -0.20      0.07
  -11   19   18     -1.22     -0.48
   -9   19   18    -26.65      0.15
   -7   19   18    -17.50      0.46
   -5   19   18    -21.12      1.18
   -3   19   18     -5.01      0.86
   -1   19   18      0.44      0.22
    1   19   18     -4.95      0.28
    3   19   18    -10.20      0.03
    5   19   18      5.38      0.31
    7   19   18     -3.41     -0.09
    9   19   18     -4.35      0.28
   11   19   18     -5.30     -0.13
   13   19   18     -6.10      0.01
   15   19   18     -3.31      0.05
  -24   20   18      8.55      0.40
  -22   20   18      5.19      0.04
  -20   20   18     16.32      0.60
  -18   20   18     17.40      0.38
  -16   20   18     -1.64      0.28
  -14   20   18     -3.21     -0.16
  -12   20   18    -17.94     -0.17
  -10   20   18     12.99     -0.20
   -8   20   18     18.69      0.01
   -6   20   18      4.60      0.47
   -4   20   18    -15.69      0.38
   -2   20   18     -9.87      0.12
    0   20   18    -12.71      0.13
    2   20   18      0.11      0.38
    4   20   18      9.59     -0.01
    6   20   18      3.84      0.57
    8   20   18     -0.51      0.04
   10   20   18     -5.74     -0.35
   12   20   18      2.32     -0.26
   14   20   18     -3.05     -0.26
  -23   21   18     11.99      0.08
  -21   21   18     14.61     -0.06
  -19   21   18      3.95     -0.23
  -17   21   18    -12.18     -0.11
  -15   21   18     -8.74     -0.61
  -13   21   18      7.22      0.22
  -11   21   18     18.23     -0.21
   -9   21   18     12.94      0.15
   -7   21   18     30.50      0.05
   -5   21   18     -0.55     -0.52
   -3   21   18      4.63      0.71
   -1   21   18     21.36      0.00
    1   21   18     11.15     -0.47
    3   21   18     -1.93     -0.62
    5   21   18      7.10     -0.72
    7   21   18      4.56      0.00
    9   21   18      7.53     -0.38
   11   21   18      4.90     -0.72
   13   21   18     -9.66     -0.43
   15   21   18     -0.40      0.28
  -22   22   18      6.15     -0.08
  -20   22   18     -6.55     -0.07
  -18   22   18     -7.41     -0.14
  -16   22   18     -7.73      0.09
  -14   22   18     12.26      0.02
  -12   22   18    -12.19      0.19
  -10   22   18    -11.55      0.17
   -8   22   18    -12.58      0.00
   -6   22   18      7.83     -0.91
   -4   22   18      6.87      0.77
   -2   22   18      7.57      0.65
    0   22   18      3.09      0.92
    2   22   18     -1.35     -0.25
    4   22   18      3.22     -0.05
    6   22   18      6.08     -0.18
    8   22   18     -0.71      0.09
   10   22   18     -9.23      0.31
   12   22   18     -2.12      0.14
   14   22   18     -3.71      0.20
  -23   23   18      3.82      0.21
  -21   23   18      1.45      0.14
  -19   23   18      4.05      0.15
  -17   23   18      3.48      0.54
  -15   23   18     -0.41      0.21
  -13   23   18     14.01      0.51
  -11   23   18      3.57      0.36
   -9   23   18      6.78      0.26
   -7   23   18     28.84     -0.35
   -5   23   18      2.19     -0.40
   -3   23   18     -9.43      0.60
   -1   23   18     -9.92      0.14
    1   23   18     -0.74     -0.11
    3   23   18     -0.69      0.04
    5   23   18      0.81     -0.14
    7   23   18      1.57      0.67
    9   23   18      2.94      0.15
   11   23   18     -9.88      0.70
   13   23   18    -10.34     -0.24
  -22   24   18     -3.80     -0.26
  -20   24   18     -2.36     -0.23
  -18   24   18     11.84     -0.16
  -16   24   18     -8.27     -0.25
  -14   24   18     -3.15      0.20
  -12   24   18     -2.72     -0.15
  -10   24   18     13.79     -0.25
   -8   24   18     15.18      0.07
   -6   24   18     18.32     -2.03
   -4   24   18     -4.66      0.09
   -2   24   18     -6.63     -0.34
    0   24   18      7.42      0.02
    2   24   18      1.87     -0.09
    4   24   18     -9.67      0.27
    6   24   18      3.14     -0.63
    8   24   18     -2.29      0.38
   10   24   18      2.79      0.44
   12   24   18      7.93     -0.17
   14   24   18      1.62      0.48
  -21   25   18      0.25     -0.14
  -19   25   18      8.89     -0.16
  -17   25   18     -2.13      0.14
  -15   25   18    -14.46      0.09
  -13   25   18      0.75      0.13
  -11   25   18    -13.55      0.40
   -9   25   18    -11.74      0.37
   -7   25   18     -2.15     -0.58
   -5   25   18    -16.15     -0.15
   -3   25   18    -10.24      0.59
   -1   25   18    -13.00      0.49
    1   25   18      6.91      0.01
    3   25   18      7.01      0.55
    5   25   18      3.51      0.47
    7   25   18     -5.69      0.89
    9   25   18     -6.75      0.55
   11   25   18    -11.06      1.29
   13   25   18     11.54      0.13
  -20   26   18     -6.85     -0.08
  -18   26   18     -5.52      0.10
  -16   26   18     -3.28      0.16
  -14   26   18      9.46      0.70
  -12   26   18     14.29      0.25
  -10   26   18      0.07      0.39
   -8   26   18     -9.55      0.19
   -6   26   18    -10.13     -0.76
   -4   26   18    -11.96      0.77
   -2   26   18     -4.22      0.09
    0   26   18    -12.00      0.38
    2   26   18    -19.84      0.52
    4   26   18    -16.31      0.48
    6   26   18      6.18     -0.16
    8   26   18     -1.36      0.18
   10   26   18     -9.34      0.67
   12   26   18     -9.60      0.15
  -21   27   18     -1.84     -0.38
  -19   27   18     11.40     -0.28
  -17   27   18      1.38     -0.04
  -15   27   18     -6.16      0.05
  -13   27   18     -2.84      0.29
  -11   27   18      2.45      0.24
   -9   27   18      2.69      0.45
   -7   27   18     -8.18     -0.10
   -5   27   18    -18.26     -0.08
   -3   27   18     -2.11      0.05
   -1   27   18     -8.40      0.06
    1   27   18      2.50     -0.09
    3   27   18    -12.77      0.40
    5   27   18      3.97     -0.43
    7   27   18      8.30      0.05
    9   27   18     14.33      0.29
   11   27   18      7.92      0.16
  -20   28   18     18.95     -0.03
  -18   28   18      1.16      0.07
  -16   28   18      8.02     -0.10
  -14   28   18     -7.68     -0.09
  -12   28   18     -1.71     -0.29
  -10   28   18    -11.95      0.01
   -8   28   18     -2.71      0.01
   -6   28   18    -14.29      0.72
   -4   28   18    -15.71      0.45
   -2   28   18      4.14     -0.24
    0   28   18     -3.09      0.01
    2   28   18      2.12      0.13
    4   28   18      6.84     -0.16
    6   28   18     -1.22     -0.05
    8   28   18      7.46     -0.54
   10   28   18      7.35      0.25
   12   28   18      0.72      0.41
  -19   29   18      3.95     -0.04
  -17   29   18     -1.91      0.23
  -15   29   18      7.35     -0.02
  -13   29   18     -6.33     -0.08
  -11   29   18      7.37     -0.42
   -9   29   18      1.11     -0.24
   -7   29   18    -13.32      0.06
   -5   29   18    -20.28      0.79
   -3   29   18     -1.28      0.40
   -1   29   18     -6.25     -0.09
    1   29   18     -7.09     -0.41
    3   29   18    -13.63     -0.15
    5   29   18      5.27     -0.43
    7   29   18     -5.24     -0.05
    9   29   18    -16.92     -0.27
   11   29   18    -22.17     -0.55
  -18   30   18     -7.98     -0.06
  -16   30   18     14.86     -0.07
  -14   30   18     -3.38      0.08
  -12   30   18     12.69      0.35
  -10   30   18      1.73      0.37
   -8   30   18     10.44      0.30
   -6   30   18     -4.88      0.49
   -4   30   18     -9.29     -0.55
   -2   30   18      1.18     -0.40
    0   30   18      0.36      0.00
    2   30   18      2.38     -0.07
    4   30   18     11.63     -0.60
    6   30   18     -4.46      0.03
    8   30   18      9.84     -0.48
   10   30   18      7.62     -0.43
  -17   31   18     -6.37     -0.09
  -15   31   18      6.18     -0.58
  -13   31   18     -2.09     -0.23
  -11   31   18     14.87     -0.16
   -9   31   18      2.45     -0.34
   -7   31   18      4.05     -0.27
   -5   31   18      5.03      0.19
   -3   31   18      2.49     -0.19
   -1   31   18      1.84     -0.22
    1   31   18      3.40     -0.27
    3   31   18      4.43     -0.22
    5   31   18     -1.32     -0.19
    7   31   18     -0.83     -0.09
    9   31   18      1.19     -0.34
  -18   32   18    -13.91     -0.21
  -16   32   18      1.11      0.00
  -14   32   18    -14.58     -0.10
  -12   32   18     -8.59     -0.22
  -10   32   18    -14.16     -0.07
   -8   32   18     21.14      0.36
   -6   32   18     10.89      0.50
   -4   32   18     -3.16      0.25
   -2   32   18     -7.91      0.00
    0   32   18     -4.31      0.31
    2   32   18      0.84      0.11
    4   32   18      6.34     -0.33
    6   32   18    -16.33      0.48
    8   32   18    -10.70      0.24
  -17   33   18     -9.62     -0.05
  -15   33   18     -4.68     -0.18
  -13   33   18      9.57      0.45
  -11   33   18     16.32      0.68
   -9   33   18     -4.58      0.43
   -7   33   18      2.07      0.01
   -5   33   18     14.73     -0.11
   -3   33   18     -2.65      0.11
   -1   33   18     -4.62      0.12
    1   33   18      2.03      0.03
    3   33   18     15.65      0.02
    5   33   18      8.33      0.45
    7   33   18      1.21      0.27
    9   33   18     -3.64     -0.09
  -16   34   18     -5.89      0.04
  -14   34   18      1.85     -0.12
  -12   34   18     14.51      0.18
  -10   34   18      2.65      0.43
   -8   34   18     21.02      0.22
   -6   34   18      9.83     -0.27
   -4   34   18     -4.44      0.23
   -2   34   18    -13.00      0.30
    0   34   18     -2.53      0.54
    2   34   18     -2.90      0.28
    4   34   18    -10.82     -0.10
    6   34   18     -8.27     -0.05
    8   34   18      1.32      0.09
  -15   35   18     -6.47      0.07
  -13   35   18     10.28      0.10
  -11   35   18     -8.67      0.18
   -9   35   18      0.94      0.32
   -7   35   18     10.86     -0.02
   -5   35   18      2.75     -0.15
   -3   35   18     -1.22      0.10
   -1   35   18    -12.05     -0.01
    1   35   18    -15.48      0.34
    3   35   18     -1.73     -0.22
    5   35   18     -4.79      0.15
    7   35   18     -9.99      0.32
  -14   36   18      7.52     -0.22
  -12   36   18      7.88      0.22
  -10   36   18    -14.32      0.09
   -8   36   18    -12.31      0.04
   -6   36   18      1.54     -0.26
   -4   36   18      7.98      0.19
   -2   36   18     -2.20      0.25
    0   36   18      1.82     -0.21
    2   36   18     -1.30      0.02
    4   36   18     -2.62     -0.02
    6   36   18     10.45     -0.33
  -13   37   18     18.84      0.03
  -11   37   18     -4.35      0.09
   -9   37   18     -2.47      0.30
   -7   37   18    -11.63      0.02
   -5   37   18    -23.73     -0.09
   -3   37   18     -5.07      0.28
   -1   37   18     -7.50      0.03
    1   37   18     -8.99      0.01
    3   37   18     -6.39     -0.30
  -10   38   18     -4.65     -0.40
   -8   38   18      0.36     -0.30
   -6   38   18    -10.90     -0.35
   -4   38   18     -7.81     -0.13
   -2   38   18     -1.58     -0.10
    0   38   18     -5.58     -0.49
    2   38   18     -3.41      0.14
   -9   39   18     -6.58      0.10
   -7   39   18     -8.21      0.15
   -5   39   18     -5.82     -0.14
   -3   39   18      0.24      0.06
   -1   39   18      2.26     -0.21
    1   39   18      6.22     -0.18
   -6   40   18     -7.16      0.04
   -4   40   18      4.64     -0.07
   -2   40   18      9.16      0.22
  -26    0   19     -5.73     -0.09
  -24    0   19    -15.28     -0.33
  -22    0   19    -12.94     -0.17
  -20    0   19     -0.12     -0.28
  -18    0   19     11.88     -0.61
  -16    0   19    -19.29      0.13
  -14    0   19     -6.53     -0.27
  -12    0   19    -18.57     -0.23
  -10    0   19      7.19     -0.28
   -8    0   19      9.47     -0.10
   -6    0   19     13.21     -0.14
   -4    0   19    -54.91      0.09
   -2    0   19    -25.59      0.31
    0    0   19    -13.14      0.05
    2    0   19     -0.81     -0.53
    4    0   19    -25.05      0.15
    6    0   19      0.32     -0.40
    8    0   19     -6.94      0.13
   10    0   19      2.24     -0.25
   12    0   19     -7.59      0.23
   14    0   19      0.66     -0.40
   16    0   19     19.61      0.10
   18    0   19     12.05      0.27
  -25    1   19     10.32     -0.45
  -23    1   19     -4.97     -0.10
  -21    1   19     -1.19     -0.35
  -19    1   19      2.30      0.28
  -17    1   19      9.98      0.12
  -15    1   19     -7.96      0.26
  -13    1   19      9.47      0.21
  -11    1   19     -2.52     -0.45
   -9    1   19     14.97     -0.11
   -7    1   19    -11.93     -0.27
   -5    1   19      2.76     -0.09
   -3    1   19     27.01      0.29
   -1    1   19     12.46      0.13
    1    1   19      6.41      0.43
    3    1   19     -4.48      0.09
    5    1   19     -5.94      0.07
    7    1   19      0.45      0.04
    9    1   19     21.14      0.41
   11    1   19      9.69     -0.30
   13    1   19      4.42     -0.11
   15    1   19     -2.28      0.29
   17    1   19     22.35      0.14
  -26    2   19      7.11     -0.18
  -24    2   19      4.56     -0.36
  -22    2   19      1.66      0.03
  -20    2   19     -4.43      0.41
  -18    2   19      4.53     -0.19
  -16    2   19     -0.11      0.40
  -14    2   19     11.08     -0.03
  -12    2   19      0.05     -0.56
  -10    2   19     22.67      0.07
   -8    2   19     -0.93     -0.08
   -6    2   19     12.55     -0.23
   -4    2   19      7.60     -0.40
   -2    2   19     19.14      0.40
    0    2   19     -3.06      0.05
    2    2   19      0.36     -0.62
    4    2   19     -2.08     -0.25
    6    2   19     10.06     -0.06
    8    2   19     12.98      0.50
   10    2   19     20.66     -0.20
   12    2   19      1.11     -0.15
   14    2   19      5.93     -0.34
   16    2   19     15.97     -0.15
   18    2   19      6.20     -0.17
  -25    3   19    -11.37     -0.40
  -23    3   19     -6.61      0.19
  -21    3   19      0.17      0.00
  -19    3   19      6.34     -0.07
  -17    3   19     -5.99     -0.40
  -15    3   19    -17.62      0.09
  -13    3   19      4.18     -0.17
  -11    3   19      0.79     -0.35
   -9    3   19     -1.98      0.08
   -7    3   19      1.36     -0.37
   -5    3   19    -10.92     -0.05
   -3    3   19    -23.08      0.39
   -1    3   19     -3.58      0.25
    1    3   19      2.36      0.31
    3    3   19    -22.31     -0.22
    5    3   19    -18.14     -0.16
    7    3   19     -7.51      0.00
    9    3   19     -4.53     -0.04
   11    3   19     -5.28     -0.23
   13    3   19      7.88     -0.18
   15    3   19     -1.45     -0.43
   17    3   19      2.64     -0.20
  -26    4   19     -6.50     -0.54
  -24    4   19     -4.95     -0.15
  -22    4   19      6.94      0.27
  -20    4   19     -1.11      0.91
  -18    4   19      0.22      0.86
  -16    4   19      4.25      0.46
  -14    4   19    -17.19     -0.23
  -12    4   19    -20.28      0.18
  -10    4   19      9.99      0.54
   -8    4   19     -2.50      0.07
   -6    4   19     -0.36     -0.08
   -4    4   19     10.12     -0.39
   -2    4   19     -6.39      0.75
    0    4   19     -8.63      0.52
    2    4   19      1.22     -0.28
    4    4   19     11.73     -0.05
    6    4   19     -2.26     -0.16
    8    4   19     -0.69      0.04
   10    4   19     -9.43     -0.38
   12    4   19     -5.93     -0.48
   14    4   19      3.63     -0.22
   16    4   19      1.02     -0.05
   18    4   19     -8.23     -0.13
  -25    5   19     -2.92     -0.24
  -23    5   19     16.03      0.04
  -21    5   19     -4.22      0.01
  -19    5   19     -3.78      0.10
  -17    5   19     -1.79     -0.22
  -15    5   19      7.59      0.15
  -13    5   19      6.05     -0.07
  -11    5   19     20.59     -0.34
   -9    5   19     -8.76      0.05
   -7    5   19     -1.01     -0.26
   -5    5   19     14.77     -0.46
   -3    5   19    -12.81      0.07
   -1    5   19    -11.29      0.18
    1    5   19     -0.52     -0.21
    3    5   19      8.93     -0.37
    5    5   19     14.18      0.19
    7    5   19     -1.63      0.20
    9    5   19     -1.80     -0.30
   11    5   19     -9.76     -0.14
   13    5   19      2.94     -0.41
   15    5   19      0.74      0.00
   17    5   19    -15.43      0.13
  -26    6   19     -2.04     -0.45
  -24    6   19      4.29      0.05
  -22    6   19     12.71     -0.02
  -20    6   19      8.34      0.40
  -18    6   19     -6.96      0.11
  -16    6   19      4.52     -0.20
  -14    6   19     -1.33     -0.97
  -12    6   19     15.59      0.05
  -10    6   19     -5.08      0.49
   -8    6   19    -13.70     -0.09
   -6    6   19     -3.27     -0.38
   -4    6   19     10.98     -0.03
   -2    6   19      2.43      0.19
    0    6   19     16.28      0.60
    2    6   19    -22.17     -0.27
    4    6   19    -28.81      0.17
    6    6   19    -13.49     -0.38
    8    6   19     13.58     -0.19
   10    6   19    -11.15     -0.15
   12    6   19      2.72     -0.09
   14    6   19      5.07      0.01
   16    6   19     -8.75     -0.15
  -25    7   19    -18.78     -0.23
  -23    7   19      7.02     -0.23
  -21    7   19    -15.80      0.02
  -19    7   19    -15.62      0.48
  -17    7   19      4.00      0.04
  -15    7   19      5.03     -0.26
  -13    7   19    -18.45      0.24
  -11    7   19      8.31      0.20
   -9    7   19    -16.01      0.63
   -7    7   19    -14.52      0.70
   -5    7   19      5.90     -0.22
   -3    7   19    -11.70      0.10
   -1    7   19    -14.73      0.36
    1    7   19     -1.22      0.11
    3    7   19      8.62      0.40
    5    7   19      5.42      0.33
    7    7   19     -7.57     -0.29
    9    7   19      1.59     -0.60
   11    7   19     -5.92      0.34
   13    7   19      5.36     -0.16
   15    7   19     -0.08      0.04
   17    7   19     -4.54      0.00
  -26    8   19      1.45     -0.10
  -24    8   19     -0.72     -0.17
  -22    8   19     -3.58     -0.42
  -20    8   19     10.90      0.03
  -18    8   19     -2.17     -0.13
  -16    8   19     10.09      0.06
  -14    8   19    -12.68     -0.56
  -12    8   19     -2.74     -0.19
  -10    8   19    -20.12     -0.34
   -8    8   19    -11.77     -0.06
   -6    8   19     11.34     -0.24
   -4    8   19      2.99      0.62
   -2    8   19    -17.88      0.11
    0    8   19      7.12      0.43
    2    8   19     -5.87     -0.29
    4    8   19      5.16      0.69
    6    8   19      1.07     -0.23
    8    8   19      5.77     -0.39
   10    8   19    -13.75      0.08
   12    8   19    -14.88     -0.06
   14    8   19     -0.34      0.29
   16    8   19     -0.73      0.23
  -25    9   19      3.30      0.20
  -23    9   19      3.68     -0.35
  -21    9   19     -2.94     -0.12
  -19    9   19      5.00      0.04
  -17    9   19     10.96      0.12
  -15    9   19      4.35     -0.56
  -13    9   19      4.94     -0.03
  -11    9   19      8.83     -0.14
   -9    9   19     -7.82     -0.23
   -7    9   19     12.47      0.35
   -5    9   19      9.23      0.29
   -3    9   19      3.50      0.23
   -1    9   19      6.02      0.21
    1    9   19     14.92     -0.23
    3    9   19     -2.40      0.19
    5    9   19     -4.94      0.19
    7    9   19     -5.63      0.21
    9    9   19      1.52     -0.12
   11    9   19      3.93     -0.12
   13    9   19     21.19     -0.02
   15    9   19      0.29     -0.01
   17    9   19      5.75      0.07
  -26   10   19     -9.75      0.17
  -24   10   19     -5.21     -0.22
  -22   10   19      3.11     -0.03
  -20   10   19      9.00      0.03
  -18   10   19    -11.59      0.00
  -16   10   19      2.33      0.46
  -14   10   19    -14.27      0.28
  -12   10   19      0.40      0.43
  -10   10   19      1.65      0.54
   -8   10   19    -11.98      0.98
   -6   10   19      3.16      0.18
   -4   10   19     10.65      0.56
   -2   10   19     10.61      0.28
    0   10   19     20.01      0.21
    2   10   19     -1.63     -0.72
    4   10   19      2.72     -0.32
    6   10   19     -0.72     -0.08
    8   10   19      9.64     -0.67
   10   10   19     19.91      0.21
   12   10   19      2.21      0.00
   14   10   19      5.21      0.07
   16   10   19      9.95      0.27
  -25   11   19     11.10      0.16
  -23   11   19     -5.16      0.09
  -21   11   19     -1.80      0.21
  -19   11   19      4.52     -0.30
  -17   11   19     -4.92      0.29
  -15   11   19     -0.40     -0.48
  -13   11   19      9.61      0.02
  -11   11   19     -6.56     -0.01
   -9   11   19    -22.73     -0.18
   -7   11   19      7.88      0.25
   -5   11   19     -4.74      0.16
   -3   11   19      4.56      0.19
   -1   11   19     -2.29      0.18
    1   11   19      0.76     -0.72
    3   11   19     -7.05     -0.10
    5   11   19      5.51     -0.26
    7   11   19     -3.43     -0.12
    9   11   19      1.83      0.25
   11   11   19     -2.08     -0.25
   13   11   19      4.68      0.18
   15   11   19      5.21      0.01
   17   11   19     10.01      0.22
  -24   12   19     -9.04     -0.01
  -22   12   19     -4.87      0.19
  -20   12   19      8.74     -0.13
  -18   12   19     11.72      0.53
  -16   12   19      3.87      0.13
  -14   12   19     -9.43     -0.54
  -12   12   19     -3.44     -0.24
  -10   12   19      9.76     -0.50
   -8   12   19     21.75     -0.23
   -6   12   19     26.80      0.13
   -4   12   19     -0.01      0.13
   -2   12   19    -21.39      0.12
    0   12   19      1.41     -0.15
    2   12   19      3.81     -0.34
    4   12   19     14.97      0.30
    6   12   19      6.19      1.94
    8   12   19     -4.26      0.62
   10   12   19     10.69      0.48
   12   12   19      0.35     -0.13
   14   12   19      7.72     -0.19
   16   12   19      4.77      0.13
  -25   13   19      6.59      0.14
  -23   13   19      4.00      0.08
  -21   13   19      1.88      0.30
  -19   13   19     -4.22     -0.29
  -17   13   19    -13.64      0.38
  -15   13   19     -4.31      0.58
  -13   13   19     -5.69      0.17
  -11   13   19     12.46      0.09
   -9   13   19      0.74      0.22
   -7   13   19      6.27      0.07
   -5   13   19     -5.48     -0.11
   -3   13   19     20.16      0.39
   -1   13   19     12.04      0.58
    1   13   19     14.22     -0.34
    3   13   19      0.29     -0.36
    5   13   19     -2.86     -0.21
    7   13   19     -3.00     -0.12
    9   13   19     14.08      0.19
   11   13   19     17.26      0.16
   13   13   19      5.78      0.34
   15   13   19      9.53      0.15
  -24   14   19     14.76      0.15
  -22   14   19      0.58      0.13
  -20   14   19    -13.69     -0.66
  -18   14   19     -7.69      0.70
  -16   14   19    -11.20     -0.02
  -14   14   19     14.84     -0.43
  -12   14   19     10.78      0.17
  -10   14   19    -10.68     -0.31
   -8   14   19    -11.22     -0.04
   -6   14   19     -0.55     -0.18
   -4   14   19      8.60     -0.22
   -2   14   19     -7.68      0.35
    0   14   19     -7.43     -0.38
    2   14   19    -26.76     -0.35
    4   14   19     -4.11      0.08
    6   14   19      2.27      0.49
    8   14   19     -3.58     -0.24
   10   14   19      9.09      0.07
   12   14   19     -7.02      0.06
   14   14   19     10.92      0.00
   16   14   19     -7.44      0.39
  -25   15   19    -12.23      0.15
  -23   15   19     -8.89      0.01
  -21   15   19     -9.58      0.40
  -19   15   19     -8.02      0.46
  -17   15   19     -5.98     -0.07
  -15   15   19     -0.80      0.03
  -13   15   19     -7.26     -0.56
  -11   15   19     12.88     -0.26
   -9   15   19     -3.46     -0.51
   -7   15   19      3.87     -0.28
   -5   15   19     -5.19     -0.37
   -3   15   19    -10.23      0.11
   -1   15   19    -24.02      0.21
    1   15   19    -11.89      0.07
    3   15   19    -16.81      0.35
    5   15   19    -14.89      0.84
    7   15   19     -4.95      0.45
    9   15   19      2.16      0.23
   11   15   19      4.98      0.47
   13   15   19    -14.08     -0.22
   15   15   19     -4.67     -0.44
  -24   16   19     -1.63     -0.21
  -22   16   19    -11.72     -0.51
  -20   16   19     -6.49     -0.25
  -18   16   19     14.26      0.45
  -16   16   19      2.96      0.24
  -14   16   19     -9.56      0.12
  -12   16   19    -16.89      0.02
  -10   16   19     12.49      0.00
   -8   16   19      9.96     -0.05
   -6   16   19     -6.74     -0.46
   -4   16   19     -0.04      0.30
   -2   16   19     -4.06      0.11
    0   16   19      5.78      0.05
    2   16   19      1.37      0.11
    4   16   19      4.33      0.62
    6   16   19      0.75     -0.23
    8   16   19     -3.60     -0.49
   10   16   19      5.30     -0.02
   12   16   19      0.49      0.42
   14   16   19     21.16     -0.13
   16   16   19     -7.10      0.07
  -23   17   19     -2.69      0.03
  -21   17   19     -0.81     -0.46
  -19   17   19      4.37      0.33
  -17   17   19      7.77     -0.14
  -15   17   19      4.07      0.22
  -13   17   19      9.29      0.12
  -11   17   19      4.28     -0.15
   -9   17   19     -2.14     -0.47
   -7   17   19      0.43      0.26
   -5   17   19    -11.47     -0.20
   -3   17   19    -10.40      0.46
   -1   17   19      2.32     -0.23
    1   17   19      8.38     -0.48
    3   17   19     -0.36      0.34
    5   17   19      3.24     -0.08
    7   17   19     -9.56     -0.74
    9   17   19     -4.18     -0.69
   11   17   19      1.30      0.15
   13   17   19     -5.63     -0.06
   15   17   19      4.54      0.14
  -24   18   19    -14.79     -0.01
  -22   18   19     -1.54      0.07
  -20   18   19     -2.66      0.67
  -18   18   19     -8.67     -0.06
  -16   18   19      4.30      0.04
  -14   18   19      0.76     -0.16
  -12   18   19     -4.18      0.30
  -10   18   19      9.52      0.37
   -8   18   19    -21.15     -0.76
   -6   18   19    -17.15     -1.13
   -4   18   19     -8.22     -0.23
   -2   18   19      1.54     -0.49
    0   18   19    -11.55      0.41
    2   18   19    -12.23      0.09
    4   18   19    -13.13      0.52
    6   18   19     -0.06     -0.69
    8   18   19     -8.87     -0.88
   10   18   19      2.09     -0.51
   12   18   19      1.61      0.14
   14   18   19      7.92     -0.09
  -23   19   19     -7.94      0.14
  -21   19   19      3.44     -0.49
  -19   19   19      7.01      0.42
  -17   19   19     12.13     -0.12
  -15   19   19     -1.01      0.33
  -13   19   19      1.84      0.20
  -11   19   19     -5.77      0.01
   -9   19   19     14.74      0.08
   -7   19   19     -7.93      0.11
   -5   19   19    -18.75     -0.04
   -3   19   19     -6.98     -0.17
   -1   19   19     11.92     -0.66
    1   19   19     17.64     -0.39
    3   19   19      6.65      0.03
    5   19   19     10.94     -0.50
    7   19   19     -6.00     -0.26
    9   19   19     10.68      0.11
   11   19   19     -4.75      0.69
   13   19   19     -0.60     -0.01
   15   19   19     -3.26     -0.02
  -22   20   19      3.84      0.07
  -20   20   19      6.75      0.15
  -18   20   19      5.38     -0.26
  -16   20   19     20.61      0.11
  -14   20   19      6.45     -0.38
  -12   20   19     -1.04      0.29
  -10   20   19      5.47     -0.17
   -8   20   19     -4.22     -0.24
   -6   20   19      7.84     -0.31
   -4   20   19    -15.96     -0.35
   -2   20   19     18.14     -0.34
    0   20   19     11.74     -0.14
    2   20   19     19.57      0.20
    4   20   19      2.56      0.19
    6   20   19      5.74     -0.70
    8   20   19    -12.66     -0.26
   10   20   19      5.52     -0.18
   12   20   19     -5.23     -0.07
   14   20   19     -3.58      0.24
  -23   21   19      1.42      0.40
  -21   21   19      2.38      0.04
  -19   21   19    -13.42      0.38
  -17   21   19     -0.40      0.10
  -15   21   19     -3.12     -0.03
  -13   21   19     -2.87     -0.32
  -11   21   19     -4.69     -0.22
   -9   21   19     13.74     -0.07
   -7   21   19      1.67     -0.57
   -5   21   19     10.83      0.08
   -3   21   19     -1.62     -0.48
   -1   21   19    -13.50     -0.02
    1   21   19      3.29      0.26
    3   21   19      5.88      0.20
    5   21   19      6.80      0.18
    7   21   19    -22.07     -0.05
    9   21   19     -1.46     -0.23
   11   21   19     -7.42      0.19
   13   21   19     15.07     -0.06
  -22   22   19      5.29      0.21
  -20   22   19    -12.86      0.02
  -18   22   19    -13.37     -0.24
  -16   22   19     -0.03      0.16
  -14   22   19     -0.39     -0.17
  -12   22   19      5.10      0.32
  -10   22   19     -5.53     -0.03
   -8   22   19    -13.71      0.40
   -6   22   19     10.78      0.05
   -4   22   19      6.48     -0.61
   -2   22   19     29.05     -0.32
    0   22   19     -2.96     -0.35
    2   22   19     -3.67      0.18
    4   22   19    -23.43     -0.33
    6   22   19     -8.84     -0.01
    8   22   19     -1.73      0.38
   10   22   19      5.11      0.18
   12   22   19    -14.40     -0.30
   14   22   19    -12.35      0.13
  -21   23   19     -1.60     -0.19
  -19   23   19     -9.79     -0.22
  -17   23   19      2.07      0.02
  -15   23   19     -5.83     -0.43
  -13   23   19     -1.07      0.18
  -11   23   19      0.57     -0.06
   -9   23   19    -13.78      0.42
   -7   23   19     -3.49     -0.14
   -5   23   19     25.23     -0.37
   -3   23   19     15.70     -0.34
   -1   23   19      0.53      0.30
    1   23   19     17.48      0.00
    3   23   19     -0.49     -0.07
    5   23   19     -2.26     -0.08
    7   23   19     -5.41      0.20
    9   23   19     12.07      0.56
   11   23   19      2.88     -0.06
   13   23   19      5.44     -0.18
  -22   24   19      3.70      0.05
  -20   24   19     -5.75      0.27
  -18   24   19      7.94      0.30
  -16   24   19      8.51      0.62
  -14   24   19     -1.94     -0.16
  -12   24   19      4.15     -0.53
  -10   24   19      1.17     -0.28
   -8   24   19     15.50      0.64
   -6   24   19     37.16      0.76
   -4   24   19     15.66      0.18
   -2   24   19     -9.80     -0.22
    0   24   19    -25.91     -0.03
    2   24   19     14.21      0.14
    4   24   19     10.17      0.06
    6   24   19      3.65      0.37
    8   24   19      9.00     -0.29
   10   24   19      5.78      0.27
   12   24   19      9.29      0.16
  -21   25   19     -2.11      0.20
  -19   25   19      6.52     -0.16
  -17   25   19      2.91     -0.01
  -15   25   19    -20.72     -0.55
  -13   25   19     -7.93      0.35
  -11   25   19     12.34     -0.21
   -9   25   19    -13.63      0.21
   -7   25   19     -2.72     -0.03
   -5   25   19     11.92     -0.60
   -3   25   19      5.19     -0.34
   -1   25   19     -7.75     -0.29
    1   25   19     -1.22     -0.50
    3   25   19    -22.32     -0.16
    5   25   19    -17.67     -0.01
    7   25   19     -5.48      0.28
    9   25   19    -10.82      0.15
   11   25   19    -12.18     -0.61
   13   25   19     -9.79     -0.14
  -20   26   19      0.31     -0.05
  -18   26   19      8.50     -0.14
  -16   26   19     -2.93      0.06
  -14   26   19     -4.85     -0.03
  -12   26   19      0.86     -0.07
  -10   26   19    -17.02      0.13
   -8   26   19    -26.49      0.66
   -6   26   19    -10.34     -0.12
   -4   26   19      1.93     -0.12
   -2   26   19     -3.59     -0.07
    0   26   19      0.28      0.42
    2   26   19     14.23     -0.25
    4   26   19     -3.46      0.01
    6   26   19     -0.99      0.16
    8   26   19      2.47      0.12
   10   26   19     -2.51      0.45
   12   26   19      7.26      0.07
  -19   27   19     10.41     -0.24
  -17   27   19      3.82      0.19
  -15   27   19      2.34     -0.12
  -13   27   19     14.58      0.09
  -11   27   19     13.53     -0.18
   -9   27   19    -12.71     -0.41
   -7   27   19      4.28     -0.04
   -5   27   19      1.59     -0.02
   -3   27   19     -5.59      0.00
   -1   27   19     -9.72     -0.11
    1   27   19    -11.55      0.00
    3   27   19     -1.55      0.18
    5   27   19     10.68     -0.03
    7   27   19     30.66     -0.08
    9   27   19     16.25     -0.35
   11   27   19      7.23      0.11
  -20   28   19      3.43     -0.08
  -18   28   19      8.32     -0.24
  -16   28   19     -9.46     -0.31
  -14   28   19    -22.59     -0.17
  -12   28   19    -25.40     -0.31
  -10   28   19     -7.88     -0.63
   -8   28   19     -2.25     -0.19
   -6   28   19      0.90     -0.43
   -4   28   19     -8.45      0.10
   -2   28   19    -13.87     -0.24
    0   28   19      3.63      0.33
    2   28   19     -1.55     -0.07
    4   28   19    -14.34      0.17
    6   28   19     -0.69     -0.33
    8   28   19    -14.98      0.04
   10   28   19     -2.74     -0.06
  -19   29   19      0.91      0.06
  -17   29   19     -7.66      0.16
  -15   29   19     -4.65     -0.12
  -13   29   19      0.32     -0.18
  -11   29   19     -0.18      0.02
   -9   29   19    -17.58     -0.58
   -7   29   19    -18.18      0.41
   -5   29   19    -17.08      0.24
   -3   29   19     -7.60      0.30
   -1   29   19     12.49      0.00
    1   29   19      4.56     -0.26
    3   29   19      7.43      0.22
    5   29   19     -5.40      0.06
    7   29   19     -8.64      0.24
    9   29   19    -13.16     -0.40
  -18   30   19     -1.96     -0.11
  -16   30   19      2.49     -0.18
  -14   30   19     12.39     -0.05
  -12   30   19      4.10      0.10
  -10   30   19     11.87     -0.25
   -8   30   19      4.65     -0.78
   -6   30   19      5.21     -0.78
   -4   30   19     -8.17     -0.20
   -2   30   19     -3.53     -0.26
    0   30   19      3.04      0.19
    2   30   19    -12.55      0.15
    4   30   19     -6.68      0.19
    6   30   19     16.54     -0.42
    8   30   19      5.64     -0.12
   10   30   19      8.43     -0.27
  -17   31   19     -6.57      0.05
  -15   31   19     -2.17      0.06
  -13   31   19     -9.77     -0.14
  -11   31   19     -3.05     -0.07
   -9   31   19     10.34     -0.49
   -7   31   19     11.45      0.38
   -5   31   19     10.79     -0.07
   -3   31   19     -5.29      0.30
   -1   31   19      0.80      0.00
    1   31   19     -0.96     -0.13
    3   31   19      5.87      0.26
    5   31   19      7.52     -0.39
    7   31   19     -2.18      0.00
    9   31   19      4.29     -0.17
  -16   32   19     -2.24      0.02
  -14   32   19     -5.99     -0.03
  -12   32   19     -1.34      0.23
  -10   32   19      5.74     -0.05
   -8   32   19     -5.22     -0.18
   -6   32   19     11.16      0.27
   -4   32   19     10.28     -0.08
   -2   32   19     12.33     -0.16
    0   32   19     20.10     -0.51
    2   32   19      2.85      0.07
    4   32   19     -1.07      0.38
    6   32   19     -5.50     -0.22
    8   32   19     -5.58     -0.18
  -15   33   19      6.60      0.15
  -13   33   19      2.59     -0.12
  -11   33   19      9.57     -0.07
   -9   33   19     12.29     -0.18
   -7   33   19     -1.90     -0.21
   -5   33   19      2.73     -0.36
   -3   33   19      0.13      0.13
   -1   33   19      2.61     -0.11
    1   33   19      2.50     -0.16
    3   33   19      1.20      0.14
    5   33   19      4.95     -0.14
    7   33   19     -3.71      0.27
  -14   34   19     -4.33      0.06
  -12   34   19      8.71     -0.11
  -10   34   19      7.33     -0.32
   -8   34   19     10.29     -0.14
   -6   34   19     11.97      0.23
   -4   34   19     12.46     -0.25
   -2   34   19      7.20      0.12
    0   34   19      7.15     -0.01
    2   34   19     -6.91      0.49
    4   34   19      2.46      0.25
    6   34   19     -0.66      0.02
  -13   35   19     -9.10      0.10
  -11   35   19     10.18      0.23
   -9   35   19     -2.43      0.27
   -7   35   19     -9.56     -0.07
   -5   35   19     14.19     -0.02
   -3   35   19      5.86      0.09
   -1   35   19      6.57      0.02
    1   35   19      8.65     -0.13
    3   35   19     -7.40      0.30
    5   35   19     -2.54      0.12
  -12   36   19     -1.08     -0.20
  -10   36   19     -8.71     -0.18
   -8   36   19     11.57      0.04
   -6   36   19     -3.99      0.49
   -4   36   19      6.47      0.15
   -2   36   19     13.86      0.23
    0   36   19      7.53      0.37
    2   36   19     -5.77      0.39
    4   36   19     -4.62     -0.16
  -11   37   19     11.45     -0.13
   -9   37   19     -5.35     -0.07
   -7   37   19     -6.59      0.04
   -5   37   19     14.07      0.45
   -3   37   19      8.54      0.26
   -1   37   19      7.12      0.19
    1   37   19     -3.61      0.10
    3   37   19     -9.44      0.11
  -10   38   19      2.44      0.25
   -8   38   19      6.15      0.26
   -6   38   19     -6.12      0.19
   -4   38   19    -12.02     -0.05
   -2   38   19    -12.04      0.23
    0   38   19      2.29      0.02
   -7   39   19      8.43      0.17
   -5   39   19      5.65      0.19
   -3   39   19     -1.12     -0.26
  -26    0   20      1.44      0.17
  -24    0   20      2.46      0.21
  -22    0   20     -8.76     -0.10
  -20    0   20      2.73      0.52
  -18    0   20      8.69      0.43
  -16    0   20     22.15      0.04
  -14    0   20      2.44      0.16
  -12    0   20     -9.16     -0.12
  -10    0   20     11.04     -0.13
   -8    0   20      3.73     -0.31
   -6    0   20     10.93      0.62
   -4    0   20     28.63     -0.07
   -2    0   20     39.91      0.76
    0    0   20     -5.69     -0.18
    2    0   20     22.39      0.27
    4    0   20     14.14     -0.43
    6    0   20      6.90     -0.42
    8    0   20    -12.26      0.65
   10    0   20     -1.43     -0.55
   12    0   20     13.11      0.01
   14    0   20      6.53     -0.13
   16    0   20      7.78      0.10
  -25    1   20     -6.02      0.69
  -23    1   20     -0.19      0.48
  -21    1   20    -15.47      0.18
  -19    1   20      4.26      0.00
  -17    1   20      2.46     -0.53
  -15    1   20      1.40      0.31
  -13    1   20      3.93      0.44
  -11    1   20     -2.37     -0.27
   -9    1   20      2.93      0.08
   -7    1   20      6.42     -0.07
   -5    1   20      4.56      0.24
   -3    1   20    -29.30      0.07
   -1    1   20      0.06     -0.17
    1    1   20     -5.87      0.25
    3    1   20      3.00     -0.30
    5    1   20     -7.67     -0.36
    7    1   20      0.23     -0.31
    9    1   20    -16.97     -0.10
   11    1   20     16.67     -0.06
   13    1   20     10.80      0.54
   15    1   20     -2.44      0.46
   17    1   20     -5.55     -0.12
  -26    2   20     -1.86     -0.14
  -24    2   20      4.75      0.31
  -22    2   20      5.02     -0.26
  -20    2   20      8.81      0.12
  -18    2   20     -2.55     -0.31
  -16    2   20      0.17     -0.09
  -14    2   20     -0.17     -0.39
  -12    2   20     -1.55     -0.06
  -10    2   20     -1.26     -0.61
   -8    2   20    -13.12     -0.56
   -6    2   20    -12.85      0.17
   -4    2   20    -18.38     -0.45
   -2    2   20      2.89     -0.05
    0    2   20    -18.85     -0.10
    2    2   20    -12.55      0.24
    4    2   20    -25.99      0.08
    6    2   20     -3.32     -0.40
    8    2   20    -11.80      0.53
   10    2   20    -11.20      0.31
   12    2   20      0.08      0.67
   14    2   20     -3.00      0.33
   16    2   20      0.56      0.02
  -25    3   20      6.41      0.26
  -23    3   20      1.36      0.37
  -21    3   20     -3.58     -0.40
  -19    3   20      6.83      0.14
  -17    3   20     15.07     -0.25
  -15    3   20     10.94      0.07
  -13    3   20     -1.28      0.46
  -11    3   20     -5.09     -0.61
   -9    3   20     14.81     -0.61
   -7    3   20    -14.46     -0.07
   -5    3   20     17.55     -0.19
   -3    3   20     15.81     -0.18
   -1    3   20      6.40     -0.40
    1    3   20     -5.57      0.11
    3    3   20     18.85     -0.36
    5    3   20     15.09     -0.04
    7    3   20     -4.86      0.32
    9    3   20     -2.54      0.23
   11    3   20     15.95      0.04
   13    3   20     11.08     -0.19
   15    3   20      0.19      0.33
   17    3   20     -1.26     -0.21
  -26    4   20     -4.90      0.16
  -24    4   20     -7.68      0.52
  -22    4   20     -0.32      0.06
  -20    4   20     12.39      0.27
  -18    4   20      8.51     -0.42
  -16    4   20      2.06     -0.04
  -14    4   20     -3.23     -0.59
  -12    4   20    -10.63      0.09
  -10    4   20      5.14      0.01
   -8    4   20     14.90      0.23
   -6    4   20     26.94      0.48
   -4    4   20      0.21      0.42
   -2    4   20     -0.47      0.08
    0    4   20      9.51      0.05
    2    4   20     18.02     -0.34
    4    4   20     14.53     -0.07
    6    4   20     20.58      0.30
    8    4   20     -1.39      0.43
   10    4   20     -6.18      0.47
   12    4   20     -7.56      0.51
   14    4   20      0.55      0.32
   16    4   20     -1.72      0.03
  -25    5   20     13.95     -0.15
  -23    5   20      8.16      0.27
  -21    5   20     11.40     -0.56
  -19    5   20     -0.58      0.37
  -17    5   20     -1.18      0.21
  -15    5   20     -0.91      0.28
  -13    5   20      9.99      0.56
  -11    5   20      0.75      0.21
   -9    5   20     11.15     -0.01
   -7    5   20    -29.76      0.21
   -5    5   20    -19.87     -0.11
   -3    5   20    -12.76     -0.27
   -1    5   20    -19.58     -0.41
    1    5   20     -8.93      0.41
    3    5   20     -8.55      0.21
    5    5   20     -4.83      0.57
    7    5   20    -14.73      0.18
    9    5   20    -14.51     -0.26
   11    5   20    -19.25     -0.19
   13    5   20    -10.91     -0.21
   15    5   20    -18.95      0.06
   17    5   20      0.34      0.09
  -26    6   20     -1.00      0.13
  -24    6   20      8.35      0.11
  -22    6   20     15.93     -0.30
  -20    6   20      1.24     -0.53
  -18    6   20     -0.45     -0.16
  -16    6   20     11.12      0.10
  -14    6   20      3.65      0.25
  -12    6   20    -17.10      0.49
  -10    6   20      5.39      0.08
   -8    6   20    -20.44      0.24
   -6    6   20    -19.56     -0.22
   -4    6   20     -1.55     -0.58
   -2    6   20    -11.21     -0.31
    0    6   20     -7.92     -0.26
    2    6   20    -11.79     -0.44
    4    6   20      3.28     -0.15
    6    6   20     -2.01      0.37
    8    6   20      7.85     -0.60
   10    6   20     24.84     -0.14
   12    6   20      3.34     -0.36
   14    6   20     -2.55     -0.32
   16    6   20     -3.81     -0.18
  -25    7   20      7.57     -0.21
  -23    7   20     -7.36     -0.18
  -21    7   20      2.67     -0.62
  -19    7   20      7.23     -0.11
  -17    7   20      0.12     -0.43
  -15    7   20      6.07     -0.16
  -13    7   20     18.09     -0.27
  -11    7   20      4.66      0.27
   -9    7   20     -2.28      0.41
   -7    7   20     -1.67      0.40
   -5    7   20      9.35      0.28
   -3    7   20     21.98      0.01
   -1    7   20     11.23     -0.56
    1    7   20     30.30     -0.07
    3    7   20      7.80      0.16
    5    7   20     11.39      0.36
    7    7   20     11.71     -0.13
    9    7   20     12.37     -0.20
   11    7   20     -3.67      0.03
   13    7   20      0.29      0.30
   15    7   20     -2.06      0.03
  -26    8   20     -4.14      0.19
  -24    8   20     -4.91     -0.51
  -22    8   20     -0.81     -0.45
  -20    8   20     -8.57     -0.36
  -18    8   20     10.06      0.52
  -16    8   20     19.19      0.05
  -14    8   20      5.54      0.37
  -12    8   20    -10.63      0.13
  -10    8   20     19.26      0.31
   -8    8   20     14.12      0.10
   -6    8   20     -4.77     -0.07
   -4    8   20     -6.41     -0.30
   -2    8   20    -30.72     -0.12
    0    8   20      2.61     -0.12
    2    8   20      7.07      0.02
    4    8   20     10.01      0.13
    6    8   20    -12.47      0.54
    8    8   20     -0.89     -0.47
   10    8   20     -4.38     -0.07
   12    8   20     -5.80     -0.18
   14    8   20    -12.39      0.04
   16    8   20     -6.95     -0.06
  -25    9   20     -0.69      0.13
  -23    9   20      0.38      0.13
  -21    9   20      5.40      0.13
  -19    9   20     14.05     -0.45
  -17    9   20      4.21     -0.44
  -15    9   20     16.02      0.90
  -13    9   20     -7.04      0.12
  -11    9   20     -4.92     -0.10
   -9    9   20    -25.16     -0.01
   -7    9   20    -26.33      0.15
   -5    9   20    -27.04     -0.36
   -3    9   20     -3.97     -0.11
   -1    9   20    -11.78     -0.54
    1    9   20     12.75     -0.46
    3    9   20     -1.76     -0.12
    5    9   20     -8.23     -0.54
    7    9   20    -13.96     -0.46
    9    9   20     -1.37     -0.31
   11    9   20      6.53     -0.07
   13    9   20     -4.18      0.02
   15    9   20     -0.27     -0.26
  -24   10   20      0.32     -0.37
  -22   10   20      0.84      0.26
  -20   10   20      7.59     -0.51
  -18   10   20     12.91     -0.14
  -16   10   20      5.16     -0.67
  -14   10   20     12.35     -0.41
  -12   10   20      8.57     -0.19
  -10   10   20     -5.41      0.40
   -8   10   20     -7.30     -0.28
   -6   10   20     -1.08     -0.36
   -4   10   20     21.93     -0.23
   -2   10   20      3.69     -0.14
    0   10   20     17.05      0.26
    2   10   20     -4.18     -0.08
    4   10   20      1.36     -0.43
    6   10   20     -4.05     -0.73
    8   10   20     14.75     -0.22
   10   10   20      4.31      0.12
   12   10   20     13.80      0.12
   14   10   20     11.93      0.70
   16   10   20      6.49      0.27
  -25   11   20    -17.23     -0.08
  -23   11   20     -6.76     -0.03
  -21   11   20     -7.14      1.13
  -19   11   20      7.90     -0.20
  -17   11   20      1.14     -0.78
  -15   11   20     12.06      0.28
  -13   11   20    -11.38     -0.67
  -11   11   20     15.98     -0.33
   -9   11   20     16.73     -0.27
   -7   11   20     19.59      0.05
   -5   11   20      1.54     -0.19
   -3   11   20      2.09      0.22
   -1   11   20     -9.33      0.29
    1   11   20     18.41      0.13
    3   11   20      7.19     -0.47
    5   11   20     -8.15     -0.99
    7   11   20     -7.53      0.60
    9   11   20     -6.18      0.81
   11   11   20     11.01      0.70
   13   11   20     -2.59      0.25
   15   11   20     -4.04     -0.47
  -24   12   20     -6.53      0.18
  -22   12   20      2.81      1.42
  -20   12   20     12.90      0.12
  -18   12   20      5.44     -0.06
  -16   12   20      0.07      0.24
  -14   12   20    -10.92      0.11
  -12   12   20    -13.71     -0.20
  -10   12   20     -9.48      0.07
   -8   12   20    -11.68     -0.10
   -6   12   20    -12.80     -0.39
   -4   12   20      4.61     -0.08
   -2   12   20     -2.86     -0.27
    0   12   20      0.08      0.59
    2   12   20     -5.24      0.42
    4   12   20      3.19      0.09
    6   12   20     -5.70     -0.99
    8   12   20     -5.36     -0.25
   10   12   20    -17.13     -0.47
   12   12   20    -16.88     -0.50
   14   12   20     -0.94     -0.22
   16   12   20     -3.15     -0.37
  -25   13   20      5.40      0.01
  -23   13   20     12.53      0.42
  -21   13   20     -5.57      0.64
  -19   13   20      5.84     -0.66
  -17   13   20     -2.49     -0.70
  -15   13   20     -3.35     -0.22
  -13   13   20     -8.76     -0.27
  -11   13   20     -5.23     -0.04
   -9   13   20     -3.22     -0.63
   -7   13   20      5.64     -0.12
   -5   13   20      8.89     -0.32
   -3   13   20     -1.55     -0.20
   -1   13   20    -19.79      0.36
    1   13   20     -0.60      0.17
    3   13   20     -0.53     -0.41
    5   13   20     -5.49     -1.14
    7   13   20     -9.87      0.04
    9   13   20     -2.14      0.24
   11   13   20     16.79     -0.17
   13   13   20     13.89      0.18
   15   13   20      8.53     -0.06
  -24   14   20      0.30     -0.21
  -22   14   20     12.52      1.04
  -20   14   20     -1.21      0.54
  -18   14   20    -20.10     -0.25
  -16   14   20     -2.75      0.07
  -14   14   20     -6.54     -0.26
  -12   14   20      8.29     -0.38
  -10   14   20     22.20     -0.14
   -8   14   20     -7.18     -0.32
   -6   14   20     -3.42     -0.33
   -4   14   20     22.25     -0.12
   -2   14   20     24.10     -0.38
    0   14   20     -1.07      0.33
    2   14   20      1.12     -0.37
    4   14   20     -7.38     -0.86
    6   14   20      9.34     -0.51
    8   14   20     12.65      0.03
   10   14   20      3.35     -0.12
   12   14   20     -7.28      0.11
   14   14   20      0.10     -0.02
  -23   15   20     12.97      0.45
  -21   15   20    -12.66      0.11
  -19   15   20     -4.78     -0.04
  -17   15   20     -3.63      0.03
  -15   15   20     -3.28      0.29
  -13   15   20      4.24      0.60
  -11   15   20      1.23      0.17
   -9   15   20      9.07      0.27
   -7   15   20    -12.17      0.20
   -5   15   20      4.18     -0.42
   -3   15   20     13.98     -0.53
   -1   15   20      7.92     -0.17
    1   15   20     12.66     -0.19
    3   15   20      6.42     -0.11
    5   15   20      7.64     -0.60
    7   15   20      4.33     -0.48
    9   15   20     10.21     -0.20
   11   15   20     -9.39     -0.75
   13   15   20     -7.89     -0.23
   15   15   20     -3.17     -0.44
  -24   16   20     -1.29     -0.30
  -22   16   20     -5.53     -0.01
  -20   16   20     -2.71     -0.11
  -18   16   20     10.43      0.04
  -16   16   20     19.78     -0.06
  -14   16   20     -2.43     -0.32
  -12   16   20    -10.11      0.23
  -10   16   20     -5.21     -0.29
   -8   16   20     -7.97     -0.12
   -6   16   20      6.83      0.45
   -4   16   20     -7.88     -0.15
   -2   16   20     -7.93     -0.33
    0   16   20    -20.79     -0.85
    2   16   20      7.13     -0.47
    4   16   20     -3.94     -0.07
    6   16   20      6.10      0.87
    8   16   20    -13.43      0.14
   10   16   20     -7.39      0.02
   12   16   20     -8.21      0.15
   14   16   20      4.21      0.17
  -23   17   20      1.62     -0.26
  -21   17   20     -6.95     -0.04
  -19   17   20      3.17      0.61
  -17   17   20      5.83     -0.07
  -15   17   20      1.01      0.27
  -13   17   20     -6.24     -0.03
  -11   17   20      3.29     -0.50
   -9   17   20     19.82     -0.08
   -7   17   20    -10.52     -0.33
   -5   17   20      3.29      0.11
   -3   17   20      5.99     -0.34
   -1   17   20      2.38     -0.37
    1   17   20      9.16     -0.30
    3   17   20      8.12     -0.26
    5   17   20      9.82      0.60
    7   17   20      6.07      0.27
    9   17   20     -3.04     -0.06
   11   17   20    -16.06     -0.38
   13   17   20      1.53      0.40
   15   17   20     -6.75      0.25
  -24   18   20      6.66     -0.08
  -22   18   20     -5.98     -0.26
  -20   18   20     -2.32     -0.36
  -18   18   20     -0.78      0.11
  -16   18   20    -10.19     -0.11
  -14   18   20      5.49      0.02
  -12   18   20      5.28      0.78
  -10   18   20      5.74      0.42
   -8   18   20      5.67      0.72
   -6   18   20      4.97      0.31
   -4   18   20     -3.14     -0.25
   -2   18   20     27.15      0.41
    0   18   20     18.33     -0.81
    2   18   20     15.82     -0.39
    4   18   20      2.20     -0.58
    6   18   20     16.40      0.36
    8   18   20      2.16     -0.21
   10   18   20      7.65     -0.28
   12   18   20     -0.77     -0.26
   14   18   20      0.96      0.02
  -23   19   20     -5.48     -0.10
  -21   19   20      3.36     -0.11
  -19   19   20      1.52      0.26
  -17   19   20     -4.75     -0.20
  -15   19   20      5.38     -0.12
  -13   19   20      3.30     -0.28
  -11   19   20    -10.12     -0.17
   -9   19   20    -13.87     -0.14
   -7   19   20     -9.41      0.14
   -5   19   20      0.14      0.54
   -3   19   20    -13.00      0.34
   -1   19   20     -5.77      0.02
    1   19   20    -10.97     -0.32
    3   19   20    -14.47     -0.32
    5   19   20     -7.53      0.77
    7   19   20     -6.01      0.35
    9   19   20    -18.66      0.21
   11   19   20    -10.47      0.04
   13   19   20     -8.57      0.19
  -22   20   20     -6.10     -0.01
  -20   20   20     12.43      0.51
  -18   20   20     17.98      0.48
  -16   20   20      1.78      0.36
  -14   20   20      2.22     -0.30
  -12   20   20    -23.78     -0.22
  -10   20   20      3.39     -0.09
   -8   20   20     20.21      0.11
   -6   20   20     17.04      0.02
   -4   20   20     -4.75      0.08
   -2   20   20     -8.87     -0.02
    0   20   20     -7.03     -0.21
    2   20   20      4.98      0.14
    4   20   20      4.66      0.26
    6   20   20      3.08      0.76
    8   20   20    -15.21      0.12
   10   20   20     -9.69     -0.24
   12   20   20      2.80     -0.11
   14   20   20     -0.44     -0.28
  -23   21   20      0.24      0.32
  -21   21   20      7.36      0.16
  -19   21   20     -2.20      0.00
  -17   21   20    -16.25     -0.12
  -15   21   20    -10.41     -0.32
  -13   21   20     11.54     -0.07
  -11   21   20      7.87     -0.05
   -9   21   20     16.99     -0.14
   -7   21   20     22.32      0.48
   -5   21   20      8.31     -0.15
   -3   21   20     -5.17      0.55
   -1   21   20     21.78      0.15
    1   21   20     12.48     -0.47
    3   21   20      7.12     -0.93
    5   21   20      2.36     -0.61
    7   21   20      0.80     -0.39
    9   21   20     -2.21     -0.25
   11   21   20     12.60     -0.34
   13   21   20     -2.55     -0.49
  -22   22   20      4.44      0.09
  -20   22   20     -4.72      0.01
  -18   22   20    -15.42     -0.29
  -16   22   20     -8.99      0.12
  -14   22   20     12.60     -0.46
  -12   22   20    -12.90     -0.16
  -10   22   20    -11.98     -0.17
   -8   22   20    -26.67     -0.18
   -6   22   20      1.46     -0.54
   -4   22   20     20.68      0.06
   -2   22   20      8.93      0.28
    0   22   20     -6.35      0.56
    2   22   20     -8.71     -0.34
    4   22   20    -10.05      0.31
    6   22   20     -0.93     -0.10
    8   22   20    -11.89      0.21
   10   22   20     -4.70      0.23
   12   22   20      8.35      0.52
  -21   23   20      5.35      0.35
  -19   23   20     -1.31      0.23
  -17   23   20      2.37      0.28
  -15   23   20      3.47      0.17
  -13   23   20     14.82      0.10
  -11   23   20     -5.24     -0.09
   -9   23   20      3.24     -0.12
   -7   23   20     -0.29      0.33
   -5   23   20      6.76     -0.41
   -3   23   20     -5.91      0.29
   -1   23   20     -4.08     -0.06
    1   23   20    -10.96     -0.05
    3   23   20      2.06     -0.34
    5   23   20     -5.95     -0.09
    7   23   20     -0.48      0.14
    9   23   20      9.36      0.16
   11   23   20      5.86      0.82
  -20   24   20    -11.22      0.12
  -18   24   20      4.83     -0.09
  -16   24   20      7.88     -0.12
  -14   24   20      2.18     -0.29
  -12   24   20     -3.15     -0.23
  -10   24   20     20.96     -0.71
   -8   24   20      0.65      0.05
   -6   24   20     -1.47     -0.22
   -4   24   20     -2.02      0.05
   -2   24   20     -1.86     -0.09
    0   24   20      3.11      0.12
    2   24   20     12.78     -0.72
    4   24   20      0.33      0.11
    6   24   20     10.37     -1.07
    8   24   20     -0.73     -0.05
   10   24   20     10.84      0.08
   12   24   20     11.96      0.06
  -21   25   20     -2.51     -0.06
  -19   25   20     -0.48     -0.20
  -17   25   20      4.26     -0.17
  -15   25   20     -4.87     -0.19
  -13   25   20     -2.26     -0.44
  -11   25   20     -5.64     -0.22
   -9   25   20      0.76      0.07
   -7   25   20    -23.33      0.25
   -5   25   20     -4.20     -0.40
   -3   25   20      4.35      0.31
   -1   25   20     -4.35      0.16
    1   25   20     -0.71     -0.09
    3   25   20     13.90     -0.04
    5   25   20     -0.79      0.39
    7   25   20     -1.69      0.48
    9   25   20      2.50      0.31
   11   25   20     -7.69      1.28
  -20   26   20    -13.64     -0.07
  -18   26   20     -1.06     -0.15
  -16   26   20      9.94      0.00
  -14   26   20      8.44      0.22
  -12   26   20      1.90      0.00
  -10   26   20      0.43     -0.12
   -8   26   20    -17.73     -0.01
   -6   26   20    -20.63     -0.16
   -4   26   20    -11.62      0.25
   -2   26   20      3.76     -0.02
    0   26   20    -14.34      0.42
    2   26   20    -17.52     -0.11
    4   26   20    -18.35      0.36
    6   26   20      3.73     -0.47
    8   26   20      5.58     -0.17
   10   26   20      4.80      0.17
  -19   27   20      7.61     -0.18
  -17   27   20      7.96     -0.18
  -15   27   20      2.43      0.00
  -13   27   20    -14.34      0.07
  -11   27   20     -0.25      0.13
   -9   27   20     -0.71      0.07
   -7   27   20    -32.25      0.35
   -5   27   20    -26.68      0.02
   -3   27   20     -7.46      0.23
   -1   27   20     -3.67      0.04
    1   27   20     12.71     -0.15
    3   27   20      4.01      0.05
    5   27   20      4.60     -0.41
    7   27   20     15.46     -0.30
    9   27   20     19.70     -0.23
  -18   28   20      3.46     -0.13
  -16   28   20      6.07     -0.03
  -14   28   20     -5.40     -0.33
  -12   28   20     -9.75     -0.53
  -10   28   20     -4.17      0.02
   -8   28   20      4.80     -0.20
   -6   28   20     -7.24      0.09
   -4   28   20     -7.74      0.06
   -2   28   20     13.54     -0.34
    0   28   20      3.98      0.14
    2   28   20     12.65      0.08
    4   28   20      9.99      0.36
    6   28   20     -1.07      0.20
    8   28   20      8.67     -0.25
   10   28   20      8.82      0.09
  -19   29   20     -0.92      0.05
  -17   29   20     -9.34      0.19
  -15   29   20      8.09      0.20
  -13   29   20    -18.66     -0.07
  -11   29   20     -4.62     -0.23
   -9   29   20     -6.77     -0.53
   -7   29   20     -5.21     -0.45
   -5   29   20     -3.85      0.20
   -3   29   20      7.74      0.16
   -1   29   20      0.56     -0.23
    1   29   20     -1.89     -0.38
    3   29   20    -15.90     -0.10
    5   29   20     -3.50     -0.16
    7   29   20     -5.39      0.27
    9   29   20    -13.20     -0.07
  -18   30   20     -6.98      0.09
  -16   30   20      4.70      0.30
  -14   30   20     -2.79      0.01
  -12   30   20     -5.23      0.26
  -10   30   20     -4.24      0.58
   -8   30   20      0.54      0.23
   -6   30   20    -14.67      0.13
   -4   30   20     -8.41     -0.34
   -2   30   20     -0.86     -0.22
    0   30   20      2.54     -0.04
    2   30   20     11.57     -0.31
    4   30   20     11.51     -0.27
    6   30   20      0.61      0.13
    8   30   20      8.92     -0.05
  -17   31   20    -14.53      0.00
  -15   31   20      8.25     -0.30
  -13   31   20     -2.10     -0.33
  -11   31   20     20.12     -0.14
   -9   31   20      7.37     -0.29
   -7   31   20     18.83     -0.50
   -5   31   20     17.49      0.13
   -3   31   20     10.70     -0.13
   -1   31   20     -1.02     -0.06
    1   31   20      2.29     -0.06
    3   31   20      6.56      0.15
    5   31   20      4.06      0.25
    7   31   20      0.93      0.27
  -16   32   20      2.05      0.36
  -14   32   20     -6.98      0.03
  -12   32   20    -15.54     -0.13
  -10   32   20     -4.35     -0.08
   -8   32   20     26.72      0.13
   -6   32   20     17.45      0.21
   -4   32   20     19.07      0.05
   -2   32   20      0.54     -0.03
    0   32   20     -4.78     -0.05
    2   32   20      0.91     -0.20
    4   32   20     -1.58     -0.21
    6   32   20    -12.36      0.45
  -15   33   20      3.25     -0.05
  -13   33   20      5.61      0.19
  -11   33   20     20.61      0.32
   -9   33   20     -3.92      0.32
   -7   33   20     -1.11     -0.04
   -5   33   20      9.85     -0.03
   -3   33   20      0.76     -0.06
   -1   33   20    -14.94      0.10
    1   33   20     -5.18     -0.33
    3   33   20     11.45     -0.31
    5   33   20      7.84      0.32
  -14   34   20      5.01     -0.22
  -12   34   20     13.02     -0.21
  -10   34   20     20.44     -0.01
   -8   34   20     25.80      0.06
   -6   34   20     -0.47     -0.09
   -4   34   20     -5.41      0.11
   -2   34   20    -17.81      0.35
    0   34   20     -6.29      0.28
    2   34   20      4.61      0.20
    4   34   20     -4.70      0.07
  -13   35   20      7.26      0.15
  -11   35   20     -1.34      0.12
   -9   35   20      0.75      0.21
   -7   35   20      4.82     -0.22
   -5   35   20     -2.30     -0.28
   -3   35   20      5.68     -0.17
   -1   35   20    -10.07      0.01
    1   35   20     -5.59      0.28
    3   35   20      3.48     -0.06
  -12   36   20     -2.40      0.04
  -10   36   20    -12.80     -0.03
   -8   36   20    -15.16     -0.09
   -6   36   20    -11.94     -0.17
   -4   36   20      2.48      0.09
   -2   36   20     -3.78      0.36
    0   36   20      4.65     -0.08
    2   36   20      4.52      0.12
   -9   37   20     -1.00      0.21
   -7   37   20    -17.70      0.02
   -5   37   20    -35.56     -0.01
   -3   37   20    -10.92      0.26
   -1   37   20     -9.90      0.19
    1   37   20      3.56      0.06
   -6   38   20    -20.23     -0.25
   -4   38   20     -8.71     -0.11
   -2   38   20      0.85     -0.07
  -26    0   21     -9.74      0.47
  -24    0   21     -7.38     -0.07
  -22    0   21     -4.42      0.25
  -20    0   21    -12.59     -0.56
  -18    0   21      5.18     -0.53
  -16    0   21    -17.33     -0.27
  -14    0   21    -11.65     -0.18
  -12    0   21     -8.96      0.14
  -10    0   21    -11.99     -0.34
   -8    0   21     23.71      0.24
   -6    0   21     11.42     -0.27
   -4    0   21    -28.73      0.02
   -2    0   21    -14.33      0.08
    0    0   21    -10.20     -0.07
    2    0   21     -4.08     -0.25
    4    0   21    -22.71      0.26
    6    0   21    -13.72     -0.08
    8    0   21     -0.76     -0.12
   10    0   21    -15.72      0.51
   12    0   21    -17.68      0.05
   14    0   21     -9.74     -0.13
   16    0   21     -7.18     -0.07
  -25    1   21     15.15     -0.21
  -23    1   21     -0.67      0.29
  -21    1   21     -4.20     -0.33
  -19    1   21     -2.97      0.05
  -17    1   21      1.81     -0.35
  -15    1   21     -7.81      0.20
  -13    1   21     12.95      0.61
  -11    1   21    -15.25      0.06
   -9    1   21     17.29      0.28
   -7    1   21    -15.41     -0.01
   -5    1   21     -4.08      0.30
   -3    1   21      9.16     -0.07
   -1    1   21     15.21      0.07
    1    1   21    -12.78      0.31
    3    1   21     -6.96      0.21
    5    1   21    -27.14      0.33
    7    1   21    -15.33     -0.35
    9    1   21     -3.23      0.80
   11    1   21     -8.59     -0.13
   13    1   21     -4.25      0.00
   15    1   21     -8.67      0.33
  -26    2   21      7.80      0.14
  -24    2   21     10.24     -0.26
  -22    2   21      5.15      0.52
  -20    2   21    -11.23     -0.09
  -18    2   21     -0.69     -0.01
  -16    2   21     -1.24     -0.21
  -14    2   21      9.56     -0.13
  -12    2   21      3.23      0.16
  -10    2   21      0.25     -0.04
   -8    2   21      5.03      0.21
   -6    2   21    -10.54     -0.06
   -4    2   21      1.72     -0.04
   -2    2   21     16.11      0.31
    0    2   21     -5.38     -0.06
    2    2   21    -11.17      0.17
    4    2   21    -10.44     -0.08
    6    2   21     -7.01     -0.22
    8    2   21      4.00      0.16
   10    2   21      0.07      0.22
   12    2   21     -5.52      0.02
   14    2   21      6.79      0.04
   16    2   21     10.81      0.01
  -25    3   21     -5.01     -0.41
  -23    3   21     -5.75      0.25
  -21    3   21      2.15     -0.17
  -19    3   21      5.09     -0.31
  -17    3   21    -12.59     -0.80
  -15    3   21    -19.11     -0.02
  -13    3   21      6.85     -0.25
  -11    3   21    -11.16     -0.01
   -9    3   21      9.19      0.40
   -7    3   21     14.64     -0.16
   -5    3   21      7.14      0.30
   -3    3   21     -9.59      0.05
   -1    3   21      7.19      0.17
    1    3   21      1.16      0.26
    3    3   21    -10.81     -0.09
    5    3   21    -15.26      0.18
    7    3   21      4.71     -0.07
    9    3   21      1.76      0.56
   11    3   21    -10.29      0.05
   13    3   21     -0.98     -0.21
   15    3   21     -1.34     -0.26
  -26    4   21     -7.27     -0.22
  -24    4   21    -10.22     -0.19
  -22    4   21      3.40      0.59
  -20    4   21     -1.60      0.31
  -18    4   21     -6.16      0.76
  -16    4   21      1.39     -0.01
  -14    4   21     -6.54     -0.10
  -12    4   21    -18.14      0.44
  -10    4   21      2.06      0.48
   -8    4   21     19.60      0.34
   -6    4   21     -2.79      0.39
   -4    4   21     16.24     -0.26
   -2    4   21      8.08      0.30
    0    4   21     -2.47      0.08
    2    4   21      2.17      0.12
    4    4   21     12.37     -0.31
    6    4   21      3.40     -0.32
    8    4   21      0.70      0.11
   10    4   21    -14.46      0.02
   12    4   21    -17.88     -0.31
   14    4   21     -1.88     -0.21
   16    4   21      1.95     -0.14
  -25    5   21     -1.43     -0.21
  -23    5   21      7.39      0.21
  -21    5   21     -0.46     -0.02
  -19    5   21     -3.50      0.14
  -17    5   21    -15.14      0.09
  -15    5   21      7.69      0.28
  -13    5   21      8.70     -0.24
  -11    5   21      3.35     -0.28
   -9    5   21     -2.69     -0.06
   -7    5   21     -4.09      0.01
   -5    5   21      2.74      0.20
   -3    5   21     -5.51      0.08
   -1    5   21     -3.79     -0.02
    1    5   21      5.27     -0.06
    3    5   21     14.15     -0.45
    5    5   21     25.23     -0.07
    7    5   21      6.54      0.59
    9    5   21      3.61      0.16
   11    5   21     -3.08     -0.06
   13    5   21      5.85     -0.29
   15    5   21     17.13      0.06
  -24    6   21      1.51     -0.04
  -22    6   21     23.56      0.05
  -20    6   21     14.00      0.19
  -18    6   21    -17.76      0.47
  -16    6   21     -7.78     -0.26
  -14    6   21      1.00     -0.72
  -12    6   21     13.23     -0.23
  -10    6   21     -1.95      0.24
   -8    6   21      5.95     -0.20
   -6    6   21      0.61      0.15
   -4    6   21     23.57      0.05
   -2    6   21     18.73      0.05
    0    6   21     17.08      0.40
    2    6   21     -2.69      0.03
    4    6   21    -15.40      0.13
    6    6   21     -0.65      0.19
    8    6   21     27.56      0.34
   10    6   21     12.32      0.33
   12    6   21     10.48      0.02
   14    6   21     17.27      0.07
   16    6   21      8.51     -0.29
  -25    7   21    -19.64      0.06
  -23    7   21      2.75     -0.37
  -21    7   21     -7.97     -0.36
  -19    7   21    -16.59      0.20
  -17    7   21    -17.41      0.24
  -15    7   21     10.08      0.11
  -13    7   21    -11.22      0.20
  -11    7   21      5.46     -0.13
   -9    7   21      9.88     -0.02
   -7    7   21      2.69      0.66
   -5    7   21      2.68      0.28
   -3    7   21      4.51      0.02
   -1    7   21     -7.71      0.01
    1    7   21      6.27      0.09
    3    7   21     13.88      0.25
    5    7   21     23.23      0.47
    7    7   21     -0.65      0.95
    9    7   21      6.27     -0.03
   11    7   21      0.90      0.30
   13    7   21      4.35     -0.19
   15    7   21      4.72     -0.18
  -24    8   21     -2.31      0.20
  -22    8   21      0.15     -0.66
  -20    8   21      0.21     -0.39
  -18    8   21    -15.32      0.10
  -16    8   21      4.16     -0.05
  -14    8   21     -3.40     -0.43
  -12    8   21     -0.80     -0.30
  -10    8   21    -21.58     -0.36
   -8    8   21    -14.45     -0.14
   -6    8   21     -5.23      0.25
   -4    8   21     -3.04      0.63
   -2    8   21    -13.14      0.10
    0    8   21     -7.27      0.36
    2    8   21      4.09      0.07
    4    8   21     10.10      0.60
    6    8   21      5.03      0.41
    8    8   21      4.17      0.04
   10    8   21     -5.60      0.12
   12    8   21    -10.61     -0.24
   14    8   21      5.02      0.18
  -25    9   21      8.38      0.41
  -23    9   21      5.63     -1.03
  -21    9   21     -6.02     -0.75
  -19    9   21     -0.08     -0.37
  -17    9   21      0.89     -0.22
  -15    9   21     12.30     -0.44
  -13    9   21      7.58     -0.20
  -11    9   21     10.40     -0.40
   -9    9   21      2.37     -0.63
   -7    9   21     11.65      0.26
   -5    9   21      1.44      0.51
   -3    9   21      5.99      0.21
   -1    9   21     -8.92      0.30
    1    9   21      4.81      0.13
    3    9   21     -4.69      0.25
    5    9   21     -0.03      0.26
    7    9   21     -9.31      0.41
    9    9   21      2.20     -0.22
   11    9   21      5.55     -0.19
   13    9   21     21.19     -0.23
   15    9   21      8.24     -0.04
  -24   10   21     -2.93      0.09
  -22   10   21      3.01     -0.57
  -20   10   21      0.81     -0.04
  -18   10   21    -13.30     -0.25
  -16   10   21     -0.58      0.03
  -14   10   21     -2.95      0.25
  -12   10   21      5.78      0.12
  -10   10   21      7.24      0.10
   -8   10   21     -0.64      0.63
   -6   10   21     -1.52      0.33
   -4   10   21     -1.18      0.31
   -2   10   21     12.16     -0.07
    0   10   21     -2.11      0.24
    2   10   21     -6.37      0.17
    4   10   21     -7.69     -0.03
    6   10   21     -2.34      0.12
    8   10   21     -1.18     -0.35
   10   10   21      7.80      0.29
   12   10   21      1.21      0.11
   14   10   21      2.55      0.17
  -25   11   21     15.13      0.63
  -23   11   21     -9.19     -0.10
  -21   11   21    -10.55      0.45
  -19   11   21      2.63     -0.43
  -17   11   21     -3.43     -0.22
  -15   11   21      0.86     -0.40
  -13   11   21      9.79     -0.05
  -11   11   21     -6.12      0.05
   -9   11   21    -23.66     -0.23
   -7   11   21     -7.76      0.30
   -5   11   21    -20.67      0.12
   -3   11   21     -7.91      0.02
   -1   11   21    -23.93      0.17
    1   11   21    -16.68     -0.03
    3   11   21    -18.94      0.38
    5   11   21     -3.47     -0.03
    7   11   21    -17.96     -0.22
    9   11   21    -11.04      0.11
   11   11   21    -11.22     -0.12
   13   11   21     -6.90     -0.05
   15   11   21      4.36      0.06
  -24   12   21    -10.19     -0.25
  -22   12   21    -10.80     -0.89
  -20   12   21      2.08     -0.05
  -18   12   21     19.54      0.09
  -16   12   21      6.08     -0.26
  -14   12   21     -3.43     -0.52
  -12   12   21     -9.79     -0.39
  -10   12   21      4.92     -0.37
   -8   12   21     20.09     -0.25
   -6   12   21     21.29      0.21
   -4   12   21     -7.30     -0.07
   -2   12   21     -9.88     -0.41
    0   12   21    -22.74     -0.11
    2   12   21    -12.26      0.41
    4   12   21     -2.50      0.26
    6   12   21      4.20      0.88
    8   12   21     -9.98     -0.01
   10   12   21     -3.08      0.23
   12   12   21     -3.96     -0.25
   14   12   21      0.60     -0.20
  -23   13   21     -2.06     -0.06
  -21   13   21      8.08      0.96
  -19   13   21      0.77     -0.29
  -17   13   21    -13.54     -0.17
  -15   13   21    -11.34      0.56
  -13   13   21     -6.64      0.23
  -11   13   21      0.82      0.22
   -9   13   21     10.39      0.24
   -7   13   21     11.59      0.50
   -5   13   21     -9.80      0.10
   -3   13   21     18.11      0.20
   -1   13   21      8.05      0.43
    1   13   21      7.22      0.53
    3   13   21     -5.91      0.28
    5   13   21     -5.35     -0.25
    7   13   21     -4.30     -0.10
    9   13   21      8.97      0.22
   11   13   21     21.36      0.25
   13   13   21      5.01      0.29
   15   13   21     14.35     -0.08
  -24   14   21      5.45      0.34
  -22   14   21      2.55      0.14
  -20   14   21    -11.08     -0.29
  -18   14   21     -5.68      0.56
  -16   14   21    -20.91     -0.24
  -14   14   21      8.76     -0.22
  -12   14   21      2.35      0.46
  -10   14   21     -7.02      0.22
   -8   14   21    -11.13      0.19
   -6   14   21    -12.18      0.38
   -4   14   21     -4.49      0.11
   -2   14   21      9.26      0.40
    0   14   21     -7.38     -0.07
    2   14   21    -19.65      0.28
    4   14   21     -1.38      0.32
    6   14   21      1.87      0.43
    8   14   21     -6.85     -0.21
   10   14   21      4.74      0.14
   12   14   21     -6.43     -0.03
   14   14   21      1.90      0.05
  -23   15   21     -5.51     -0.60
  -21   15   21      1.49      0.13
  -19   15   21     -9.52      0.15
  -17   15   21     -8.48     -0.27
  -15   15   21     -2.26      0.02
  -13   15   21     -2.11     -0.51
  -11   15   21      1.08     -0.07
   -9   15   21     12.77     -0.38
   -7   15   21     15.23     -0.07
   -5   15   21     -4.36      0.00
   -3   15   21      2.51     -0.05
   -1   15   21    -12.07      0.13
    1   15   21    -12.42      0.34
    3   15   21    -16.03      0.00
    5   15   21    -16.58      0.26
    7   15   21      1.61      0.42
    9   15   21      0.84      0.15
   11   15   21      9.58      0.12
   13   15   21    -20.02     -0.16
  -24   16   21      2.06     -0.35
  -22   16   21     -0.98     -0.82
  -20   16   21     -6.98     -0.90
  -18   16   21      8.04      0.39
  -16   16   21     -1.92     -0.08
  -14   16   21     -6.93      0.39
  -12   16   21    -22.90      0.35
  -10   16   21      8.28      0.17
   -8   16   21     31.28      0.13
   -6   16   21      9.45      0.13
   -4   16   21      8.95      0.33
   -2   16   21      9.63      0.40
    0   16   21      7.98      0.09
    2   16   21      5.22      0.41
    4   16   21     15.29      0.38
    6   16   21     15.05      0.23
    8   16   21     11.53      0.07
   10   16   21      9.50     -0.10
   12   16   21      3.23      0.16
   14   16   21     13.64     -0.29
  -23   17   21      0.85     -0.31
  -21   17   21     -2.33     -1.06
  -19   17   21     -3.69     -0.15
  -17   17   21      1.52     -0.18
  -15   17   21      0.86      0.29
  -13   17   21     11.08      0.23
  -11   17   21     -3.57      0.25
   -9   17   21     12.79      0.11
   -7   17   21     16.81      0.43
   -5   17   21     -2.35      0.35
   -3   17   21     -3.31      0.55
   -1   17   21     13.61      0.14
    1   17   21     10.77     -0.18
    3   17   21     12.41     -0.26
    5   17   21      7.80      0.00
    7   17   21      4.14     -0.03
    9   17   21     -8.40     -0.11
   11   17   21     -1.56     -0.06
   13   17   21    -21.15     -0.13
  -22   18   21      1.73     -0.34
  -20   18   21     -5.60     -0.29
  -18   18   21    -10.78     -0.01
  -16   18   21      6.62     -0.38
  -14   18   21      8.41     -0.13
  -12   18   21      5.94      0.13
  -10   18   21      1.02      0.43
   -8   18   21      2.70     -0.58
   -6   18   21     -5.90     -0.68
   -4   18   21      7.20     -0.45
   -2   18   21      4.28     -0.24
    0   18   21    -11.12      0.20
    2   18   21    -15.18      0.16
    4   18   21    -18.82     -0.05
    6   18   21      1.30     -0.38
    8   18   21     -5.71     -0.27
   10   18   21     -9.17     -0.69
   12   18   21     -4.03      0.23
  -23   19   21     -1.20     -0.38
  -21   19   21      3.40     -1.35
  -19   19   21      9.82     -0.25
  -17   19   21      3.41     -0.38
  -15   19   21    -11.29      0.63
  -13   19   21     -1.74      0.29
  -11   19   21    -19.07     -0.10
   -9   19   21     14.12      0.13
   -7   19   21      6.09     -0.26
   -5   19   21     -2.60     -0.25
   -3   19   21    -14.73     -0.16
   -1   19   21      7.61     -0.57
    1   19   21      0.80      0.10
    3   19   21      3.55     -0.03
    5   19   21      9.11     -0.27
    7   19   21     14.02      0.27
    9   19   21     12.09      0.51
   11   19   21      0.44      0.50
   13   19   21     -5.57     -0.12
  -22   20   21     -4.53     -0.17
  -20   20   21      5.51     -0.38
  -18   20   21      3.90     -0.12
  -16   20   21     16.80      0.13
  -14   20   21     -0.69     -0.14
  -12   20   21      3.27      0.27
  -10   20   21    -18.51      0.37
   -8   20   21      3.93     -0.05
   -6   20   21     -1.64      0.08
   -4   20   21    -10.54     -0.41
   -2   20   21      4.29     -0.38
    0   20   21     -3.37     -0.03
    2   20   21      9.34      0.47
    4   20   21     -3.71      0.25
    6   20   21     11.05     -0.30
    8   20   21    -17.33      0.20
   10   20   21     -8.36     -0.35
   12   20   21     -6.93     -0.03
  -21   21   21     -0.69     -0.09
  -19   21   21     -8.22      0.27
  -17   21   21     -7.96     -0.16
  -15   21   21     -5.37      0.48
  -13   21   21      4.02     -0.30
  -11   21   21     -8.05      0.05
   -9   21   21      6.01      0.27
   -7   21   21    -10.08     -0.28
   -5   21   21     14.32     -0.07
   -3   21   21     -3.54     -0.21
   -1   21   21    -11.86     -0.09
    1   21   21     -9.99      0.66
    3   21   21      5.84      0.21
    5   21   21      3.37     -0.04
    7   21   21     -9.97      0.20
    9   21   21    -10.32     -0.12
   11   21   21     -7.02      0.25
  -22   22   21      3.00      0.06
  -20   22   21     -2.83     -0.21
  -18   22   21    -17.40     -0.38
  -16   22   21    -11.31      0.15
  -14   22   21    -13.72     -0.06
  -12   22   21      5.37      0.25
  -10   22   21    -20.01     -0.02
   -8   22   21     -8.44      0.16
   -6   22   21    -15.74      0.13
   -4   22   21     -2.96     -0.31
   -2   22   21     22.06     -0.43
    0   22   21    -10.25      0.14
    2   22   21     -6.26      0.71
    4   22   21    -17.55      0.03
    6   22   21      5.14      0.10
    8   22   21      0.94      0.44
   10   22   21     16.19      0.06
   12   22   21      0.86     -0.01
  -21   23   21      5.54     -0.11
  -19   23   21     -7.53     -0.10
  -17   23   21     -3.47     -0.09
  -15   23   21     -6.27      0.00
  -13   23   21     -3.37     -0.08
  -11   23   21     -2.18      0.27
   -9   23   21    -12.80     -0.02
   -7   23   21    -25.92      0.36
   -5   23   21      3.00     -0.01
   -3   23   21      5.75     -0.27
   -1   23   21     -6.85      0.21
    1   23   21     -1.68      0.50
    3   23   21      4.19      0.11
    5   23   21     -6.65     -0.07
    7   23   21     -6.28      0.10
    9   23   21      1.46     -0.17
   11   23   21      6.52     -0.19
  -20   24   21     -7.38      0.42
  -18   24   21      1.23      0.32
  -16   24   21     14.62      0.76
  -14   24   21      7.49      0.03
  -12   24   21     11.56     -0.18
  -10   24   21      9.83     -0.14
   -8   24   21     20.54      0.69
   -6   24   21      9.52      0.72
   -4   24   21     11.07      0.54
   -2   24   21      3.40     -0.21
    0   24   21    -21.69      0.15
    2   24   21     19.57      0.07
    4   24   21     20.80     -0.21
    6   24   21      9.41      0.21
    8   24   21      0.88     -0.49
   10   24   21      4.46     -0.43
  -19   25   21     -1.93     -0.04
  -17   25   21      3.86     -0.27
  -15   25   21     -9.60     -0.53
  -13   25   21     -1.35      0.22
  -11   25   21     20.77      0.03
   -9   25   21     14.96     -0.46
   -7   25   21     12.16      0.22
   -5   25   21      5.73     -0.26
   -3   25   21      8.66     -0.40
   -1   25   21      5.19     -0.23
    1   25   21     -1.21     -0.04
    3   25   21     -4.55     -0.37
    5   25   21    -16.03     -0.08
    7   25   21     -5.75      0.21
    9   25   21     -5.86     -0.24
  -20   26   21     -1.96     -0.03
  -18   26   21      7.30     -0.25
  -16   26   21      5.01      0.12
  -14   26   21      0.26     -0.12
  -12   26   21     -2.92      0.04
  -10   26   21      5.47      0.03
   -8   26   21     -3.62      0.40
   -6   26   21     -8.32     -0.08
   -4   26   21      2.96     -0.16
   -2   26   21      1.69     -0.27
    0   26   21     -3.89      0.23
    2   26   21     15.00     -0.30
    4   26   21     -3.57     -0.02
    6   26   21    -10.10      0.14
    8   26   21     -8.58     -0.29
   10   26   21     -7.95     -0.40
  -19   27   21      2.63     -0.01
  -17   27   21      5.97      0.05
  -15   27   21      6.21      0.14
  -13   27   21     23.55      0.59
  -11   27   21     14.24      0.24
   -9   27   21      0.64     -0.05
   -7   27   21     17.26      0.05
   -5   27   21     -1.55     -0.04
   -3   27   21     -6.56      0.01
   -1   27   21      3.37     -0.19
    1   27   21     -5.65      0.17
    3   27   21     10.46     -0.19
    5   27   21      3.16     -0.08
    7   27   21     19.06     -0.15
    9   27   21     10.68     -0.63
  -18   28   21      6.68     -0.25
  -16   28   21     -8.93     -0.16
  -14   28   21    -10.83      0.11
  -12   28   21    -24.61      0.24
  -10   28   21      4.22     -0.07
   -8   28   21     18.12     -0.32
   -6   28   21     23.33     -0.33
   -4   28   21     -0.47     -0.04
   -2   28   21     -4.18     -0.07
    0   28   21     16.06      0.09
    2   28   21     11.46     -0.23
    4   28   21     -8.36      0.13
    6   28   21     -3.51     -0.19
    8   28   21    -18.51      0.14
  -17   29   21     -6.37      0.07
  -15   29   21    -10.87      0.17
  -13   29   21      4.39      0.13
  -11   29   21     -6.84      0.19
   -9   29   21     -7.53      0.11
   -7   29   21      7.58      0.13
   -5   29   21      4.43     -0.04
   -3   29   21     -0.40      0.11
   -1   29   21     11.73     -0.07
    1   29   21     -1.08     -0.16
    3   29   21      3.68      0.01
    5   29   21    -13.22      0.10
    7   29   21     -9.16      0.13
  -16   30   21    -11.45      0.11
  -14   30   21     13.14      0.37
  -12   30   21     -7.46      0.47
  -10   30   21     -6.83      0.47
   -8   30   21     -1.05     -0.40
   -6   30   21     10.34     -0.43
   -4   30   21    -12.53     -0.21
   -2   30   21     -4.65      0.05
    0   30   21      3.20      0.12
    2   30   21    -15.97      0.01
    4   30   21     -6.37      0.03
    6   30   21     14.80     -0.40
  -15   31   21     -4.67      0.21
  -13   31   21     -3.83      0.10
  -11   31   21    -16.45      0.23
   -9   31   21     -3.61      0.08
   -7   31   21      8.46      0.30
   -5   31   21     13.99      0.09
   -3   31   21      3.67      0.34
   -1   31   21      3.72      0.26
    1   31   21      2.13     -0.12
    3   31   21      5.45      0.05
    5   31   21     11.08     -0.37
  -14   32   21      2.54     -0.09
  -12   32   21     -7.63      0.01
  -10   32   21      0.31     -0.05
   -8   32   21      5.61     -0.17
   -6   32   21     19.71      0.31
   -4   32   21     15.73     -0.19
   -2   32   21     18.28     -0.01
    0   32   21     12.36     -0.24
    2   32   21     -8.82     -0.03
    4   32   21     -2.99      0.25
    6   32   21     -4.68     -0.25
  -13   33   21      0.91     -0.18
  -11   33   21     -4.17     -0.04
   -9   33   21     -0.57     -0.05
   -7   33   21     -3.87     -0.20
   -5   33   21     -8.54     -0.39
   -3   33   21     -0.59     -0.27
   -1   33   21     -6.47     -0.18
    1   33   21     -8.33     -0.28
    3   33   21     -7.08     -0.08
    5   33   21      3.89     -0.29
  -12   34   21      2.70     -0.17
  -10   34   21     -0.82     -0.36
   -8   34   21      4.19      0.00
   -6   34   21     -3.03      0.19
   -4   34   21      3.40     -0.36
   -2   34   21     10.30     -0.08
    0   34   21      3.99     -0.05
    2   34   21     -4.16      0.10
  -11   35   21     10.96      0.12
   -9   35   21      1.77      0.29
   -7   35   21      4.89     -0.01
   -5   35   21      5.02     -0.14
   -3   35   21      9.95     -0.32
   -1   35   21      6.82     -0.08
    1   35   21     11.01     -0.12
  -10   36   21     -8.76     -0.14
   -8   36   21     15.29      0.04
   -6   36   21     -7.95      0.04
   -4   36   21     -4.97     -0.18
   -2   36   21      8.86     -0.13
    0   36   21      2.04      0.18
   -7   37   21      0.68      0.00
   -5   37   21      0.76      0.29
   -3   37   21      6.34     -0.03
  -24    0   22      1.83      0.16
  -22    0   22     -1.99     -0.37
  -20    0   22    -10.79      0.40
  -18    0   22      4.17      0.41
  -16    0   22     18.98     -0.09
  -14    0   22      0.24     -0.33
  -12    0   22      8.16      0.24
  -10    0   22      2.41     -0.23
   -8    0   22      8.37     -0.21
   -6    0   22      6.26      0.05
   -4    0   22     20.20     -0.31
   -2    0   22     17.46      0.15
    0    0   22     -0.75     -0.63
    2    0   22      4.75      0.38
    4    0   22     20.58     -0.29
    6    0   22      6.75      0.13
    8    0   22     -4.70      0.30
   10    0   22     -7.03     -0.34
   12    0   22      0.86     -0.35
   14    0   22    -15.64     -0.59
  -25    1   22     -6.04      0.46
  -23    1   22      6.32      0.17
  -21    1   22    -14.93      0.26
  -19    1   22     -2.48      0.04
  -17    1   22      8.26     -0.12
  -15    1   22     -1.30      0.10
  -13    1   22      4.52     -0.03
  -11    1   22      0.57      0.04
   -9    1   22    -11.77      0.02
   -7    1   22     12.96     -0.56
   -5    1   22      1.85     -0.03
   -3    1   22    -39.66     -0.41
   -1    1   22      5.49     -0.26
    1    1   22     -1.79     -0.29
    3    1   22     15.57     -0.35
    5    1   22      1.31     -0.18
    7    1   22      1.39     -0.46
    9    1   22     -8.21     -0.31
   11    1   22     13.28     -0.01
   13    1   22      4.15      0.65
   15    1   22    -14.54      0.48
  -24    2   22      6.25      0.16
  -22    2   22      7.21     -0.10
  -20    2   22     -3.70      0.25
  -18    2   22     -1.86     -0.11
  -16    2   22     -3.13     -0.12
  -14    2   22     -7.86     -0.40
  -12    2   22      7.64      0.35
  -10    2   22    -22.38      0.22
   -8    2   22    -14.27      0.00
   -6    2   22    -13.93     -0.02
   -4    2   22    -11.09     -0.63
   -2    2   22     -5.18     -0.20
    0    2   22     -4.75     -0.08
    2    2   22    -11.23      0.33
    4    2   22    -12.36      0.15
    6    2   22     -3.36     -0.25
    8    2   22     -0.33     -0.31
   10    2   22     -5.16      0.75
   12    2   22      2.28      1.00
   14    2   22     -7.64      0.43
  -25    3   22      0.99     -0.06
  -23    3   22     -5.51     -0.23
  -21    3   22    -10.24     -0.59
  -19    3   22      4.89     -0.17
  -17    3   22      7.32      0.12
  -15    3   22      2.20      0.11
  -13    3   22     -0.50      0.09
  -11    3   22     -0.14     -0.21
   -9    3   22      6.85     -0.40
   -7    3   22      2.47     -0.43
   -5    3   22     14.84     -0.19
   -3    3   22      5.31     -0.50
   -1    3   22      9.12     -0.40
    1    3   22    -15.00     -0.05
    3    3   22      2.78      0.16
    5    3   22     14.26      0.02
    7    3   22     -2.15      0.19
    9    3   22     -2.03     -0.09
   11    3   22     11.19      0.14
   13    3   22     -3.88     -0.14
   15    3   22     -9.56      0.17
  -24    4   22    -11.94     -0.03
  -22    4   22     -6.76     -0.16
  -20    4   22      6.92     -0.18
  -18    4   22     17.38      0.01
  -16    4   22     -2.50      0.08
  -14    4   22     -7.80     -0.82
  -12    4   22      1.65     -0.26
  -10    4   22    -15.67      0.23
   -8    4   22     16.54      0.16
   -6    4   22     25.32     -0.06
   -4    4   22     14.16      0.16
   -2    4   22      6.27     -0.06
    0    4   22     19.01     -0.07
    2    4   22     13.16     -0.22
    4    4   22      8.07     -0.33
    6    4   22     14.66     -0.29
    8    4   22      1.98     -0.43
   10    4   22     -1.85      0.48
   12    4   22    -10.91      0.74
   14    4   22    -12.08      0.36
  -25    5   22      8.96     -0.12
  -23    5   22     -7.30      0.13
  -21    5   22      6.74     -0.35
  -19    5   22      7.58      0.15
  -17    5   22     -9.52      0.48
  -15    5   22    -10.16      0.56
  -13    5   22      4.16      0.30
  -11    5   22     -7.37      0.30
   -9    5   22     -6.26      0.11
   -7    5   22    -14.33      0.02
   -5    5   22     -8.10      0.00
   -3    5   22      1.30     -0.25
   -1    5   22     -2.98     -0.03
    1    5   22     -4.46      0.14
    3    5   22     -9.12      0.16
    5    5   22     -0.63     -0.02
    7    5   22    -13.18     -0.18
    9    5   22     -9.58     -0.51
   11    5   22     -9.26      0.25
   13    5   22     -8.56     -0.02
   15    5   22     -7.85      0.25
  -24    6   22     -2.31      0.03
  -22    6   22     10.28     -0.19
  -20    6   22      6.51     -1.01
  -18    6   22     -0.62      0.29
  -16    6   22    -13.16      0.33
  -14    6   22     -0.53      0.21
  -12    6   22     -1.80      0.24
  -10    6   22      4.87     -0.06
   -8    6   22      1.29     -0.26
   -6    6   22    -10.99     -0.68
   -4    6   22      3.13     -0.27
   -2    6   22      3.16     -0.13
    0    6   22     -3.14     -0.19
    2    6   22    -14.74     -0.08
    4    6   22     -4.92     -0.24
    6    6   22      4.30      0.05
    8    6   22      2.91     -0.36
   10    6   22     29.02     -0.12
   12    6   22     10.19      0.06
   14    6   22     -4.19     -0.09
  -25    7   22      5.16     -0.27
  -23    7   22    -10.55      0.04
  -21    7   22     12.15     -0.49
  -19    7   22     14.39     -0.22
  -17    7   22    -10.23      0.34
  -15    7   22     -6.95      0.22
  -13    7   22     19.52     -0.29
  -11    7   22     12.50      0.15
   -9    7   22      1.97     -0.09
   -7    7   22     13.39     -0.21
   -5    7   22     19.27     -0.13
   -3    7   22     32.72      0.16
   -1    7   22     15.65     -0.19
    1    7   22     22.42     -0.39
    3    7   22      7.27      0.02
    5    7   22     14.02      0.28
    7    7   22      8.19      0.31
    9    7   22     15.85     -0.10
   11    7   22     -2.19      0.27
   13    7   22     -7.99     -0.03
   15    7   22     -6.02      0.15
  -24    8   22     -5.98     -0.17
  -22    8   22     -1.44     -0.44
  -20    8   22     -9.74     -0.60
  -18    8   22      5.24      0.84
  -16    8   22      1.59      0.19
  -14    8   22      7.36      0.70
  -12    8   22    -11.86      0.30
  -10    8   22      8.54      0.32
   -8    8   22     10.56     -0.14
   -6    8   22      3.80     -0.22
   -4    8   22     -4.11     -0.11
   -2    8   22     -6.05     -0.06
    0    8   22      2.38     -0.05
    2    8   22     14.48      0.11
    4    8   22     10.81      0.35
    6    8   22     -0.65      0.45
    8    8   22     -5.35     -0.20
   10    8   22     -1.63     -0.22
   12    8   22     -1.50     -0.09
   14    8   22    -10.64      0.08
  -25    9   22      2.42      0.10
  -23    9   22     -2.81      0.53
  -21    9   22      3.22      0.31
  -19    9   22      1.52     -0.66
  -17    9   22    -10.86     -0.03
  -15    9   22      4.01      0.85
  -13    9   22      4.04      0.49
  -11    9   22      4.25      0.19
   -9    9   22    -13.11     -0.19
   -7    9   22    -14.25     -0.10
   -5    9   22    -26.38     -0.45
   -3    9   22    -10.15      0.31
   -1    9   22    -18.32     -0.17
    1    9   22      0.76     -0.35
    3    9   22      0.11      0.22
    5    9   22      7.39     -0.20
    7    9   22     -0.50      0.16
    9    9   22      8.33     -0.29
   11    9   22      8.86     -0.06
   13    9   22     -2.85     -0.18
  -24   10   22      9.65     -0.17
  -22   10   22      5.36      0.38
  -20   10   22     -3.94      0.16
  -18   10   22      8.02      0.70
  -16   10   22     -7.20     -0.22
  -14   10   22     13.38      0.22
  -12   10   22     16.89      0.11
  -10   10   22      8.60      0.49
   -8   10   22    -14.12     -0.37
   -6   10   22      4.05     -0.31
   -4   10   22      7.74     -0.24
   -2   10   22      9.01     -0.09
    0   10   22     -1.39      0.11
    2   10   22     -4.85      0.04
    4   10   22     -2.43      0.43
    6   10   22     -0.25     -0.31
    8   10   22     11.91     -0.22
   10   10   22      0.06      0.14
   12   10   22      5.05     -0.10
   14   10   22     -3.89      0.47
  -23   11   22    -10.17     -0.26
  -21   11   22    -15.85      1.47
  -19   11   22     -2.26      0.37
  -17   11   22      0.35     -0.25
  -15   11   22      8.06      0.46
  -13   11   22     -8.93     -0.16
  -11   11   22      4.58     -0.04
   -9   11   22      5.70     -0.03
   -7   11   22     15.01      0.04
   -5   11   22     -8.07     -0.04
   -3   11   22    -10.81      0.06
   -1   11   22    -11.50     -0.09
    1   11   22     11.51     -0.05
    3   11   22      2.50      0.13
    5   11   22     -9.40     -0.58
    7   11   22     -7.00      0.45
    9   11   22    -11.67      0.48
   11   11   22      1.93      0.46
   13   11   22     -5.06      0.30
  -24   12   22     -6.65      0.10
  -22   12   22     -7.30      1.24
  -20   12   22     -2.65      0.68
  -18   12   22     11.11      0.24
  -16   12   22      3.45      0.13
  -14   12   22     -1.35      0.38
  -12   12   22     -5.17      0.06
  -10   12   22    -10.48      0.36
   -8   12   22    -20.37      0.06
   -6   12   22     -9.28     -0.08
   -4   12   22    -10.13     -0.13
   -2   12   22     -5.59     -0.30
    0   12   22    -13.93      0.06
    2   12   22     -9.71      0.63
    4   12   22      1.06      0.76
    6   12   22      5.63     -0.84
    8   12   22      7.58     -0.63
   10   12   22    -12.77     -0.45
   12   12   22    -11.30     -0.58
   14   12   22    -12.26     -0.01
  -23   13   22     10.51     -0.05
  -21   13   22     -3.35      1.02
  -19   13   22      9.52     -0.04
  -17   13   22      3.56     -0.14
  -15   13   22     -1.03      0.07
  -13   13   22     -3.75     -0.18
  -11   13   22      4.85      0.25
   -9   13   22     -1.82     -0.15
   -7   13   22      8.83     -0.29
   -5   13   22      4.59     -0.07
   -3   13   22     -7.93     -0.28
   -1   13   22     -8.75      0.26
    1   13   22      2.98      0.09
    3   13   22      4.53      0.07
    5   13   22     -5.81     -0.73
    7   13   22    -13.20     -0.42
    9   13   22     -9.94      0.11
   11   13   22     15.11     -0.21
   13   13   22      7.36      0.33
  -24   14   22     -7.04      0.01
  -22   14   22      8.63      1.00
  -20   14   22      3.06      1.17
  -18   14   22     -8.58      0.15
  -16   14   22      1.89     -0.08
  -14   14   22     -3.69     -0.29
  -12   14   22      9.36     -0.33
  -10   14   22      3.07      0.21
   -8   14   22     -8.74     -0.05
   -6   14   22    -11.88      0.17
   -4   14   22      5.21      0.19
   -2   14   22     24.29     -0.24
    0   14   22      8.95      0.16
    2   14   22      7.65      0.29
    4   14   22    -14.40     -0.14
    6   14   22     -4.08     -0.46
    8   14   22      1.76      0.08
   10   14   22     -6.99      0.10
   12   14   22     -0.40      0.40
  -23   15   22     14.00      0.40
  -21   15   22     -1.02      0.20
  -19   15   22      5.30     -0.47
  -17   15   22      1.88      0.12
  -15   15   22      2.79      0.19
  -13   15   22      6.64      0.35
  -11   15   22      4.79      0.30
   -9   15   22     -3.25      0.24
   -7   15   22     -8.82      0.04
   -5   15   22      1.20     -0.07
   -3   15   22      4.13     -0.09
   -1   15   22     18.61      0.31
    1   15   22     15.32      0.01
    3   15   22     11.20      0.25
    5   15   22      4.62     -0.22
    7   15   22      2.44     -0.38
    9   15   22     13.86      0.15
   11   15   22      5.34     -0.51
   13   15   22     -6.86      0.09
  -22   16   22      9.08     -0.56
  -20   16   22      4.24     -0.60
  -18   16   22      8.24      0.21
  -16   16   22     24.34     -0.01
  -14   16   22      2.37     -0.45
  -12   16   22      4.84      0.06
  -10   16   22    -11.60      0.05
   -8   16   22      6.83     -0.16
   -6   16   22     12.45      0.26
   -4   16   22     -0.07      0.19
   -2   16   22      1.36      0.00
    0   16   22     -8.86     -0.36
    2   16   22     14.08     -0.32
    4   16   22      0.79     -0.08
    6   16   22      7.00      0.39
    8   16   22     -7.23      0.20
   10   16   22     -5.51      0.05
   12   16   22     -1.98      0.18
  -23   17   22      6.34     -0.04
  -21   17   22     -2.15     -0.15
  -19   17   22      0.07      0.00
  -17   17   22      2.76      0.02
  -15   17   22      1.58      0.22
  -13   17   22     -5.51      0.09
  -11   17   22     -0.79     -0.05
   -9   17   22     -1.03      0.17
   -7   17   22     -1.91      0.09
   -5   17   22     10.94      0.33
   -3   17   22      3.76      0.26
   -1   17   22     12.74      0.39
    1   17   22     13.47      0.15
    3   17   22      7.50      0.19
    5   17   22     -6.81      0.43
    7   17   22      0.85      0.39
    9   17   22     -0.33      0.35
   11   17   22    -13.23     -0.19
   13   17   22      1.78      0.51
  -22   18   22      4.30     -0.17
  -20   18   22     -0.87     -0.93
  -18   18   22     -1.56      0.15
  -16   18   22     -7.78     -0.23
  -14   18   22      0.24      0.06
  -12   18   22     15.38      0.55
  -10   18   22     -9.08      0.30
   -8   18   22     -0.32      0.70
   -6   18   22      1.49      0.16
   -4   18   22     -6.73      0.27
   -2   18   22     17.28      0.59
    0   18   22     20.37     -0.44
    2   18   22     14.21     -0.19
    4   18   22     -1.91     -0.18
    6   18   22     10.49      0.25
    8   18   22      9.14      0.06
   10   18   22     11.90     -0.03
   12   18   22      3.67     -0.24
  -21   19   22      8.26     -0.44
  -19   19   22      0.57     -0.07
  -17   19   22     -3.60     -0.17
  -15   19   22      3.35      0.08
  -13   19   22     11.80     -0.33
  -11   19   22      3.58     -0.27
   -9   19   22    -21.37     -0.36
   -7   19   22      2.38     -0.11
   -5   19   22      8.84      0.18
   -3   19   22    -15.44      0.26
   -1   19   22    -12.88      0.26
    1   19   22    -21.69     -0.44
    3   19   22    -19.63     -0.23
    5   19   22    -17.95      0.34
    7   19   22     11.19     -0.01
    9   19   22     -2.67      0.18
   11   19   22    -10.43     -0.15
  -22   20   22     -7.78     -0.20
  -20   20   22      8.77     -0.01
  -18   20   22     18.58      0.51
  -16   20   22     -1.70      0.09
  -14   20   22     -4.95      0.20
  -12   20   22    -14.65     -0.04
  -10   20   22    -13.12     -0.01
   -8   20   22      4.47      0.41
   -6   20   22     14.15     -0.10
   -4   20   22     -0.46      0.27
   -2   20   22    -13.08      0.19
    0   20   22     -1.06     -0.40
    2   20   22     -0.08      0.43
    4   20   22     -0.01      0.50
    6   20   22      3.29      0.34
    8   20   22     -4.40      0.01
   10   20   22    -11.50     -0.26
   12   20   22      3.02     -0.15
  -21   21   22      9.05      0.20
  -19   21   22      7.51     -0.01
  -17   21   22     -8.51     -0.45
  -15   21   22    -11.61     -0.06
  -13   21   22     14.58      0.03
  -11   21   22      9.42     -0.01
   -9   21   22     -3.47     -0.06
   -7   21   22     14.04      0.48
   -5   21   22    -10.40      0.29
   -3   21   22    -24.48      0.53
   -1   21   22     12.34      0.32
    1   21   22      1.25     -0.18
    3   21   22      8.68     -0.30
    5   21   22      0.74     -0.22
    7   21   22     16.85     -0.50
    9   21   22      1.19      0.25
   11   21   22      4.64     -0.23
  -20   22   22      8.84     -0.16
  -18   22   22     -6.31     -0.26
  -16   22   22     -7.55     -0.07
  -14   22   22     12.94     -0.11
  -12   22   22      3.60     -0.21
  -10   22   22     -6.23     -0.15
   -8   22   22    -24.69     -0.34
   -6   22   22    -13.40     -0.14
   -4   22   22      9.93      0.11
   -2   22   22     -2.22      0.44
    0   22   22     -8.96      0.17
    2   22   22    -19.76      0.09
    4   22   22     -4.44      0.58
    6   22   22     10.36     -0.11
    8   22   22      4.41      0.20
   10   22   22     -7.00     -0.07
  -21   23   22     12.81      0.11
  -19   23   22      7.87      0.19
  -17   23   22     -2.66     -0.18
  -15   23   22     -2.22      0.20
  -13   23   22     11.13      0.25
  -11   23   22     -9.48     -0.06
   -9   23   22     -5.55     -0.07
   -7   23   22     -3.02      0.29
   -5   23   22    -10.03      0.09
   -3   23   22    -17.18      0.47
   -1   23   22      6.69      0.06
    1   23   22    -12.89      0.47
    3   23   22     10.54     -0.06
    5   23   22     -1.56     -0.06
    7   23   22      8.71     -0.35
    9   23   22      6.46      0.23
  -20   24   22     -2.66      0.14
  -18   24   22      3.71     -0.10
  -16   24   22     16.11     -0.18
  -14   24   22      9.04     -0.08
  -12   24   22     -2.64      0.06
  -10   24   22     10.22     -0.37
   -8   24   22      3.99     -0.51
   -6   24   22    -19.54      0.67
   -4   24   22    -22.17      0.39
   -2   24   22     -8.56      0.24
    0   24   22      7.26      0.27
    2   24   22      5.40     -0.15
    4   24   22     13.31      0.27
    6   24   22     10.24     -0.84
    8   24   22     -2.42      0.18
   10   24   22     -3.02     -0.22
  -19   25   22     -1.33     -0.05
  -17   25   22      3.73     -0.18
  -15   25   22      9.59      0.07
  -13   25   22     11.14     -0.12
  -11   25   22      8.80      0.04
   -9   25   22     21.71      0.24
   -7   25   22     -6.26      0.46
   -5   25   22     -0.13     -0.16
   -3   25   22     -1.51      0.17
   -1   25   22      0.77     -0.18
    1   25   22    -11.64      0.21
    3   25   22     16.64     -0.25
    5   25   22      0.18      0.20
    7   25   22      3.81      0.19
    9   25   22     -0.80      0.27
  -18   26   22     -8.61     -0.02
  -16   26   22      9.48     -0.19
  -14   26   22     12.05      0.21
  -12   26   22      7.13      0.13
  -10   26   22      5.81     -0.01
   -8   26   22     11.80     -0.39
   -6   26   22      1.52      0.02
   -4   26   22     -9.11      0.07
   -2   26   22      6.12     -0.21
    0   26   22     -4.66      0.36
    2   26   22    -21.38     -0.02
    4   26   22     -8.03      0.03
    6   26   22     -3.51     -0.63
    8   26   22      6.17      0.03
  -17   27   22      6.52     -0.22
  -15   27   22      8.13      0.05
  -13   27   22     -6.36      0.10
  -11   27   22      3.67      0.30
   -9   27   22      1.83     -0.05
   -7   27   22    -23.73      0.34
   -5   27   22    -13.20     -0.02
   -3   27   22    -10.31      0.16
   -1   27   22      3.45     -0.22
    1   27   22     15.27      0.07
    3   27   22     11.54     -0.09
    5   27   22     -4.10     -0.28
    7   27   22      8.84     -0.28
  -18   28   22      4.73      0.08
  -16   28   22     11.37      0.04
  -14   28   22      9.82      0.10
  -12   28   22     13.32     -0.29
  -10   28   22     13.83      0.25
   -8   28   22     18.37      0.21
   -6   28   22     15.98     -0.11
   -4   28   22      1.23     -0.06
   -2   28   22      8.38     -0.55
    0   28   22     -0.44      0.14
    2   28   22      4.49      0.01
    4   28   22      9.84      0.23
    6   28   22     -7.40      0.02
  -17   29   22     -5.06      0.01
  -15   29   22      3.82      0.21
  -13   29   22     -3.32     -0.11
  -11   29   22      6.52     -0.13
   -9   29   22     -7.49     -0.44
   -7   29   22     12.30     -0.45
   -5   29   22     20.93     -0.26
   -3   29   22      8.42     -0.02
   -1   29   22     -1.05     -0.29
    1   29   22     -8.48     -0.12
    3   29   22    -20.58     -0.17
    5   29   22    -11.02     -0.24
    7   29   22      4.53      0.14
  -16   30   22     -0.48      0.09
  -14   30   22     -5.53     -0.03
  -12   30   22     -5.85      0.03
  -10   30   22     -9.63      0.43
   -8   30   22    -26.19      0.54
   -6   30   22    -15.59      0.01
   -4   30   22     -4.65      0.01
   -2   30   22     -0.57     -0.04
    0   30   22      2.57      0.25
    2   30   22     12.37     -0.34
    4   30   22      6.13     -0.13
    6   30   22      2.52     -0.04
  -15   31   22      2.61      0.02
  -13   31   22      9.72     -0.21
  -11   31   22     18.59     -0.07
   -9   31   22    -15.30     -0.04
   -7   31   22      7.90     -0.11
   -5   31   22     10.99      0.38
   -3   31   22      5.46      0.05
   -1   31   22     -3.34      0.16
    1   31   22     -5.55      0.32
    3   31   22     -0.54      0.24
    5   31   22     -1.54      0.19
  -14   32   22     -4.42      0.07
  -12   32   22    -16.59     -0.06
  -10   32   22    -10.26     -0.26
   -8   32   22     -2.50      0.06
   -6   32   22      9.15      0.03
   -4   32   22      8.71      0.27
   -2   32   22     -1.46      0.07
    0   32   22    -10.98      0.06
    2   32   22     -6.39     -0.23
    4   32   22    -10.73     -0.26
  -13   33   22      3.92     -0.04
  -11   33   22      7.64      0.08
   -9   33   22    -25.60      0.16
   -7   33   22    -13.90      0.03
   -5   33   22     -7.55      0.28
   -3   33   22     -7.35     -0.18
   -1   33   22    -16.95      0.14
    1   33   22    -11.41     -0.26
    3   33   22      3.75     -0.48
  -12   34   22      6.89     -0.14
  -10   34   22     12.64     -0.17
   -8   34   22      7.45      0.12
   -6   34   22     -4.98      0.16
   -4   34   22    -21.18      0.23
   -2   34   22    -15.92      0.02
    0   34   22     -7.89     -0.12
   -9   35   22     -9.50      0.20
   -7   35   22      3.96     -0.21
   -5   35   22     -8.97     -0.06
   -3   35   22     -3.90     -0.34
   -1   35   22    -10.94     -0.19
   -6   36   22     -0.45     -0.05
   -4   36   22     -9.99      0.08
  -24    0   23     -1.33     -0.11
  -22    0   23      9.99      0.28
  -20    0   23    -12.14     -0.28
  -18    0   23      6.14     -0.26
  -16    0   23      3.10     -0.11
  -14    0   23     -9.41      0.09
  -12    0   23      4.38      0.13
  -10    0   23     -7.76     -0.24
   -8    0   23     13.57      0.61
   -6    0   23      5.44     -0.31
   -4    0   23    -12.95      0.04
   -2    0   23    -28.53     -0.05
    0    0   23     -1.21      0.33
    2    0   23      4.10      0.08
    4    0   23     14.68      0.27
    6    0   23      8.59      0.32
    8    0   23     22.34     -0.50
   10    0   23     -7.71      0.32
   12    0   23    -10.49     -0.51
   14    0   23      0.08     -0.32
  -25    1   23      7.56     -0.36
  -23    1   23     -3.05      0.04
  -21    1   23      2.68     -0.21
  -19    1   23     -5.67     -0.19
  -17    1   23     12.47     -0.82
  -15    1   23      4.44     -0.03
  -13    1   23      0.34      0.32
  -11    1   23     -0.10      0.09
   -9    1   23      8.08      0.05
   -7    1   23     -8.49      0.33
   -5    1   23     -8.14      0.14
   -3    1   23    -11.88     -0.15
   -1    1   23     -0.29     -0.23
    1    1   23     -8.59     -0.06
    3    1   23      1.02     -0.11
    5    1   23     -6.87      0.31
    7    1   23    -10.23     -0.05
    9    1   23      6.60      0.63
   11    1   23     -6.61      0.10
   13    1   23     10.68     -0.14
  -24    2   23      3.89     -0.39
  -22    2   23      0.37      0.62
  -20    2   23    -18.30      0.01
  -18    2   23      1.45      0.11
  -16    2   23      9.58     -0.28
  -14    2   23      2.52     -0.06
  -12    2   23      6.19     -0.09
  -10    2   23      1.79     -0.20
   -8    2   23     -3.85      0.43
   -6    2   23    -17.55     -0.21
   -4    2   23      1.68      0.34
   -2    2   23     -3.68      0.10
    0    2   23      3.75     -0.07
    2    2   23    -10.97      0.08
    4    2   23     -2.00     -0.18
    6    2   23     -1.26     -0.32
    8    2   23      8.59     -0.34
   10    2   23      3.08     -0.39
   12    2   23      6.69     -0.01
   14    2   23     18.48     -0.08
  -25    3   23      1.72     -0.30
  -23    3   23     -6.06      0.02
  -21    3   23     -0.49      0.28
  -19    3   23     -2.27     -0.20
  -17    3   23     -0.87     -0.60
  -15    3   23    -13.32      0.35
  -13    3   23      1.39     -0.44
  -11    3   23      2.20     -0.47
   -9    3   23     -3.56     -0.01
   -7    3   23     13.59      0.02
   -5    3   23      7.20      0.02
   -3    3   23    -10.87     -0.04
   -1    3   23     -1.63      0.16
    1    3   23      5.80      0.24
    3    3   23     -0.75     -0.09
    5    3   23     -2.89      0.48
    7    3   23     12.93     -0.02
    9    3   23     14.62     -0.11
   11    3   23     -8.48     -0.24
   13    3   23      4.89     -0.47
  -24    4   23     -8.35     -0.38
  -22    4   23     -8.33      0.42
  -20    4   23     -5.92     -0.16
  -18    4   23      7.77     -0.05
  -16    4   23     12.03     -0.65
  -14    4   23     -3.29     -0.19
  -12    4   23    -14.75     -0.37
  -10    4   23      1.06     -0.16
   -8    4   23      4.37      0.22
   -6    4   23     -8.33      0.15
   -4    4   23      7.12     -0.06
   -2    4   23     -7.64     -0.28
    0    4   23     -0.10     -0.06
    2    4   23     -4.93     -0.05
    4    4   23     -9.09     -0.17
    6    4   23     -3.42     -0.47
    8    4   23     -7.93     -0.18
   10    4   23    -11.69     -0.46
   12    4   23     -9.12     -0.10
   14    4   23      1.35     -0.18
  -25    5   23     -1.80     -0.18
  -23    5   23    -11.77      0.22
  -21    5   23    -11.36      0.09
  -19    5   23     -0.17     -0.66
  -17    5   23     -0.69     -0.04
  -15    5   23      0.72      0.35
  -13    5   23     -3.35     -0.48
  -11    5   23      2.30     -0.58
   -9    5   23    -15.51     -0.22
   -7    5   23     -8.97     -0.11
   -5    5   23     -7.30      0.14
   -3    5   23     -4.20      0.40
   -1    5   23     -2.17      0.07
    1    5   23      8.22     -0.14
    3    5   23      0.89     -0.65
    5    5   23      9.50     -0.52
    7    5   23     -2.91      0.49
    9    5   23     -3.51     -0.01
   11    5   23      2.59     -0.06
   13    5   23     17.53     -0.16
  -24    6   23      0.29      0.16
  -22    6   23     13.39      0.73
  -20    6   23     14.50      0.59
  -18    6   23     -5.21      0.42
  -16    6   23    -13.11     -0.22
  -14    6   23     -5.95     -0.29
  -12    6   23      8.96     -0.70
  -10    6   23      3.10     -0.08
   -8    6   23     -4.07     -0.28
   -6    6   23      0.70      0.08
   -4    6   23     17.63      0.12
   -2    6   23     14.53     -0.12
    0    6   23     15.86      0.54
    2    6   23      5.16     -0.32
    4    6   23    -21.06      0.01
    6    6   23     -3.58      0.11
    8    6   23     13.39      0.39
   10    6   23     13.84      0.32
   12    6   23     11.68      0.06
   14    6   23     15.45      0.11
  -23    7   23     -2.56      0.28
  -21    7   23      0.04      0.09
  -19    7   23     -2.22     -0.41
  -17    7   23     -9.54      0.20
  -15    7   23      4.55      0.21
  -13    7   23    -17.74      0.14
  -11    7   23      7.62     -0.26
   -9    7   23      8.93     -0.23
   -7    7   23      7.70      0.05
   -5    7   23     -5.40      0.12
   -3    7   23     -2.63      0.08
   -1    7   23    -11.14     -0.05
    1    7   23     -0.92     -0.21
    3    7   23     -3.11     -0.28
    5    7   23     11.87     -0.11
    7    7   23     -6.44      1.20
    9    7   23     -6.49      0.12
   11    7   23      0.28      0.08
   13    7   23      6.78     -0.26
  -24    8   23     -3.48      0.81
  -22    8   23     -1.92      0.12
  -20    8   23      2.92     -0.17
  -18    8   23     -7.43      0.07
  -16    8   23     -4.81      0.17
  -14    8   23    -14.35      0.05
  -12    8   23    -12.19     -0.08
  -10    8   23    -19.59      0.10
   -8    8   23    -23.64     -0.10
   -6    8   23     -9.29      0.08
   -4    8   23     -5.31      0.48
   -2    8   23     -5.34      0.04
    0    8   23     -6.50      0.40
    2    8   23      4.80     -0.36
    4    8   23      2.34     -0.01
    6    8   23      3.39      0.08
    8    8   23     -2.98      0.10
   10    8   23      2.51      0.08
   12    8   23     -3.22     -0.50
   14    8   23      6.16     -0.18
  -23    9   23      5.36     -0.62
  -21    9   23     -3.65     -0.27
  -19    9   23     -5.30     -0.10
  -17    9   23     -3.74      0.23
  -15    9   23      5.46      0.00
  -13    9   23     -8.38      0.22
  -11    9   23     12.92     -0.13
   -9    9   23      2.43     -0.55
   -7    9   23     11.50     -0.06
   -5    9   23      2.11      0.23
   -3    9   23     -1.37      0.08
   -1    9   23     -7.65      0.42
    1    9   23      3.70     -0.10
    3    9   23      7.30     -0.39
    5    9   23     14.28     -0.14
    7    9   23      0.44      0.35
    9    9   23      4.40     -0.32
   11    9   23      1.34     -0.25
   13    9   23     13.43     -0.39
  -24   10   23      5.47      0.78
  -22   10   23      5.36     -0.32
  -20   10   23     -5.46      0.89
  -18   10   23    -18.98      0.23
  -16   10   23     -8.63      0.14
  -14   10   23     -7.11      0.44
  -12   10   23      6.02      0.09
  -10   10   23     18.09      0.14
   -8   10   23      2.20      0.26
   -6   10   23     -1.07      0.06
   -4   10   23     -8.89      0.16
   -2   10   23      7.97     -0.53
    0   10   23     -4.20     -0.19
    2   10   23     -1.99     -0.32
    4   10   23     -4.11     -0.27
    6   10   23      8.39      0.06
    8   10   23      1.31     -0.10
   10   10   23      5.32      0.15
   12   10   23     -2.41     -0.05
  -23   11   23     -4.00      0.05
  -21   11   23    -13.58      0.74
  -19   11   23     -6.47      0.10
  -17   11   23      0.10      0.19
  -15   11   23     -3.44     -0.10
  -13   11   23     -5.43      0.33
  -11   11   23     -0.45      0.28
   -9   11   23    -20.34     -0.24
   -7   11   23    -11.07      0.23
   -5   11   23     -9.73     -0.24
   -3   11   23    -11.52      0.01
   -1   11   23    -13.25      0.05
    1   11   23    -14.16     -0.50
    3   11   23     -8.41     -0.10
    5   11   23      2.36      0.14
    7   11   23    -12.12     -0.24
    9   11   23     -1.16     -0.23
   11   11   23     -9.30     -0.07
   13   11   23     -7.49     -0.38
  -24   12   23     -4.05     -0.74
  -22   12   23    -14.19     -2.85
  -20   12   23     -8.05     -0.02
  -18   12   23     21.90      0.20
  -16   12   23     19.27     -0.17
  -14   12   23     -0.66     -0.17
  -12   12   23    -13.39     -0.46
  -10   12   23      6.98     -0.18
   -8   12   23      9.91     -0.24
   -6   12   23     23.64      0.12
   -4   12   23     -7.09     -0.01
   -2   12   23     -2.17     -0.77
    0   12   23    -13.18     -0.40
    2   12   23      1.91     -0.20
    4   12   23     10.84      0.06
    6   12   23     21.75      0.27
    8   12   23      0.28     -0.48
   10   12   23     -6.30     -0.02
   12   12   23     -6.46     -0.07
  -23   13   23     -4.62     -0.13
  -21   13   23      3.33      1.06
  -19   13   23     -0.47      0.04
  -17   13   23     -0.56     -0.19
  -15   13   23     -7.00      0.30
  -13   13   23     -0.69      0.23
  -11   13   23      8.02      0.20
   -9   13   23     14.43      0.20
   -7   13   23     12.93      0.64
   -5   13   23     -2.21     -0.12
   -3   13   23      1.91      0.04
   -1   13   23      9.11     -0.06
    1   13   23     11.86      0.00
    3   13   23      6.56      0.13
    5   13   23      0.81     -0.04
    7   13   23     -6.25     -0.14
    9   13   23      4.34      0.01
   11   13   23     12.14      0.30
   13   13   23      7.87      0.08
  -22   14   23     -0.96     -0.04
  -20   14   23     -6.70      0.31
  -18   14   23      8.97      0.61
  -16   14   23     -8.10     -0.22
  -14   14   23      7.57     -0.19
  -12   14   23     -1.02      0.18
  -10   14   23      3.25      0.21
   -8   14   23    -20.27      0.12
   -6   14   23     -6.84      0.17
   -4   14   23    -10.45      0.07
   -2   14   23     13.32      0.22
    0   14   23      2.31     -0.21
    2   14   23    -12.72     -0.05
    4   14   23     -2.04      0.48
    6   14   23     -6.35      0.61
    8   14   23    -19.13     -0.35
   10   14   23     -3.80      0.25
   12   14   23      1.12     -0.16
  -23   15   23     -3.84     -0.83
  -21   15   23     12.47     -0.25
  -19   15   23      2.39     -0.28
  -17   15   23      7.61     -0.36
  -15   15   23      5.72     -0.21
  -13   15   23      1.96     -0.78
  -11   15   23     -2.83     -0.33
   -9   15   23      2.95     -0.38
   -7   15   23      9.94     -0.27
   -5   15   23     -4.80     -0.09
   -3   15   23     -6.94     -0.23
   -1   15   23    -10.16      0.18
    1   15   23    -11.26      0.12
    3   15   23    -14.62     -0.35
    5   15   23    -21.58     -0.07
    7   15   23     -8.78      0.08
    9   15   23     -3.94      0.16
   11   15   23      7.73      0.15
  -22   16   23     -1.59      0.02
  -20   16   23     -7.92     -0.74
  -18   16   23      8.62      0.40
  -16   16   23     -1.24     -0.16
  -14   16   23     -0.09      0.18
  -12   16   23    -20.41      0.11
  -10   16   23      7.33     -0.22
   -8   16   23     13.59     -0.09
   -6   16   23     13.41     -0.03
   -4   16   23      2.71      0.03
   -2   16   23     -1.88      0.45
    0   16   23      5.70     -0.04
    2   16   23      1.74      0.39
    4   16   23     15.09      0.06
    6   16   23      5.96      0.31
    8   16   23      6.00     -0.09
   10   16   23      9.08      0.20
   12   16   23     10.85     -0.20
  -21   17   23     -2.17      0.00
  -19   17   23     -9.28     -0.19
  -17   17   23     -5.34      0.19
  -15   17   23     -2.71      0.16
  -13   17   23      1.30     -0.05
  -11   17   23      0.17     -0.09
   -9   17   23     -0.69     -0.06
   -7   17   23     11.63     -0.30
   -5   17   23     -1.72     -0.08
   -3   17   23     -6.06     -0.01
   -1   17   23     13.06      0.52
    1   17   23      8.43      0.05
    3   17   23      9.01     -0.36
    5   17   23     -6.11      0.26
    7   17   23     -7.61      0.19
    9   17   23     -6.73      0.43
   11   17   23      4.70     -0.12
  -22   18   23      5.85      0.67
  -20   18   23     -5.89     -0.27
  -18   18   23    -11.32      0.25
  -16   18   23      3.08     -0.58
  -14   18   23      6.83     -0.34
  -12   18   23      8.42     -0.30
  -10   18   23     -1.93     -0.16
   -8   18   23    -16.46     -0.71
   -6   18   23    -15.14     -0.62
   -4   18   23     11.02     -0.74
   -2   18   23     -3.32     -0.01
    0   18   23     -6.00      0.00
    2   18   23    -19.54      0.20
    4   18   23    -25.03     -0.24
    6   18   23    -17.84      0.05
    8   18   23     -3.75     -0.06
   10   18   23     -1.96     -0.16
  -21   19   23     -4.81     -0.47
  -19   19   23      2.82     -0.18
  -17   19   23     -7.61      0.11
  -15   19   23    -17.44      0.35
  -13   19   23    -13.88      0.18
  -11   19   23     -3.20     -0.61
   -9   19   23     -4.73     -0.33
   -7   19   23     -1.41     -0.62
   -5   19   23     -0.25     -0.49
   -3   19   23    -18.47     -0.14
   -1   19   23      4.43     -0.24
    1   19   23      3.78     -0.02
    3   19   23      9.58     -0.34
    5   19   23      2.48     -0.14
    7   19   23     18.63      0.01
    9   19   23     24.96      0.66
   11   19   23     10.48      0.32
  -20   20   23     -3.16     -0.03
  -18   20   23      0.32      0.45
  -16   20   23     10.70      0.05
  -14   20   23    -11.93     -0.07
  -12   20   23      9.61     -0.08
  -10   20   23    -13.68      0.17
   -8   20   23     -5.18     -0.26
   -6   20   23    -14.31     -0.04
   -4   20   23     -1.32     -0.57
   -2   20   23     -0.28     -0.28
    0   20   23      5.42     -0.18
    2   20   23      5.90      0.22
    4   20   23     -2.47      0.25
    6   20   23      1.28      0.06
    8   20   23     -7.75      0.16
   10   20   23     -3.72     -0.11
  -21   21   23     -0.83      0.16
  -19   21   23      5.38      0.22
  -17   21   23     -3.40     -0.01
  -15   21   23     -3.80      0.22
  -13   21   23     -3.35     -0.14
  -11   21   23      8.97      0.15
   -9   21   23    -10.56      0.40
   -7   21   23    -21.10      0.09
   -5   21   23     14.81     -0.37
   -3   21   23      3.58     -0.01
   -1   21   23     -2.64     -0.24
    1   21   23     -5.95      0.18
    3   21   23      5.48     -0.11
    5   21   23     -7.08      0.15
    7   21   23     -3.01      0.00
    9   21   23     -4.95      0.00
  -20   22   23      8.31      0.00
  -18   22   23     -4.30      0.10
  -16   22   23    -12.87     -0.07
  -14   22   23    -25.19     -0.03
  -12   22   23      7.94      0.10
  -10   22   23    -15.62      0.17
   -8   22   23     -9.72      0.05
   -6   22   23    -29.12      0.18
   -4   22   23    -11.90      0.20
   -2   22   23      9.88     -0.22
    0   22   23      2.02     -0.04
    2   22   23     -4.65      0.37
    4   22   23     -4.88      0.05
    6   22   23      7.54     -0.05
    8   22   23      7.30      0.09
   10   22   23     18.89      0.15
  -19   23   23      2.30      0.10
  -17   23   23     -8.63      0.08
  -15   23   23    -13.58     -0.01
  -13   23   23    -14.69     -0.28
  -11   23   23      1.97      0.53
   -9   23   23    -15.43     -0.17
   -7   23   23    -25.42      0.41
   -5   23   23     -5.43      0.00
   -3   23   23      0.47      0.20
   -1   23   23     -3.86      0.01
    1   23   23     -6.76      0.42
    3   23   23      1.77      0.15
    5   23   23    -12.96      0.23
    7   23   23     -8.15     -0.12
    9   23   23     -3.71     -0.16
  -18   24   23      2.71      0.43
  -16   24   23      8.00      0.49
  -14   24   23     -1.26      0.10
  -12   24   23     -3.33      0.10
  -10   24   23     -1.82      0.34
   -8   24   23      8.23      0.53
   -6   24   23      1.38      0.47
   -4   24   23     13.72      0.82
   -2   24   23     10.74     -0.06
    0   24   23     -3.83     -0.11
    2   24   23     12.41      0.02
    4   24   23     21.26     -0.08
    6   24   23      2.18      0.20
    8   24   23     -8.99     -0.35
  -19   25   23     -0.36      0.20
  -17   25   23     -2.46     -0.04
  -15   25   23    -12.00     -0.52
  -13   25   23     -6.35     -0.03
  -11   25   23      9.52      0.48
   -9   25   23     12.50     -0.48
   -7   25   23     19.54      0.21
   -5   25   23      1.61     -0.05
   -3   25   23     -3.66      0.13
   -1   25   23      5.77     -0.33
    1   25   23     -2.27      0.28
    3   25   23      1.07     -0.03
    5   25   23    -11.85      0.15
    7   25   23    -10.45      0.14
  -18   26   23     -6.98      0.09
  -16   26   23     -7.31      0.10
  -14   26   23     -9.35     -0.28
  -12   26   23    -13.02     -0.04
  -10   26   23     17.55      0.07
   -8   26   23      4.11     -0.03
   -6   26   23      3.83     -0.04
   -4   26   23     13.31      0.13
   -2   26   23     -0.61     -0.07
    0   26   23     -1.70     -0.05
    2   26   23      7.89      0.06
    4   26   23      3.35      0.47
    6   26   23    -16.30      0.53
  -17   27   23     -3.83      0.03
  -15   27   23     -7.27     -0.16
  -13   27   23     14.51      0.36
  -11   27   23      3.48      0.16
   -9   27   23     -1.15     -0.06
   -7   27   23     15.73      0.08
   -5   27   23     13.06     -0.05
   -3   27   23      3.35      0.21
   -1   27   23     16.86     -0.38
    1   27   23      5.68      0.26
    3   27   23     14.89      0.16
    5   27   23     -2.52      0.34
    7   27   23     -1.05      0.12
  -16   28   23     -4.74     -0.14
  -14   28   23     -7.78     -0.07
  -12   28   23    -16.52      0.13
  -10   28   23     17.39     -0.07
   -8   28   23      6.86     -0.55
   -6   28   23     20.70     -0.23
   -4   28   23      4.05     -0.01
   -2   28   23    -10.98      0.21
    0   28   23     17.05     -0.18
    2   28   23     10.11     -0.05
    4   28   23      0.15      0.35
    6   28   23    -15.09      0.09
  -15   29   23    -14.18     -0.03
  -13   29   23     11.24     -0.09
  -11   29   23     12.02     -0.29
   -9   29   23     13.33      0.00
   -7   29   23      1.08      0.09
   -5   29   23     17.63     -0.08
   -3   29   23     -0.84      0.02
   -1   29   23      0.15     -0.02
    1   29   23     -6.71     -0.03
    3   29   23     -0.68      0.16
    5   29   23    -15.12      0.37
  -14   30   23      1.28      0.09
  -12   30   23     -3.02      0.09
  -10   30   23      0.07      0.21
   -8   30   23    -17.07     -0.36
   -6   30   23      1.70     -0.28
   -4   30   23     -6.49     -0.21
   -2   30   23     -0.22      0.17
    0   30   23     11.62     -0.03
    2   30   23    -16.20      0.21
    4   30   23     -3.30      0.17
  -13   31   23      0.00      0.03
  -11   31   23    -12.43      0.19
   -9   31   23    -13.62      0.12
   -7   31   23    -31.45      0.19
   -5   31   23      3.50      0.19
   -3   31   23     -2.00      0.31
   -1   31   23      3.84      0.47
    1   31   23      5.84     -0.01
    3   31   23     -0.26      0.14
  -12   32   23     -4.96     -0.13
  -10   32   23      7.08     -0.21
   -8   32   23     -6.18     -0.29
   -6   32   23      1.85      0.28
   -4   32   23      2.12      0.14
   -2   32   23      9.01      0.27
    0   32   23      6.33      0.13
    2   32   23    -16.11      0.24
  -11   33   23    -11.66      0.10
   -9   33   23    -10.25     -0.08
   -7   33   23    -22.69     -0.29
   -5   33   23    -11.83     -0.33
   -3   33   23     -6.02     -0.24
   -1   33   23     -1.94     -0.14
    1   33   23     -7.44     -0.16
   -8   34   23    -17.06      0.15
   -6   34   23    -12.66      0.13
   -4   34   23     -0.99      0.01
   -2   34   23     12.27      0.08
  -24    0   24      3.50      0.05
  -22    0   24     15.50     -0.49
  -20    0   24     -1.25      0.31
  -18    0   24     -7.85      0.61
  -16    0   24     24.31     -0.33
  -14    0   24     18.58     -0.65
  -12    0   24      6.75      0.32
  -10    0   24     14.33      0.12
   -8    0   24      1.10      0.03
   -6    0   24     -0.70      0.25
   -4    0   24     17.98      0.03
   -2    0   24      5.45     -0.05
    0    0   24      3.66     -0.86
    2    0   24      1.48      0.73
    4    0   24     14.96     -0.11
    6    0   24      8.43      0.28
    8    0   24    -16.79     -0.01
   10    0   24    -15.57     -0.31
   12    0   24    -15.70     -0.35
  -23    1   24     14.40     -0.17
  -21    1   24      8.08     -0.12
  -19    1   24    -11.81      0.03
  -17    1   24      7.04     -0.02
  -15    1   24      8.64     -0.05
  -13    1   24      3.32     -0.27
  -11    1   24      0.11      0.28
   -9    1   24    -10.81     -0.12
   -7    1   24     12.02     -0.25
   -5    1   24     -0.53      0.27
   -3    1   24    -16.21      0.10
   -1    1   24      4.62     -0.15
    1    1   24     11.11     -0.41
    3    1   24     21.15     -0.14
    5    1   24      9.38     -0.06
    7    1   24      0.44      0.24
    9    1   24     -2.62     -0.33
   11    1   24      8.91     -0.13
   13    1   24      7.37      0.69
  -24    2   24      7.00      0.00
  -22    2   24     19.45     -0.21
  -20    2   24     -1.39      0.52
  -18    2   24    -15.11      0.18
  -16    2   24     -5.47     -0.46
  -14    2   24     -4.32     -0.24
  -12    2   24      0.31      0.36
  -10    2   24    -13.76      0.31
   -8    2   24    -20.06      0.21
   -6    2   24    -14.14      0.49
   -4    2   24      5.31     -0.11
   -2    2   24      2.26     -0.05
    0    2   24      8.45      0.09
    2    2   24      3.70      0.43
    4    2   24     -3.42      0.03
    6    2   24      3.15      0.09
    8    2   24      3.50     -0.43
   10    2   24      5.88      0.55
   12    2   24      4.72      0.68
  -23    3   24      4.89     -0.60
  -21    3   24     -3.09     -0.70
  -19    3   24     -6.78     -0.24
  -17    3   24      6.81      0.29
  -15    3   24     11.32      0.11
  -13    3   24      3.70      0.27
  -11    3   24     10.14     -0.07
   -9    3   24     10.82     -0.34
   -7    3   24      1.33     -0.20
   -5    3   24     -1.82      0.23
   -3    3   24      2.78      0.22
   -1    3   24     -3.43     -0.20
    1    3   24     -6.19      0.09
    3    3   24     -5.38      0.48
    5    3   24      5.62      0.02
    7    3   24     -5.10      0.37
    9    3   24    -10.18     -0.56
   11    3   24      1.18     -0.37
   13    3   24     -7.30     -0.12
  -24    4   24      3.36     -0.37
  -22    4   24      2.67     -0.62
  -20    4   24      4.13     -0.53
  -18    4   24     18.06     -0.22
  -16    4   24      6.79     -0.25
  -14    4   24      1.27     -0.39
  -12    4   24      6.03     -0.29
  -10    4   24     -8.33      0.25
   -8    4   24      1.71      0.27
   -6    4   24      2.91      0.22
   -4    4   24     12.15      0.31
   -2    4   24      7.01      0.25
    0    4   24     19.94      0.28
    2    4   24     17.71      0.14
    4    4   24     -4.98     -0.08
    6    4   24      3.36     -0.20
    8    4   24      1.31     -0.53
   10    4   24      6.42     -0.08
   12    4   24     -2.93      0.38
  -23    5   24     -4.71      0.18
  -21    5   24      5.16     -0.04
  -19    5   24      8.66     -0.45
  -17    5   24     -3.41     -0.05
  -15    5   24    -10.56      0.23
  -13    5   24     -2.71      0.77
  -11    5   24     -8.04      0.29
   -9    5   24     -9.48      0.19
   -7    5   24    -14.55      0.32
   -5    5   24    -12.31      0.02
   -3    5   24      7.31      0.12
   -1    5   24     -4.17      0.21
    1    5   24      4.63      0.38
    3    5   24     -6.40      0.01
    5    5   24     -8.31     -0.35
    7    5   24     -8.71     -0.28
    9    5   24     -7.65     -0.57
   11    5   24      0.10      0.24
   13    5   24      3.01      0.03
  -24    6   24      0.50      0.22
  -22    6   24      2.88      0.43
  -20    6   24      5.73     -0.60
  -18    6   24      6.13     -0.05
  -16    6   24    -12.76     -0.10
  -14    6   24      3.25      0.14
  -12    6   24      4.86      0.04
  -10    6   24     19.58      0.16
   -8    6   24      6.83     -0.14
   -6    6   24    -19.55     -0.49
   -4    6   24     -9.28      0.09
   -2    6   24     -5.33      0.35
    0    6   24     -6.33      0.04
    2    6   24    -13.60     -0.02
    4    6   24    -24.35     -0.35
    6    6   24     -6.87     -0.52
    8    6   24    -18.66      0.03
   10    6   24      9.13     -0.20
   12    6   24      4.68      0.41
  -23    7   24     -4.53      0.80
  -21    7   24     18.02      0.53
  -19    7   24     23.95     -0.59
  -17    7   24      0.04      0.20
  -15    7   24     -7.70     -0.20
  -13    7   24     18.28      0.04
  -11    7   24     10.18      0.04
   -9    7   24      8.17     -0.01
   -7    7   24      5.90     -0.02
   -5    7   24      8.47     -0.65
   -3    7   24     24.17      0.28
   -1    7   24      7.86      0.03
    1    7   24      6.97     -0.02
    3    7   24     -3.37     -0.16
    5    7   24     -7.09     -0.09
    7    7   24     -2.36      0.20
    9    7   24      2.74      0.01
   11    7   24     -6.54      0.44
   13    7   24     -8.83     -0.17
  -24    8   24     -5.27      0.27
  -22    8   24      1.37      0.07
  -20    8   24      6.00     -0.21
  -18    8   24     14.91      0.30
  -16    8   24     -1.77     -0.23
  -14    8   24      6.68      0.57
  -12    8   24    -27.69      0.30
  -10    8   24      2.04      0.59
   -8    8   24      3.22      0.01
   -6    8   24      7.76     -0.02
   -4    8   24     -0.61     -0.12
   -2    8   24      3.57     -0.03
    0    8   24      2.77      0.20
    2    8   24     12.05      0.02
    4    8   24     -2.86     -0.03
    6    8   24     -0.05     -0.40
    8    8   24    -13.46     -0.01
   10    8   24     -1.22     -0.35
   12    8   24      3.36      0.22
  -23    9   24     -5.85      1.29
  -21    9   24      7.51      1.12
  -19    9   24     -2.34     -0.66
  -17    9   24    -15.02      0.01
  -15    9   24     -5.81      0.01
  -13    9   24      4.47      0.45
  -11    9   24     -7.03      0.22
   -9    9   24      4.95      0.06
   -7    9   24     -9.46      0.02
   -5    9   24    -16.28     -0.62
   -3    9   24    -11.84      0.64
   -1    9   24    -16.18     -0.11
    1    9   24     -7.08     -0.18
    3    9   24     -0.72      0.02
    5    9   24      2.19     -0.52
    7    9   24      0.32      0.31
    9    9   24     -0.98     -0.06
   11    9   24      0.39      0.20
  -22   10   24     14.77      0.65
  -20   10   24     -1.44      0.78
  -18   10   24     -0.94      0.86
  -16   10   24    -15.10     -0.23
  -14   10   24     14.20      0.16
  -12   10   24      2.29      0.05
  -10   10   24     19.56      0.41
   -8   10   24    -16.34     -0.38
   -6   10   24      7.16      0.00
   -4   10   24      8.09     -0.26
   -2   10   24     16.64     -0.06
    0   10   24     -0.26      0.14
    2   10   24     -2.48     -0.14
    4   10   24     -6.15      0.37
    6   10   24     -1.65     -0.15
    8   10   24      0.77     -0.01
   10   10   24     -5.64      0.09
   12   10   24     -4.94     -0.16
  -23   11   24     -1.31     -0.53
  -21   11   24     -2.15      0.69
  -19   11   24     -8.57      0.34
  -17   11   24     -0.27     -0.18
  -15   11   24      5.04     -0.02
  -13   11   24    -11.29      0.02
  -11   11   24    -18.63      0.04
   -9   11   24      9.91      0.21
   -7   11   24     13.32      0.12
   -5   11   24     12.51      0.34
   -3   11   24     -0.93      0.24
   -1   11   24     -2.26     -0.33
    1   11   24     11.99     -0.38
    3   11   24      5.61     -0.23
    5   11   24     -8.13     -0.76
    7   11   24      4.39      0.40
    9   11   24     -3.43      0.03
   11   11   24      4.58      0.16
  -22   12   24     -6.27      0.11
  -20   12   24    -12.71      0.19
  -18   12   24      4.93      0.01
  -16   12   24      6.42     -0.18
  -14   12   24      7.86      0.12
  -12   12   24    -15.76     -0.14
  -10   12   24     -4.65      0.24
   -8   12   24    -20.43      0.07
   -6   12   24     -0.31      0.33
   -4   12   24      2.70     -0.02
   -2   12   24     -0.63     -0.37
    0   12   24    -10.63     -0.49
    2   12   24     -3.25      0.17
    4   12   24      8.27      0.53
    6   12   24     19.44     -0.31
    8   12   24     18.02     -0.60
   10   12   24     -6.70     -0.27
   12   12   24     -8.59     -0.62
  -23   13   24     12.72     -0.56
  -21   13   24     -1.20      0.10
  -19   13   24     -3.21     -0.15
  -17   13   24      4.84     -0.16
  -15   13   24      7.37     -0.10
  -13   13   24     -0.28     -0.30
  -11   13   24      4.39     -0.01
   -9   13   24      8.91     -0.10
   -7   13   24      4.70     -0.56
   -5   13   24     13.81      0.06
   -3   13   24     -6.13     -0.42
   -1   13   24     -4.20      0.14
    1   13   24      9.15     -0.21
    3   13   24     15.92     -0.15
    5   13   24      1.53     -0.40
    7   13   24     -9.57     -0.12
    9   13   24    -21.70     -0.16
   11   13   24      1.62     -0.21
  -22   14   24      7.29      0.35
  -20   14   24      3.25      0.93
  -18   14   24     -2.76     -0.24
  -16   14   24      9.14     -0.40
  -14   14   24      3.48     -0.41
  -12   14   24      0.95     -0.55
  -10   14   24     -1.88      0.28
   -8   14   24     -9.63      0.01
   -6   14   24    -13.38      0.38
   -4   14   24     10.68      0.29
   -2   14   24     12.09     -0.57
    0   14   24      2.49     -0.28
    2   14   24      0.52      0.18
    4   14   24    -20.38     -0.24
    6   14   24     -7.15     -0.23
    8   14   24     -2.51     -0.20
   10   14   24    -12.59      0.07
  -21   15   24      0.63      0.30
  -19   15   24      8.28     -0.99
  -17   15   24      8.47     -0.12
  -15   15   24      7.78     -0.11
  -13   15   24     -1.62     -0.13
  -11   15   24     -2.71     -0.06
   -9   15   24     -9.09      0.02
   -7   15   24    -14.22     -0.28
   -5   15   24      6.29     -0.21
   -3   15   24     -3.07     -0.38
   -1   15   24      3.19      0.05
    1   15   24      2.40     -0.26
    3   15   24      7.05      0.01
    5   15   24      5.20     -0.12
    7   15   24      2.71     -0.12
    9   15   24      6.13      0.09
   11   15   24      8.14     -0.12
  -22   16   24      5.50     -0.33
  -20   16   24     -0.36     -0.12
  -18   16   24     -3.05     -0.06
  -16   16   24     22.34      0.16
  -14   16   24      5.62     -0.51
  -12   16   24      1.84     -0.47
  -10   16   24     -8.47      0.08
   -8   16   24      5.10     -0.35
   -6   16   24      3.21     -0.14
   -4   16   24      7.14      0.08
   -2   16   24     -5.21     -0.37
    0   16   24    -10.16     -0.13
    2   16   24     10.42     -0.34
    4   16   24      4.81     -0.51
    6   16   24      7.80      0.03
    8   16   24    -13.97     -0.09
   10   16   24    -11.89      0.16
  -21   17   24     -3.64      0.96
  -19   17   24     -4.74     -0.32
  -17   17   24     -2.49      0.18
  -15   17   24     -1.83      0.19
  -13   17   24    -14.72      0.22
  -11   17   24     -7.21      0.23
   -9   17   24     -8.03      0.23
   -7   17   24     -5.50      0.10
   -5   17   24     15.47     -0.08
   -3   17   24      4.93     -0.06
   -1   17   24     -1.27      0.39
    1   17   24      2.47      0.35
    3   17   24     -1.73      0.28
    5   17   24    -18.14      0.01
    7   17   24    -11.04      0.07
    9   17   24     -3.59      0.07
  -20   18   24     -3.07     -0.11
  -18   18   24     -3.79      0.05
  -16   18   24     -7.42     -0.02
  -14   18   24    -10.17     -0.04
  -12   18   24     -0.49      0.10
  -10   18   24     -0.47     -0.02
   -8   18   24     -4.96      0.25
   -6   18   24     -4.31     -0.22
   -4   18   24     -3.61      0.04
   -2   18   24      1.42      0.00
    0   18   24      8.52     -0.40
    2   18   24      6.86     -0.27
    4   18   24      0.76     -0.32
    6   18   24      2.94      0.25
    8   18   24      0.32      0.01
   10   18   24     14.86      0.25
  -21   19   24     -0.97      0.65
  -19   19   24    -12.60      0.12
  -17   19   24     -4.80      0.31
  -15   19   24      4.35      0.16
  -13   19   24      8.52     -0.30
  -11   19   24     17.54     -0.35
   -9   19   24     -0.17     -0.36
   -7   19   24     11.68     -0.12
   -5   19   24     13.30     -0.12
   -3   19   24     -1.75     -0.04
   -1   19   24    -14.91      0.32
    1   19   24    -14.81     -0.59
    3   19   24    -12.53     -0.60
    5   19   24    -17.70     -0.20
    7   19   24      7.27     -0.25
    9   19   24      3.68     -0.11
  -20   20   24     -5.80      0.09
  -18   20   24     19.08      0.59
  -16   20   24      4.10      0.20
  -14   20   24     -5.07      0.49
  -12   20   24    -17.48      0.16
  -10   20   24     12.01     -0.03
   -8   20   24      9.45      0.31
   -6   20   24     22.89     -0.10
   -4   20   24     18.94      0.00
   -2   20   24     -5.88      0.21
    0   20   24      8.87     -0.46
    2   20   24      3.18      0.14
    4   20   24      4.68     -0.04
    6   20   24     -5.46      0.10
    8   20   24     -7.85     -0.45
  -19   21   24     10.89     -0.17
  -17   21   24     10.84     -0.36
  -15   21   24     -2.19     -0.04
  -13   21   24      6.74     -0.03
  -11   21   24     13.63     -0.35
   -9   21   24     11.86     -0.14
   -7   21   24     27.60     -0.02
   -5   21   24    -10.44     -0.13
   -3   21   24    -24.31     -0.19
   -1   21   24     -6.05      0.13
    1   21   24     -7.87     -0.34
    3   21   24     -0.24     -0.38
    5   21   24     -2.46     -0.13
    7   21   24     12.92     -0.36
    9   21   24      0.54      0.15
  -20   22   24      4.36     -0.08
  -18   22   24      9.51     -0.03
  -16   22   24      5.99      0.06
  -14   22   24     19.24      0.26
  -12   22   24      4.26     -0.23
  -10   22   24     19.63      0.09
   -8   22   24     -3.63     -0.38
   -6   22   24     -5.79      0.07
   -4   22   24     13.67     -0.35
   -2   22   24     -6.94      0.30
    0   22   24     -4.55     -0.48
    2   22   24    -29.27     -0.39
    4   22   24     -1.54     -0.04
    6   22   24      5.75      0.09
    8   22   24      5.98     -0.18
  -19   23   24     12.08      0.02
  -17   23   24      3.18     -0.10
  -15   23   24     -1.22      0.18
  -13   23   24      1.56      0.31
  -11   23   24    -17.84     -0.18
   -9   23   24     -0.12      0.25
   -7   23   24     17.96     -0.05
   -5   23   24      3.57      0.00
   -3   23   24     -5.43      0.20
   -1   23   24     10.19      0.05
    1   23   24     -4.53      0.15
    3   23   24      3.26     -0.40
    5   23   24      0.93     -0.25
    7   23   24      3.68     -0.49
  -18   24   24      8.71     -0.39
  -16   24   24     17.13     -0.12
  -14   24   24      4.95      0.00
  -12   24   24    -28.77     -0.32
  -10   24   24    -16.80     -0.14
   -8   24   24      4.81     -1.28
   -6   24   24    -18.04      0.18
   -4   24   24    -21.91     -0.19
   -2   24   24    -22.71      0.28
    0   24   24     -0.16     -0.02
    2   24   24    -23.40      0.00
    4   24   24     11.75      0.01
    6   24   24      5.16     -0.34
  -17   25   24      1.59      0.16
  -15   25   24     12.19      0.31
  -13   25   24     -0.36      0.10
  -11   25   24    -19.60      0.09
   -9   25   24      9.59      0.69
   -7   25   24     -4.37      0.28
   -5   25   24      2.28     -0.24
   -3   25   24     -7.24     -0.14
   -1   25   24    -14.49     -0.42
    1   25   24    -21.89     -0.19
    3   25   24      1.14     -0.68
    5   25   24     11.90      0.03
    7   25   24      7.78      0.08
  -16   26   24      0.48     -0.17
  -14   26   24      2.39      0.04
  -12   26   24    -14.51     -0.16
  -10   26   24    -15.74      0.34
   -8   26   24     23.70     -0.48
   -6   26   24     12.60      0.03
   -4   26   24      8.01      0.00
   -2   26   24      3.78      0.17
    0   26   24      4.49      0.18
    2   26   24    -25.33      0.06
    4   26   24     10.18     -0.18
    6   26   24      2.47     -0.21
  -15   27   24      3.97     -0.23
  -13   27   24    -22.44     -0.31
  -11   27   24    -27.76     -0.13
   -9   27   24     -6.66     -0.25
   -7   27   24    -27.77     -0.08
   -5   27   24     -2.45     -0.22
   -3   27   24     -4.39      0.22
   -1   27   24     -2.89      0.00
    1   27   24     11.79      0.22
    3   27   24      6.97     -0.03
    5   27   24      6.32      0.25
  -16   28   24     18.92      0.14
  -14   28   24      8.01      0.26
  -12   28   24      0.28     -0.35
  -10   28   24      5.45      0.24
   -8   28   24     14.04      0.30
   -6   28   24     -3.07     -0.02
   -4   28   24      2.74     -0.11
   -2   28   24     -7.97     -0.33
    0   28   24    -12.65      0.06
    2   28   24     -7.17     -0.19
    4   28   24     17.03     -0.03
  -15   29   24     10.96     -0.09
  -13   29   24      4.11     -0.36
  -11   29   24      9.76     -0.31
   -9   29   24     15.05     -0.36
   -7   29   24     11.78     -0.29
   -5   29   24     22.58     -0.52
   -3   29   24      8.04      0.03
   -1   29   24     -5.87     -0.11
    1   29   24     -5.83      0.13
    3   29   24    -17.14     -0.10
  -14   30   24     -6.13     -0.15
  -12   30   24     -7.11     -0.34
  -10   30   24      9.61      0.11
   -8   30   24    -14.83      0.36
   -6   30   24    -22.64     -0.11
   -4   30   24      7.46     -0.02
   -2   30   24      3.28      0.03
    0   30   24      4.84      0.52
    2   30   24     14.74     -0.25
  -11   31   24     10.89      0.02
   -9   31   24     -2.28      0.03
   -7   31   24     -4.97      0.10
   -5   31   24     -3.83      0.16
   -3   31   24      0.81     -0.10
   -1   31   24     -4.82     -0.08
    1   31   24     -4.23      0.30
  -10   32   24      5.23     -0.19
   -8   32   24      0.14     -0.02
   -6   32   24     -4.12     -0.30
   -4   32   24      0.19      0.17
   -2   32   24     -3.90      0.03
    0   32   24     -6.59      0.18
   -7   33   24     -6.91      0.06
   -5   33   24     -5.57      0.19
   -3   33   24     -2.14     -0.21
  -24    0   25     -6.76      0.08
  -22    0   25      8.44      0.34
  -20    0   25     10.91     -0.12
  -18    0   25     -1.99      0.32
  -16    0   25      3.42      0.40
  -14    0   25     -2.12      0.12
  -12    0   25      7.31     -0.35
  -10    0   25    -14.51      0.01
   -8    0   25      3.23      0.50
   -6    0   25     10.37     -0.16
   -4    0   25      9.98     -0.41
   -2    0   25     -6.24      0.49
    0    0   25     -3.57      0.65
    2    0   25     -7.48      0.55
    4    0   25     12.91      0.43
    6    0   25      3.13     -0.02
    8    0   25     12.28     -0.70
   10    0   25    -11.75      0.20
   12    0   25    -23.84     -0.45
  -23    1   25    -12.14     -0.23
  -21    1   25     14.80     -0.49
  -19    1   25      0.96     -0.47
  -17    1   25     -5.13     -0.41
  -15    1   25     -1.83     -0.20
  -13    1   25     -7.57      0.22
  -11    1   25    -14.52     -0.01
   -9    1   25      4.87     -0.07
   -7    1   25     10.01      0.26
   -5    1   25      8.44     -0.03
   -3    1   25      3.39      0.14
   -1    1   25     -4.45     -0.11
    1    1   25    -13.81     -0.14
    3    1   25     -8.38      0.36
    5    1   25     -8.36      0.29
    7    1   25    -15.67      0.34
    9    1   25      4.21      0.88
   11    1   25    -15.65      0.56
  -24    2   25     -3.95     -0.37
  -22    2   25     -1.72      0.06
  -20    2   25     -3.46     -0.25
  -18    2   25    -11.03      0.32
  -16    2   25     -2.05      0.07
  -14    2   25     -7.71     -0.07
  -12    2   25     -1.56     -0.33
  -10    2   25      1.71     -0.18
   -8    2   25      3.31      0.17
   -6    2   25      0.09     -0.22
   -4    2   25     16.67      0.38
   -2    2   25      8.35      0.75
    0    2   25      3.31     -0.17
    2    2   25    -12.59      0.12
    4    2   25     -4.85     -0.01
    6    2   25     -3.43     -0.39
    8    2   25      3.70     -0.01
   10    2   25      0.39     -0.64
   12    2   25     -5.97     -0.06
  -23    3   25     -5.52     -0.27
  -21    3   25      5.73      0.33
  -19    3   25     -3.62     -0.03
  -17    3   25     -1.61      0.10
  -15    3   25     -7.67      0.28
  -13    3   25      8.37     -0.12
  -11    3   25      0.34     -0.70
   -9    3   25     -1.83     -0.30
   -7    3   25     16.10      0.05
   -5    3   25      6.37     -0.08
   -3    3   25      4.66      0.13
   -1    3   25     -5.10      0.38
    1    3   25      2.38      0.63
    3    3   25     12.57      0.38
    5    3   25     -0.64      0.61
    7    3   25     15.37      0.04
    9    3   25     19.69     -0.33
   11    3   25    -10.25     -0.60
  -24    4   25     -2.45     -0.48
  -22    4   25     -9.37     -0.38
  -20    4   25     -2.79     -0.43
  -18    4   25      6.82     -0.34
  -16    4   25     15.90     -0.55
  -14    4   25      1.58     -0.05
  -12    4   25    -14.56     -0.20
  -10    4   25      0.38     -0.15
   -8    4   25      2.17      0.22
   -6    4   25     -2.66      0.32
   -4    4   25     -1.23      0.16
   -2    4   25    -10.70     -0.14
    0    4   25     -9.35      0.11
    2    4   25      0.23      0.47
    4    4   25    -11.55      0.68
    6    4   25     -1.93     -0.17
    8    4   25      2.00      0.17
   10    4   25      1.60     -0.69
   12    4   25     -5.00      0.02
  -23    5   25    -14.10     -0.18
  -21    5   25    -15.55      0.03
  -19    5   25     -3.62     -0.98
  -17    5   25      7.66      0.19
  -15    5   25     -6.45      0.21
  -13    5   25     -4.71      0.10
  -11    5   25     -1.91     -0.32
   -9    5   25      1.11      0.10
   -7    5   25      6.11     -0.13
   -5    5   25     -8.77     -0.11
   -3    5   25      4.63      0.47
   -1    5   25     -6.24      0.13
    1    5   25      4.92      0.16
    3    5   25      9.18     -0.14
    5    5   25      2.23     -0.22
    7    5   25      9.21      0.46
    9    5   25      1.70      0.22
   11    5   25      4.73      0.04
  -22    6   25     -1.70      0.99
  -20    6   25      9.20      1.62
  -18    6   25      1.71      0.55
  -16    6   25     -8.07     -0.14
  -14    6   25     -0.53     -0.31
  -12    6   25     11.53     -0.55
  -10    6   25      9.27     -0.10
   -8    6   25      1.53     -0.05
   -6    6   25      6.28      0.31
   -4    6   25      4.40     -0.27
   -2    6   25     12.23     -0.68
    0    6   25      3.40      0.55
    2    6   25     15.57     -0.18
    4    6   25    -11.24      0.35
    6    6   25     -5.06     -0.16
    8    6   25     10.17      0.28
   10    6   25      8.71      0.12
   12    6   25      1.68      0.07
  -23    7   25     -9.20      0.09
  -21    7   25     -6.53      0.36
  -19    7   25      4.83     -0.44
  -17    7   25      7.91      0.17
  -15    7   25      6.07     -0.25
  -13    7   25     -5.13      0.13
  -11    7   25     -1.14     -0.17
   -9    7   25     13.07      0.34
   -7    7   25     17.51      0.00
   -5    7   25     -6.68     -0.05
   -3    7   25     -4.91     -0.03
   -1    7   25    -21.88     -0.20
    1    7   25    -15.77      0.03
    3    7   25    -12.63      0.07
    5    7   25     -2.50     -0.21
    7    7   25      2.79      0.69
    9    7   25     -8.41      0.16
   11    7   25      1.52      0.23
  -22    8   25     -9.69     -0.01
  -20    8   25     11.84      0.20
  -18    8   25      4.65     -0.18
  -16    8   25     -5.62      0.19
  -14    8   25    -13.73     -0.25
  -12    8   25    -11.30     -0.14
  -10    8   25    -15.77      0.24
   -8    8   25     -6.78      0.10
   -6    8   25      2.93      0.11
   -4    8   25      0.13     -0.05
   -2    8   25      7.92     -0.31
    0    8   25    -10.41      0.38
    2    8   25     -4.51     -0.15
    4    8   25     -8.18      0.21
    6    8   25     -4.42     -0.50
    8    8   25     -0.70      0.09
   10    8   25      7.98      0.36
  -23    9   25     -1.01     -0.94
  -21    9   25      0.51     -0.52
  -19    9   25      3.69      0.12
  -17    9   25      0.33      0.21
  -15    9   25      4.45     -0.54
  -13    9   25      1.45     -0.09
  -11    9   25      1.65     -0.41
   -9    9   25      3.96     -0.41
   -7    9   25     15.74     -0.38
   -5    9   25      6.66     -0.26
   -3    9   25      0.18     -0.33
   -1    9   25     -5.27      0.31
    1    9   25     -4.83      0.32
    3    9   25      6.30      0.00
    5    9   25      5.92     -0.27
    7    9   25     -3.55      0.02
    9    9   25     -7.46     -0.28
   11    9   25     -7.53      0.06
  -22   10   25      5.64     -1.33
  -20   10   25      7.07      0.50
  -18   10   25    -15.90     -0.20
  -16   10   25     -8.63     -0.25
  -14   10   25      0.68     -0.35
  -12   10   25     14.78     -0.26
  -10   10   25      9.97      0.07
   -8   10   25      8.14      0.04
   -6   10   25     -3.39     -0.01
   -4   10   25     -2.72      0.20
   -2   10   25     12.47     -0.27
    0   10   25     -6.49     -0.08
    2   10   25    -12.57     -0.01
    4   10   25    -14.69      0.14
    6   10   25     -3.03     -0.24
    8   10   25     -3.59      0.30
   10   10   25      1.58      0.24
  -23   11   25      6.47     -0.61
  -21   11   25      2.86     -0.91
  -19   11   25      0.19     -0.38
  -17   11   25     -3.27     -0.02
  -15   11   25     -7.01     -0.46
  -13   11   25     -0.37      0.27
  -11   11   25     -7.58      0.01
   -9   11   25     -7.16     -0.24
   -7   11   25     -3.88      0.15
   -5   11   25      7.99     -0.23
   -3   11   25      4.14      0.50
   -1   11   25      3.00      0.49
    1   11   25    -18.03     -0.18
    3   11   25     -7.25      0.27
    5   11   25     -1.82      0.31
    7   11   25     -4.51      0.10
    9   11   25     11.55     -0.13
   11   11   25      0.26      0.18
  -22   12   25     -0.11     -5.32
  -20   12   25      1.25     -1.33
  -18   12   25     11.39     -0.26
  -16   12   25     19.58     -0.12
  -14   12   25      2.46     -0.18
  -12   12   25    -11.25     -0.43
  -10   12   25     -7.71     -0.23
   -8   12   25      2.24     -0.30
   -6   12   25      8.39      0.13
   -4   12   25     -1.90      0.33
   -2   12   25      7.37     -0.16
    0   12   25     -2.79      0.12
    2   12   25     10.04      0.17
    4   12   25     21.38      0.38
    6   12   25     29.25      0.12
    8   12   25     10.60     -0.10
   10   12   25     -6.04     -0.17
  -21   13   25      6.52     -0.66
  -19   13   25     -6.39     -0.43
  -17   13   25     -4.53     -0.48
  -15   13   25     -6.84      0.02
  -13   13   25     16.38      0.48
  -11   13   25      1.80      0.12
   -9   13   25     14.81      0.32
   -7   13   25     -0.67      0.64
   -5   13   25     -4.62     -0.12
   -3   13   25     -0.33      0.30
   -1   13   25      8.80     -0.01
    1   13   25      7.38     -0.09
    3   13   25     13.82      0.55
    5   13   25      2.95      0.11
    7   13   25     -0.58      0.23
    9   13   25      5.58     -0.13
  -22   14   25      4.67     -1.21
  -20   14   25     -3.29     -0.01
  -18   14   25      1.60      0.19
  -16   14   25     -8.19     -0.05
  -14   14   25      6.62      0.12
  -12   14   25      0.82      0.15
  -10   14   25      8.43     -0.07
   -8   14   25    -14.49      0.11
   -6   14   25     -8.35      0.06
   -4   14   25     -6.45      0.18
   -2   14   25     19.92      0.36
    0   14   25      4.82     -0.15
    2   14   25     -9.24     -0.01
    4   14   25      6.31      0.55
    6   14   25      8.58      0.78
    8   14   25     -0.90     -0.11
   10   14   25     -0.87     -0.14
  -21   15   25     20.48     -1.04
  -19   15   25      0.56     -0.36
  -17   15   25      0.59     -0.43
  -15   15   25     -3.62     -0.05
  -13   15   25      8.85     -0.39
  -11   15   25    -16.18     -0.39
   -9   15   25     -1.23      0.05
   -7   15   25     -4.35     -0.12
   -5   15   25    -15.92      0.00
   -3   15   25     -8.11     -0.23
   -1   15   25     -9.80      0.16
    1   15   25     -7.12     -0.06
    3   15   25     -2.23     -0.07
    5   15   25     -5.47     -0.38
    7   15   25      8.50      0.09
    9   15   25      4.68     -0.24
  -20   16   25    -11.07     -0.26
  -18   16   25     -0.42      0.16
  -16   16   25     -7.18     -0.09
  -14   16   25     12.26      0.32
  -12   16   25    -10.13      0.18
  -10   16   25      8.96     -0.29
   -8   16   25      1.83      0.32
   -6   16   25      2.01      0.16
   -4   16   25     -4.39     -0.02
   -2   16   25     -2.35      0.16
    0   16   25      1.82     -0.42
    2   16   25      2.69      0.39
    4   16   25     21.15     -0.17
    6   16   25     12.02      0.14
    8   16   25      9.35     -0.32
   10   16   25      1.08      0.00
  -21   17   25      4.85      0.55
  -19   17   25    -11.29     -0.02
  -17   17   25    -14.23      0.10
  -15   17   25     -4.54      0.20
  -13   17   25      9.13      0.03
  -11   17   25      2.32     -0.31
   -9   17   25     10.83      0.17
   -7   17   25     16.93     -0.43
   -5   17   25     -5.56     -0.22
   -3   17   25     -0.37     -0.43
   -1   17   25      8.08      0.57
    1   17   25      8.99      0.19
    3   17   25     13.40      0.10
    5   17   25      6.67      0.06
    7   17   25      6.26      0.32
    9   17   25      2.12      0.05
  -20   18   25      2.55      0.14
  -18   18   25    -14.18      0.13
  -16   18   25     -8.87     -0.56
  -14   18   25      9.39     -0.24
  -12   18   25      7.02     -0.10
  -10   18   25      6.05     -0.12
   -8   18   25    -12.59     -0.04
   -6   18   25    -22.89     -0.04
   -4   18   25      4.10     -0.50
   -2   18   25     -2.42      0.05
    0   18   25     -2.37     -0.01
    2   18   25    -10.32      0.48
    4   18   25     -9.19     -0.25
    6   18   25    -13.10      0.16
    8   18   25      0.99     -0.10
  -19   19   25     -1.38     -0.11
  -17   19   25    -10.42      0.20
  -15   19   25     -6.99      0.03
  -13   19   25     -2.86      0.43
  -11   19   25      8.79     -0.40
   -9   19   25      4.45      0.17
   -7   19   25      6.72      0.00
   -5   19   25     -3.24      0.09
   -3   19   25     -9.12     -0.05
   -1   19   25      2.04      0.08
    1   19   25     16.31     -0.04
    3   19   25     20.06     -0.16
    5   19   25      6.86     -0.30
    7   19   25     14.02      0.11
  -20   20   25     -4.42      0.09
  -18   20   25     -3.55      0.25
  -16   20   25     12.80      0.03
  -14   20   25      3.50      0.02
  -12   20   25     21.70      0.00
  -10   20   25     12.25      0.07
   -8   20   25     18.09      0.00
   -6   20   25     -8.38      0.22
   -4   20   25      4.58     -0.38
   -2   20   25      7.27     -0.09
    0   20   25     14.37      0.13
    2   20   25     11.60      0.44
    4   20   25      8.91      0.08
    6   20   25      2.53      0.17
    8   20   25      2.28      0.22
  -19   21   25      6.21     -0.14
  -17   21   25     -2.12      0.03
  -15   21   25      2.64     -0.11
  -13   21   25      4.39      0.27
  -11   21   25     20.40      0.04
   -9   21   25     -1.54      0.48
   -7   21   25     -5.76      0.31
   -5   21   25     13.77     -0.46
   -3   21   25     15.18     -0.35
   -1   21   25     -0.38     -0.24
    1   21   25      5.76      0.00
    3   21   25      4.16     -0.19
    5   21   25     -8.26     -0.03
    7   21   25      0.77      0.10
  -18   22   25      2.08     -0.08
  -16   22   25     -3.63     -0.16
  -14   22   25     -8.69     -0.02
  -12   22   25     23.04      0.17
  -10   22   25     -1.11      0.19
   -8   22   25      2.18      0.18
   -6   22   25    -22.83      0.24
   -4   22   25    -11.87      0.08
   -2   22   25      8.05     -0.36
    0   22   25     12.26     -0.33
    2   22   25      0.10      0.14
    4   22   25     -4.93     -0.27
    6   22   25      1.26     -0.23
  -17   23   25     -9.96      0.00
  -15   23   25     -7.66     -0.13
  -13   23   25      9.07     -0.14
  -11   23   25     16.70      0.04
   -9   23   25     -7.45     -0.16
   -7   23   25     -3.24      0.15
   -5   23   25     -0.60     -0.27
   -3   23   25     13.71      0.00
   -1   23   25      2.57     -0.24
    1   23   25      1.33      0.23
    3   23   25    -11.37      0.05
    5   23   25    -15.99      0.02
  -16   24   25     -4.02      0.17
  -14   24   25      1.56     -0.02
  -12   24   25      0.39     -0.12
  -10   24   25    -19.06     -0.01
   -8   24   25     -6.47      0.05
   -6   24   25      1.66     -0.08
   -4   24   25     20.33      0.11
   -2   24   25     18.32     -0.19
    0   24   25      6.62     -0.46
    2   24   25      4.97     -0.19
    4   24   25      6.96     -0.41
    6   24   25      5.55     -0.20
  -17   25   25     -7.46     -0.11
  -15   25   25    -12.51     -0.55
  -13   25   25     10.46     -0.15
  -11   25   25     -5.86      0.11
   -9   25   25    -14.46     -0.11
   -7   25   25     12.59      0.11
   -5   25   25    -11.14     -0.27
   -3   25   25     -8.35      0.15
   -1   25   25     -5.02     -0.48
    1   25   25     -1.07      0.21
    3   25   25    -12.35      0.02
    5   25   25     -5.35     -0.24
  -16   26   25    -17.90      0.08
  -14   26   25     -2.29     -0.16
  -12   26   25     -1.31     -0.05
  -10   26   25      5.86      0.15
   -8   26   25     -0.33     -0.03
   -6   26   25      1.42      0.25
   -4   26   25     17.55      0.14
   -2   26   25      3.43      0.20
    0   26   25     -1.29     -0.11
    2   26   25      2.44      0.08
    4   26   25      3.11      0.31
  -15   27   25    -16.53     -0.43
  -13   27   25     13.46      0.20
  -11   27   25    -19.31     -0.18
   -9   27   25    -18.46      0.09
   -7   27   25      8.40      0.32
   -5   27   25      6.78      0.04
   -3   27   25     14.39      0.33
   -1   27   25     15.71     -0.30
    1   27   25     16.67      0.13
    3   27   25      7.66      0.10
  -14   28   25     -2.62     -0.10
  -12   28   25    -11.32      0.11
  -10   28   25     -2.92      0.01
   -8   28   25     -5.15     -0.38
   -6   28   25     -7.82      0.04
   -4   28   25    -11.00     -0.06
   -2   28   25    -20.03      0.29
    0   28   25      7.25     -0.19
    2   28   25      8.01     -0.12
  -13   29   25     23.60      0.18
  -11   29   25     16.69     -0.30
   -9   29   25     29.09      0.07
   -7   29   25      1.16      0.36
   -5   29   25      0.15      0.15
   -3   29   25     -4.46     -0.26
   -1   29   25    -11.03     -0.05
    1   29   25      0.28     -0.07
  -12   30   25      9.52      0.06
  -10   30   25      4.77      0.08
   -8   30   25      7.70     -0.20
   -6   30   25     -2.08     -0.14
   -4   30   25     -4.38     -0.27
   -2   30   25      5.56     -0.14
    0   30   25     18.29     -0.23
   -9   31   25     -1.44      0.14
   -7   31   25    -28.14      0.09
   -5   31   25     -9.31      0.02
   -3   31   25     -9.23     -0.25
  -22    0   26      1.27     -0.19
  -20    0   26      3.04      0.15
  -18    0   26     -7.55      0.23
  -16    0   26     17.77     -0.07
  -14    0   26     18.68     -0.70
  -12    0   26     11.12     -0.05
  -10    0   26      6.49      0.15
   -8    0   26    -15.59      0.04
   -6    0   26     -6.88      0.09
   -4    0   26      1.79     -0.26
   -2    0   26      5.34     -0.63
    0    0   26      2.57     -0.98
    2    0   26    -10.20     -0.04
    4    0   26      2.07      0.12
    6    0   26      8.00     -0.05
    8    0   26    -26.95     -0.49
   10    0   26    -12.43     -0.58
  -23    1   26      2.13     -0.06
  -21    1   26     -0.89     -0.42
  -19    1   26    -14.79     -0.40
  -17    1   26     -6.36      0.05
  -15    1   26     -1.62      0.35
  -13    1   26      2.15     -0.13
  -11    1   26      0.22      0.29
   -9    1   26    -14.00     -0.32
   -7    1   26      3.82     -0.35
   -5    1   26     -9.22      0.27
   -3    1   26     -7.74     -0.03
   -1    1   26      1.87      0.30
    1    1   26     -1.65     -0.81
    3    1   26      6.61     -0.11
    5    1   26      5.14      0.24
    7    1   26     -3.43      0.75
    9    1   26     -6.20     -0.21
   11    1   26     12.24     -0.32
  -22    2   26      8.66     -0.23
  -20    2   26     -2.68      0.43
  -18    2   26    -26.60      0.01
  -16    2   26    -21.04     -0.11
  -14    2   26    -17.82     -0.08
  -12    2   26      2.85      0.34
  -10    2   26    -10.58      0.00
   -8    2   26    -22.98     -0.11
   -6    2   26    -10.97      0.56
   -4    2   26     -2.11      0.05
   -2    2   26      8.50     -0.15
    0    2   26      0.10      0.19
    2    2   26     -2.57     -0.21
    4    2   26      1.05     -0.01
    6    2   26      6.33      0.23
    8    2   26     -0.78      0.04
   10    2   26     12.26      0.36
  -23    3   26      6.82     -0.06
  -21    3   26     -6.76     -0.46
  -19    3   26     -8.29     -0.20
  -17    3   26      9.36      0.59
  -15    3   26     15.65      0.40
  -13    3   26      5.58      0.62
  -11    3   26     10.59      0.26
   -9    3   26     10.07     -0.17
   -7    3   26      3.11     -0.32
   -5    3   26    -10.13      0.13
   -3    3   26     -4.15      0.29
   -1    3   26     -7.37     -0.09
    1    3   26     -5.63     -0.42
    3    3   26      0.66     -0.15
    5    3   26      9.59     -0.18
    7    3   26     -2.82      0.30
    9    3   26    -11.32     -0.40
   11    3   26      4.21     -0.52
  -22    4   26     -1.00     -0.62
  -20    4   26     -6.04     -0.22
  -18    4   26     10.19     -0.08
  -16    4   26     16.73      0.65
  -14    4   26     -0.79      0.27
  -12    4   26     16.81      0.40
  -10    4   26     -2.16      0.16
   -8    4   26     -0.16      0.11
   -6    4   26     -1.87      0.32
   -4    4   26     -4.22     -0.12
   -2    4   26      9.71      0.23
    0    4   26      8.12      0.44
    2    4   26     18.14     -0.13
    4    4   26      7.68      0.16
    6    4   26      4.65      0.16
    8    4   26      7.54      0.12
   10    4   26     18.87     -0.24
  -23    5   26     -1.36      0.48
  -21    5   26     -9.73      0.27
  -19    5   26     -3.01     -0.21
  -17    5   26     -3.65      0.22
  -15    5   26    -13.63      0.53
  -13    5   26     -7.01      1.34
  -11    5   26     -4.39      0.40
   -9    5   26     -3.45      0.15
   -7    5   26     -0.02      0.25
   -5    5   26     -8.73     -0.16
   -3    5   26     -3.72     -0.29
   -1    5   26    -10.58      0.01
    1    5   26     -4.74      0.61
    3    5   26     11.92     -0.35
    5    5   26      8.00     -0.10
    7    5   26      6.39     -0.18
    9    5   26      3.78     -0.24
   11    5   26      8.52      0.03
  -22    6   26    -10.84      0.75
  -20    6   26    -13.62      0.38
  -18    6   26      5.50     -0.03
  -16    6   26      3.02      0.46
  -14    6   26     -1.08     -0.09
  -12    6   26     18.51      0.22
  -10    6   26     23.08      0.05
   -8    6   26     16.66      0.01
   -6    6   26     -7.63     -0.20
   -4    6   26    -19.50     -0.09
   -2    6   26     -7.72      0.74
    0    6   26     -6.62      0.00
    2    6   26     -3.66     -0.64
    4    6   26    -10.21     -0.46
    6    6   26     -5.94     -0.70
    8    6   26    -21.37      0.26
   10    6   26     -1.09     -0.33
  -21    7   26    -10.71      0.82
  -19    7   26     13.63     -0.32
  -17    7   26     12.60      0.41
  -15    7   26      0.20     -0.07
  -13    7   26     24.58      0.22
  -11    7   26     14.82     -0.25
   -9    7   26     12.15      0.02
   -7    7   26     12.52      0.27
   -5    7   26      9.47     -0.82
   -3    7   26      8.33     -0.37
   -1    7   26      8.61     -0.15
    1    7   26     -6.16      0.39
    3    7   26      2.48     -0.19
    5    7   26     -5.23      0.41
    7    7   26      3.70      0.03
    9    7   26      5.55      0.18
  -22    8   26    -12.12     -0.26
  -20    8   26     -2.26     -0.02
  -18    8   26     20.66     -0.12
  -16    8   26      5.00      0.25
  -14    8   26      4.01      0.07
  -12    8   26     -8.32      0.13
  -10    8   26     -1.20      0.15
   -8    8   26      5.23      0.14
   -6    8   26     20.70      0.35
   -4    8   26     -3.02     -0.35
   -2    8   26      1.60      0.07
    0    8   26      1.86      0.43
    2    8   26      4.22      0.02
    4    8   26      0.07      0.36
    6    8   26      3.27     -0.46
    8    8   26     -8.18      0.16
   10    8   26      3.19     -0.38
  -21    9   26     -7.72      0.93
  -19    9   26     -1.59     -0.69
  -17    9   26     -6.56      0.07
  -15    9   26     -7.87     -0.39
  -13    9   26     16.01     -0.09
  -11    9   26     -4.65     -0.20
   -9    9   26      8.54      0.11
   -7    9   26     -4.46      0.06
   -5    9   26     -6.29     -0.73
   -3    9   26    -17.79      0.51
   -1    9   26     -5.74      0.07
    1    9   26    -10.90     -0.06
    3    9   26     -7.69      0.11
    5    9   26    -13.30      0.02
    7    9   26    -12.91      0.07
    9    9   26    -15.09      0.16
  -22   10   26      3.34      0.51
  -20   10   26     -1.11      0.22
  -18   10   26      5.51      0.32
  -16   10   26     -9.09      0.07
  -14   10   26     15.17     -0.26
  -12   10   26     13.43     -0.09
  -10   10   26     14.70     -0.12
   -8   10   26    -18.20     -0.55
   -6   10   26      4.30      0.10
   -4   10   26     -3.19     -0.47
   -2   10   26     14.86      0.10
    0   10   26      4.37      0.65
    2   10   26    -12.90     -0.05
    4   10   26    -12.89      0.94
    6   10   26    -15.77      0.22
    8   10   26    -12.74      0.43
   10   10   26     -9.18      0.16
  -21   11   26      6.44     -0.52
  -19   11   26     -0.87     -0.18
  -17   11   26      1.79     -0.02
  -15   11   26     -0.86     -0.11
  -13   11   26      0.66     -0.03
  -11   11   26    -20.32      0.18
   -9   11   26      6.62      0.31
   -7   11   26      8.99      0.07
   -5   11   26     18.17      0.56
   -3   11   26     -2.78      0.59
   -1   11   26      1.10      0.24
    1   11   26      3.44     -0.23
    3   11   26     -3.17     -0.04
    5   11   26    -12.49     -0.17
    7   11   26      5.07      0.42
    9   11   26      6.02      0.18
  -22   12   26     -4.73      0.27
  -20   12   26    -11.69     -0.60
  -18   12   26     -0.99     -0.04
  -16   12   26      0.10      0.19
  -14   12   26      0.33      0.08
  -12   12   26    -14.11      0.05
  -10   12   26    -14.15      0.14
   -8   12   26    -24.36      0.01
   -6   12   26    -11.08      0.39
   -4   12   26     -4.51      0.02
   -2   12   26      2.11     -0.22
    0   12   26     -5.34     -0.16
    2   12   26    -10.62     -0.14
    4   12   26      0.80      0.85
    6   12   26      5.87      0.07
    8   12   26     13.13      0.01
  -21   13   26     -2.33     -0.63
  -19   13   26    -12.09     -0.18
  -17   13   26     -4.33      0.09
  -15   13   26      0.49      0.21
  -13   13   26     -2.31     -0.05
  -11   13   26     -4.39      0.10
   -9   13   26     -0.38     -0.41
   -7   13   26    -10.87     -0.94
   -5   13   26     -1.40     -0.01
   -3   13   26    -14.74     -0.24
   -1   13   26     -0.87      0.73
    1   13   26      6.65      0.15
    3   13   26     13.79      0.14
    5   13   26      0.33      0.27
    7   13   26     -9.77      0.52
    9   13   26    -18.90      0.22
  -20   14   26      0.89      0.50
  -18   14   26    -10.03      0.00
  -16   14   26      0.43      0.02
  -14   14   26     -7.29      0.03
  -12   14   26      5.96     -0.01
  -10   14   26     -7.75      0.31
   -8   14   26     -6.84      0.05
   -6   14   26    -22.37      0.51
   -4   14   26      3.75      0.69
   -2   14   26      8.58     -0.41
    0   14   26      0.06      0.07
    2   14   26     -4.92     -0.04
    4   14   26    -15.97      0.11
    6   14   26     -1.03     -0.16
    8   14   26     12.87      0.12
  -21   15   26     -5.98      0.48
  -19   15   26      2.78     -0.37
  -17   15   26     -0.58      0.08
  -15   15   26     -5.21      0.21
  -13   15   26    -12.06      0.13
  -11   15   26     -8.96      0.24
   -9   15   26    -13.91      0.08
   -7   15   26    -16.07     -0.04
   -5   15   26      1.32      0.02
   -3   15   26     -4.17     -0.35
   -1   15   26      5.65      0.04
    1   15   26     -1.95     -0.44
    3   15   26      7.03     -0.03
    5   15   26      7.06      0.04
    7   15   26      9.08      0.14
    9   15   26     11.39      0.15
  -20   16   26     -4.72      0.37
  -18   16   26    -13.94      0.12
  -16   16   26     12.93      0.47
  -14   16   26     -2.18     -0.28
  -12   16   26      6.57     -0.21
  -10   16   26    -13.53      0.01
   -8   16   26      0.52     -0.13
   -6   16   26     -8.88     -0.04
   -4   16   26      2.38      0.48
   -2   16   26      4.39     -0.26
    0   16   26      0.83      0.42
    2   16   26     13.36     -0.27
    4   16   26     10.97     -0.28
    6   16   26     13.10     -0.20
    8   16   26     -6.18      0.19
  -19   17   26      2.65     -0.11
  -17   17   26     -0.08      0.20
  -15   17   26     -4.36      0.31
  -13   17   26     -7.84      0.47
  -11   17   26     -2.98      0.59
   -9   17   26     -5.10      0.37
   -7   17   26      1.62      0.52
   -5   17   26     15.07      0.20
   -3   17   26      6.36      0.01
   -1   17   26     -2.33      0.54
    1   17   26     -2.93      0.46
    3   17   26      1.29      0.54
    5   17   26    -11.26     -0.17
    7   17   26     -4.86     -0.28
  -20   18   26      5.82      0.38
  -18   18   26      3.78     -0.10
  -16   18   26     -3.20      0.20
  -14   18   26    -16.22     -0.10
  -12   18   26     -3.67      0.44
  -10   18   26      6.36      0.02
   -8   18   26     -0.09      0.49
   -6   18   26      2.75      0.17
   -4   18   26     -7.34      0.45
   -2   18   26     -1.20     -0.04
    0   18   26     -2.28     -0.06
    2   18   26      3.28     -0.17
    4   18   26      6.17     -0.12
    6   18   26      1.21     -0.08
  -19   19   26     -9.87      0.21
  -17   19   26      2.00      0.31
  -15   19   26      4.62      0.08
  -13   19   26      7.89     -0.05
  -11   19   26     10.62      0.12
   -9   19   26      4.19      0.13
   -7   19   26     17.76      0.47
   -5   19   26     10.29      0.41
   -3   19   26      5.14      0.19
   -1   19   26     -8.31      0.74
    1   19   26     -7.56     -0.08
    3   19   26     -6.11      0.00
    5   19   26    -16.66     -0.06
    7   19   26     -3.27     -0.16
  -18   20   26     24.66      0.35
  -16   20   26     15.63      0.31
  -14   20   26     -1.34      0.32
  -12   20   26    -17.05      0.64
  -10   20   26     21.03     -0.08
   -8   20   26      5.24      0.27
   -6   20   26     30.21      0.42
   -4   20   26     16.07      0.37
   -2   20   26      1.80      0.62
    0   20   26      7.01      0.26
    2   20   26     10.03      0.54
    4   20   26     10.27      0.28
    6   20   26    -12.50     -0.03
  -17   21   26     19.58     -0.22
  -15   21   26     -2.32      0.00
  -13   21   26     -0.67      0.07
  -11   21   26      9.21     -0.40
   -9   21   26     16.16     -0.25
   -7   21   26     34.17     -0.19
   -5   21   26    -12.04      0.09
   -3   21   26    -26.82     -0.25
   -1   21   26    -20.34      0.38
    1   21   26    -10.70      0.19
    3   21   26     -5.12      0.37
    5   21   26     -8.07      0.16
  -18   22   26     11.65      0.06
  -16   22   26      9.56      0.14
  -14   22   26     11.77      0.38
  -12   22   26      3.49      0.27
  -10   22   26     25.86      0.11
   -8   22   26     -7.81     -0.40
   -6   22   26     -1.16      0.36
   -4   22   26      5.02     -0.36
   -2   22   26      4.24      0.27
    0   22   26      7.13     -0.21
    2   22   26    -16.05      0.05
    4   22   26     -5.21      0.42
  -17   23   26      8.74      0.03
  -15   23   26     -2.40      0.11
  -13   23   26      5.62      0.41
  -11   23   26     -4.11     -0.31
   -9   23   26     -4.41      0.17
   -7   23   26     20.62     -0.25
   -5   23   26     12.10      0.25
   -3   23   26     10.90      0.13
   -1   23   26     20.35      0.33
    1   23   26     20.90      0.22
    3   23   26      3.76      0.12
    5   23   26     -6.44      0.06
  -16   24   26     10.51     -0.05
  -14   24   26     -1.11     -0.04
  -12   24   26    -12.54     -0.42
  -10   24   26    -15.64     -0.50
   -8   24   26     -5.64     -1.64
   -6   24   26    -14.59     -0.26
   -4   24   26    -22.76     -0.43
   -2   24   26    -16.03      0.27
    0   24   26      2.40      0.02
    2   24   26    -21.91      0.34
    4   24   26     -0.12      0.21
  -15   25   26      5.19      0.32
  -13   25   26      4.51      0.33
  -11   25   26     -9.56     -0.06
   -9   25   26    -11.77      0.64
   -7   25   26    -13.18      0.03
   -5   25   26     -2.85     -0.09
   -3   25   26     -0.92     -0.51
   -1   25   26    -10.45     -0.39
    1   25   26     -7.21     -0.42
    3   25   26     -8.03     -0.55
  -14   26   26      2.14     -0.05
  -12   26   26      7.68      0.12
  -10   26   26    -16.34      0.47
   -8   26   26     14.16     -0.12
   -6   26   26     11.86      0.26
   -4   26   26     15.91      0.16
   -2   26   26     15.40      0.49
    0   26   26     13.92      0.10
    2   26   26    -12.31      0.17
  -13   27   26    -16.86     -0.15
  -11   27   26    -20.80     -0.20
   -9   27   26    -18.86     -0.15
   -7   27   26    -24.70     -0.21
   -5   27   26     -5.25      0.08
   -3   27   26      0.13      0.22
   -1   27   26     -5.95      0.16
    1   27   26      9.68      0.22
  -12   28   26     -3.02      0.16
  -10   28   26    -11.83      0.29
   -8   28   26     -1.70      0.33
   -6   28   26    -20.91      0.32
   -4   28   26     -5.33      0.03
   -2   28   26     -9.56     -0.21
    0   28   26    -19.00     -0.10
  -11   29   26     11.50      0.00
   -9   29   26     11.13      0.05
   -7   29   26     13.63      0.09
   -5   29   26     11.50     -0.20
   -3   29   26      5.54      0.23
   -1   29   26     -4.73     -0.14
   -8   30   26      0.44      0.25
   -6   30   26    -12.69      0.17
   -4   30   26     10.91      0.16
  -22    0   27      2.88      0.17
  -20    0   27     26.27     -0.05
  -18    0   27      5.65      0.03
  -16    0   27      6.66      0.11
  -14    0   27     -4.96      0.24
  -12    0   27     13.77     -0.73
  -10    0   27    -11.02     -0.10
   -8    0   27    -19.18      0.22
   -6    0   27    -11.86      0.06
   -4    0   27      1.02     -0.50
   -2    0   27      2.33      0.63
    0    0   27     18.20      0.84
    2    0   27     -7.21      0.21
    4    0   27      4.19      0.06
    6    0   27      7.04     -0.51
    8    0   27     10.38     -0.84
   10    0   27      0.41     -0.45
  -21    1   27     14.21     -0.22
  -19    1   27     10.13     -0.21
  -17    1   27    -22.16     -0.45
  -15    1   27     -4.35      0.13
  -13    1   27    -17.77      0.34
  -11    1   27    -12.41     -0.12
   -9    1   27      1.13     -0.12
   -7    1   27     -1.72     -0.11
   -5    1   27      7.05      0.11
   -3    1   27    -11.60      0.25
   -1    1   27      6.57     -0.18
    1    1   27      2.00     -0.15
    3    1   27     -7.41      0.05
    5    1   27     -3.04     -0.04
    7    1   27     -4.11     -0.06
    9    1   27      7.42      0.68
  -22    2   27      3.57      0.36
  -20    2   27     10.13      0.25
  -18    2   27    -14.64      0.20
  -16    2   27     -8.56      0.12
  -14    2   27    -17.30     -0.05
  -12    2   27     -2.08     -0.31
  -10    2   27      8.42     -0.25
   -8    2   27     -0.24     -0.18
   -6    2   27     -3.71     -0.40
   -4    2   27      6.34      0.29
   -2    2   27      5.05      0.97
    0    2   27     17.91     -0.52
    2    2   27     -7.99     -0.59
    4    2   27     -4.26     -0.58
    6    2   27      1.59     -0.58
    8    2   27     -0.87      0.28
   10    2   27     -1.48     -0.46
  -21    3   27     16.82      0.87
  -19    3   27      8.62      0.45
  -17    3   27     -0.32     -0.31
  -15    3   27      8.11     -0.10
  -13    3   27      0.11     -0.14
  -11    3   27     -1.77     -0.47
   -9    3   27     -7.58     -0.39
   -7    3   27     -0.50     -0.35
   -5    3   27      0.43     -0.11
   -3    3   27     -2.69     -0.41
   -1    3   27      4.95     -0.40
    1    3   27      2.41      0.60
    3    3   27     14.02     -0.02
    5    3   27     -2.18      0.10
    7    3   27      9.89     -0.27
    9    3   27     12.10      0.17
  -22    4   27      1.46     -0.07
  -20    4   27      3.60      0.46
  -18    4   27      0.67     -0.23
  -16    4   27     18.82     -0.20
  -14    4   27      0.55     -0.04
  -12    4   27    -23.95      0.12
  -10    4   27    -11.26     -0.11
   -8    4   27    -11.67      0.03
   -6    4   27     -2.99      0.20
   -4    4   27    -11.00      0.29
   -2    4   27    -14.79     -0.72
    0    4   27     -4.15     -0.42
    2    4   27      1.90      0.45
    4    4   27     -2.09      0.35
    6    4   27     -1.14     -0.18
    8    4   27      0.70      0.27
  -21    5   27     -5.12      0.60
  -19    5   27    -11.34     -0.11
  -17    5   27      4.74      0.11
  -15    5   27      3.18      0.29
  -13    5   27    -17.46      0.30
  -11    5   27     -5.24      0.10
   -9    5   27      6.30      0.05
   -7    5   27      6.24     -0.42
   -5    5   27     -5.66     -0.13
   -3    5   27     -4.81     -0.03
   -1    5   27     -5.55     -0.86
    1    5   27      2.36      0.18
    3    5   27     12.63     -0.34
    5    5   27      2.40     -0.14
    7    5   27     10.06      0.08
    9    5   27     -7.36      0.55
  -22    6   27      3.39      1.19
  -20    6   27      4.04      2.66
  -18    6   27     -1.86      0.43
  -16    6   27      2.76     -0.26
  -14    6   27     -0.03     -0.41
  -12    6   27      3.46     -0.20
  -10    6   27      1.36     -0.22
   -8    6   27     -8.95     -0.28
   -6    6   27      8.87      0.54
   -4    6   27     -3.46     -0.23
   -2    6   27      9.43     -2.02
    0    6   27      5.40     -0.11
    2    6   27     17.45     -0.13
    4    6   27      3.89     -0.16
    6    6   27     -7.59     -0.33
    8    6   27      2.08     -0.04
  -21    7   27    -13.93      0.52
  -19    7   27     -6.75      0.25
  -17    7   27     14.56     -0.08
  -15    7   27     14.78     -0.08
  -13    7   27    -11.70      0.09
  -11    7   27    -11.86      0.09
   -9    7   27     -4.25      0.46
   -7    7   27      6.20      0.11
   -5    7   27      4.42      0.39
   -3    7   27     -6.36     -0.13
   -1    7   27    -15.89     -1.20
    1    7   27     -7.74      0.21
    3    7   27     -7.77     -0.19
    5    7   27      3.32      0.01
    7    7   27     13.27     -0.05
    9    7   27     -7.59     -0.11
  -22    8   27     -6.80      0.07
  -20    8   27      3.31      0.84
  -18    8   27      1.49     -0.19
  -16    8   27      0.85      0.48
  -14    8   27    -15.59      0.00
  -12    8   27     -2.96     -0.05
  -10    8   27     -7.78      0.03
   -8    8   27     -4.76     -0.03
   -6    8   27      4.70      0.57
   -4    8   27     -1.37      0.02
   -2    8   27      6.05     -1.19
    0    8   27      2.98     -0.22
    2    8   27      2.71     -0.35
    4    8   27     -0.58      0.05
    6    8   27      0.56     -0.56
    8    8   27      3.29     -0.14
  -21    9   27     -2.63     -0.07
  -19    9   27      4.73      0.72
  -17    9   27      6.10     -0.19
  -15    9   27     10.73     -0.32
  -13    9   27      5.14     -0.24
  -11    9   27      7.40     -0.39
   -9    9   27     -4.21     -0.56
   -7    9   27      3.73     -0.59
   -5    9   27     11.21     -0.18
   -3    9   27     -8.78     -0.71
   -1    9   27      0.42     -0.58
    1    9   27      4.43      0.74
    3    9   27      6.75     -0.21
    5    9   27      5.42     -0.01
    7    9   27     -7.80     -0.46
    9    9   27    -17.19     -0.44
  -20   10   27     10.56      0.49
  -18   10   27     -4.10     -0.47
  -16   10   27      2.68     -0.24
  -14   10   27     -4.28     -0.43
  -12   10   27     22.47     -0.28
  -10   10   27      1.14      0.03
   -8   10   27      0.06     -0.21
   -6   10   27    -12.18      0.04
   -4   10   27      4.20      0.40
   -2   10   27      8.94     -0.06
    0   10   27      7.94     -0.04
    2   10   27     -9.38     -0.24
    4   10   27    -15.96      0.06
    6   10   27     -7.62     -0.45
    8   10   27    -10.68      0.12
  -21   11   27      8.38     -0.37
  -19   11   27      8.14      0.00
  -17   11   27     -4.97     -0.22
  -15   11   27     -6.06     -0.01
  -13   11   27     -5.55      0.22
  -11   11   27     -0.66      0.15
   -9   11   27      1.48     -0.07
   -7   11   27     -0.83      0.12
   -5   11   27     15.24      0.03
   -3   11   27     -2.26      0.58
   -1   11   27     11.00      0.22
    1   11   27    -11.23     -0.07
    3   11   27     -7.29     -0.33
    5   11   27     -1.85      0.22
    7   11   27     -4.76     -0.09
  -20   12   27      9.26     -0.71
  -18   12   27      6.26      0.09
  -16   12   27     16.76      0.25
  -14   12   27     -8.79      0.05
  -12   12   27     -6.95     -0.07
  -10   12   27    -15.87      0.01
   -8   12   27      0.35     -0.40
   -6   12   27     -5.45     -0.15
   -4   12   27     -2.33      0.31
   -2   12   27      0.24      0.05
    0   12   27      9.58      0.35
    2   12   27      7.33      0.00
    4   12   27     16.50      0.01
    6   12   27     17.20     -0.17
    8   12   27      0.78     -0.03
  -19   13   27     -1.79      0.17
  -17   13   27     -6.77     -0.40
  -15   13   27     -8.63      0.27
  -13   13   27      3.88      0.49
  -11   13   27     -5.77      0.34
   -9   13   27     10.84      0.31
   -7   13   27     -4.33      0.20
   -5   13   27     -2.17     -0.31
   -3   13   27     -5.16      0.23
   -1   13   27     12.60     -0.27
    1   13   27      3.70     -0.32
    3   13   27      4.96      0.04
    5   13   27     -9.20     -0.15
    7   13   27    -13.97     -0.04
  -20   14   27     -1.74      0.57
  -18   14   27     -5.30      0.47
  -16   14   27     -9.60      0.24
  -14   14   27     -8.30      0.49
  -12   14   27     -5.37      0.36
  -10   14   27     10.71     -0.05
   -8   14   27      3.33     -0.02
   -6   14   27     -1.24     -0.15
   -4   14   27     -6.30      0.35
   -2   14   27     13.03      0.28
    0   14   27     11.28     -0.29
    2   14   27    -12.04     -0.55
    4   14   27      5.43     -0.21
    6   14   27      7.00      0.47
  -19   15   27     -1.93      0.57
  -17   15   27     -7.75     -0.07
  -15   15   27    -13.58      0.23
  -13   15   27     -2.30     -0.10
  -11   15   27    -21.40      0.09
   -9   15   27      2.05      0.29
   -7   15   27     -1.46     -0.10
   -5   15   27    -12.97     -0.06
   -3   15   27    -13.06     -0.20
   -1   15   27     -2.11     -0.19
    1   15   27     -0.59     -0.36
    3   15   27     -1.14     -0.31
    5   15   27     -4.86     -0.53
    7   15   27      5.91     -0.16
  -18   16   27      4.13      0.30
  -16   16   27     -0.62     -0.18
  -14   16   27     12.80      0.29
  -12   16   27     -7.26      0.08
  -10   16   27      8.02     -0.31
   -8   16   27      0.02      0.25
   -6   16   27      5.43      0.10
   -4   16   27     -5.00      0.09
   -2   16   27     -0.58     -0.28
    0   16   27      4.14     -0.73
    2   16   27     -5.20     -0.02
    4   16   27     10.84     -0.38
    6   16   27      0.74      0.07
  -19   17   27     -1.44      0.12
  -17   17   27     -5.35     -0.08
  -15   17   27      3.75      0.14
  -13   17   27      9.60     -0.25
  -11   17   27     -2.23     -0.28
   -9   17   27     15.54      0.02
   -7   17   27     22.79     -0.33
   -5   17   27      1.69     -0.12
   -3   17   27    -10.55     -0.32
   -1   17   27     -1.33      0.26
    1   17   27      0.10      0.02
    3   17   27      5.35      0.04
    5   17   27     10.59      0.05
  -18   18   27     -6.21      0.14
  -16   18   27     -8.60     -0.56
  -14   18   27      4.65     -0.26
  -12   18   27     -4.44     -0.01
  -10   18   27     -2.16     -0.02
   -8   18   27    -16.76      0.10
   -6   18   27    -19.56      0.18
   -4   18   27     -6.91     -0.05
   -2   18   27    -10.57     -0.04
    0   18   27     -9.05      0.04
    2   18   27    -15.23      0.36
    4   18   27     -4.48     -0.15
    6   18   27    -10.44      0.14
  -17   19   27      3.07     -0.13
  -15   19   27      8.37     -0.25
  -13   19   27     -7.94      0.02
  -11   19   27    -14.09     -0.04
   -9   19   27    -11.62      0.17
   -7   19   27      0.83      0.12
   -5   19   27      6.41      0.41
   -3   19   27    -12.49      0.05
   -1   19   27    -10.49      0.02
    1   19   27     -0.49     -0.09
    3   19   27      6.69      0.03
    5   19   27      2.47      0.15
  -16   20   27     18.53     -0.07
  -14   20   27      3.09     -0.32
  -12   20   27     -2.60      0.00
  -10   20   27     -4.13     -0.01
   -8   20   27      5.93     -0.01
   -6   20   27     -5.55      0.25
   -4   20   27     -3.10      0.15
   -2   20   27     -4.36      0.06
    0   20   27     -2.27      0.30
    2   20   27     -1.83      0.47
    4   20   27     10.67      0.07
  -17   21   27     -8.94      0.09
  -15   21   27     -5.38     -0.22
  -13   21   27    -19.70      0.04
  -11   21   27    -10.23      0.07
   -9   21   27    -17.46      0.20
   -7   21   27    -12.35     -0.01
   -5   21   27     12.12     -0.18
   -3   21   27      3.01     -0.31
   -1   21   27    -10.27     -0.09
    1   21   27     -0.97     -0.03
    3   21   27      3.19     -0.16
  -16   22   27      1.54     -0.15
  -14   22   27    -16.69     -0.38
  -12   22   27     -0.67      0.40
  -10   22   27     -7.26      0.18
   -8   22   27    -10.12      0.08
   -6   22   27    -15.18      0.05
   -4   22   27    -10.43      0.22
   -2   22   27      2.14     -0.15
    0   22   27      5.01     -0.35
    2   22   27      0.67      0.21
    4   22   27     -4.47     -0.02
  -15   23   27    -10.57     -0.19
  -13   23   27      0.37     -0.10
  -11   23   27     13.32     -0.02
   -9   23   27     -3.64      0.04
   -7   23   27      1.44     -0.15
   -5   23   27      5.71     -0.02
   -3   23   27     12.61      0.17
   -1   23   27      4.48     -0.11
    1   23   27      2.90      0.16
    3   23   27    -11.37      0.03
  -14   24   27    -10.72     -0.43
  -12   24   27      0.65     -0.10
  -10   24   27     -6.10     -0.21
   -8   24   27    -15.04     -0.20
   -6   24   27      3.89     -0.27
   -4   24   27     17.60     -0.10
   -2   24   27     19.43      0.20
    0   24   27      8.81     -0.36
    2   24   27     11.82     -0.22
  -13   25   27     13.05     -0.31
  -11   25   27      8.05     -0.11
   -9   25   27     -7.12      0.22
   -7   25   27     11.47     -0.06
   -5   25   27     -7.31     -0.29
   -3   25   27     -6.26      0.31
   -1   25   27     -8.19     -0.21
    1   25   27     -2.94      0.24
  -12   26   27     15.97      0.15
  -10   26   27     22.12      0.27
   -8   26   27      3.95     -0.08
   -6   26   27      7.30      0.28
   -4   26   27     16.34      0.02
   -2   26   27      9.96      0.45
    0   26   27     -8.67     -0.03
  -11   27   27    -11.84     -0.17
   -9   27   27    -12.00      0.18
   -7   27   27     10.16      0.25
   -5   27   27      4.80      0.03
   -3   27   27     14.94      0.43
   -1   27   27      6.85     -0.04
   -8   28   27     -4.39     -0.40
   -6   28   27    -10.33     -0.05
   -4   28   27    -15.56     -0.12
  -20    0   28      7.41     -0.27
  -18    0   28     14.05      0.20
  -16    0   28      8.73     -0.29
  -14    0   28     22.79     -0.35
  -12    0   28      8.62     -0.16
  -10    0   28     12.65      0.33
   -8    0   28     -1.76      0.37
   -6    0   28     -1.72     -0.01
   -4    0   28     13.52      0.11
   -2    0   28      7.50     -0.27
    0    0   28     17.76      0.06
    2    0   28      6.74      0.07
    4    0   28      1.59      0.60
    6    0   28     16.82     -0.06
    8    0   28     -3.79     -0.70
  -21    1   28    -12.87     -0.59
  -19    1   28     -4.94     -0.25
  -17    1   28     -9.07      0.00
  -15    1   28      1.98      0.16
  -13    1   28      4.66      0.07
  -11    1   28     14.63      0.33
   -9    1   28      5.99     -0.24
   -7    1   28      6.48     -0.35
   -5    1   28     -6.91      0.13
   -3    1   28      0.70      0.26
   -1    1   28     -3.38      1.13
    1    1   28      6.71     -0.30
    3    1   28      1.41      0.18
    5    1   28     -5.21      0.40
    7    1   28      5.59      0.52
  -20    2   28      0.30      0.12
  -18    2   28    -16.99      0.15
  -16    2   28    -31.71     -0.28
  -14    2   28    -10.54     -0.18
  -12    2   28      8.56      0.16
  -10    2   28      4.11      0.10
   -8    2   28     -8.00     -0.04
   -6    2   28     -9.01      0.34
   -4    2   28      3.47      0.30
   -2    2   28      4.87      0.12
    0    2   28     -3.70      0.42
    2    2   28     -5.92     -0.15
    4    2   28     -5.17      0.08
    6    2   28      2.02      0.11
    8    2   28     -1.70      0.18
  -21    3   28      0.08     -0.51
  -19    3   28      7.42     -0.07
  -17    3   28      8.21      0.22
  -15    3   28     24.06     -0.11
  -13    3   28      4.22      0.35
  -11    3   28      3.80      0.56
   -9    3   28     13.88      0.41
   -7    3   28     13.08     -0.34
   -5    3   28      8.60     -0.35
   -3    3   28      9.07      0.61
   -1    3   28     -3.11      0.20
    1    3   28      0.83     -0.36
    3    3   28     -0.42     -0.18
    5    3   28      1.96     -0.21
    7    3   28      0.82     -0.13
  -20    4   28      0.42     -0.32
  -18    4   28      7.49      0.18
  -16    4   28     13.94      0.48
  -14    4   28      8.91     -0.13
  -12    4   28     16.77      0.21
  -10    4   28     -0.04      0.04
   -8    4   28      5.30     -0.14
   -6    4   28      1.34     -0.18
   -4    4   28      7.65     -0.60
   -2    4   28     13.08      0.32
    0    4   28      2.35     -0.21
    2    4   28      6.70      0.07
    4    4   28     -0.46      0.22
    6    4   28     -6.85      0.26
    8    4   28     -1.57      0.43
  -21    5   28     -4.12     -0.64
  -19    5   28     -5.47      0.02
  -17    5   28    -18.70     -0.07
  -15    5   28     -7.24      0.08
  -13    5   28     -5.67      0.61
  -11    5   28     -8.51      0.14
   -9    5   28     -9.66      0.18
   -7    5   28     -2.87     -0.18
   -5    5   28      0.81     -0.46
   -3    5   28     -6.65     -0.34
   -1    5   28    -18.42     -0.76
    1    5   28    -24.15      0.76
    3    5   28      1.27      0.06
    5    5   28     -0.69      0.08
    7    5   28      0.38     -0.27
  -20    6   28     -8.90     -0.23
  -18    6   28      0.01     -0.27
  -16    6   28      2.60      0.06
  -14    6   28     -1.06     -0.64
  -12    6   28     10.07      0.13
  -10    6   28      7.51     -0.05
   -8    6   28      8.24     -0.07
   -6    6   28     -6.10     -0.30
   -4    6   28      0.59      0.35
   -2    6   28     -4.29      2.20
    0    6   28     -2.05     -0.30
    2    6   28     -2.05     -0.31
    4    6   28    -10.21     -0.51
    6    6   28    -10.86     -0.39
    8    6   28    -20.57      0.17
  -21    7   28    -12.87     -0.73
  -19    7   28      4.17     -0.28
  -17    7   28      3.83      0.00
  -15    7   28      6.02     -0.14
  -13    7   28     14.27     -0.10
  -11    7   28      7.04     -0.36
   -9    7   28      0.57      0.09
   -7    7   28      2.00      0.13
   -5    7   28     17.98     -0.54
   -3    7   28      9.22     -0.35
   -1    7   28     11.49     -0.82
    1    7   28     -3.62      0.47
    3    7   28      7.84      0.16
    5    7   28     -1.77      0.67
    7    7   28     14.36      0.01
  -20    8   28    -10.32     -0.63
  -18    8   28     10.66     -0.11
  -16    8   28     -4.25      0.33
  -14    8   28      0.73     -0.14
  -12    8   28      1.21      0.01
  -10    8   28     -5.48     -0.09
   -8    8   28    -10.84      0.18
   -6    8   28      1.71      0.41
   -4    8   28      3.28     -0.05
   -2    8   28     -9.80      0.69
    0    8   28      4.22     -0.16
    2    8   28      9.19      0.31
    4    8   28      8.73      0.30
    6    8   28     10.78      0.05
    8    8   28      3.84     -0.09
  -19    9   28     -4.75     -0.55
  -17    9   28     -9.63     -0.03
  -15    9   28     -8.13     -0.23
  -13    9   28     10.15     -0.19
  -11    9   28      1.78     -0.19
   -9    9   28      4.98      0.36
   -7    9   28    -15.78      0.03
   -5    9   28      0.33     -0.39
   -3    9   28     -9.09      1.02
   -1    9   28     -0.02      0.40
    1    9   28     10.04     -0.05
    3    9   28      1.47      0.11
    5    9   28    -12.07      0.28
    7    9   28     -3.53     -0.27
  -20   10   28     -1.74     -0.23
  -18   10   28     11.77      0.14
  -16   10   28     -9.30      0.06
  -14   10   28     10.82     -0.16
  -12   10   28     14.08     -0.23
  -10   10   28     15.65     -0.20
   -8   10   28    -12.61     -0.55
   -6   10   28     -1.42     -0.07
   -4   10   28      8.04     -0.47
   -2   10   28      9.27      0.30
    0   10   28     17.30      0.52
    2   10   28      2.24     -0.01
    4   10   28      1.65      0.46
    6   10   28     -1.42      0.24
  -19   11   28      1.32     -0.04
  -17   11   28     -3.17      0.21
  -15   11   28     -3.13     -0.19
  -13   11   28      7.00     -0.32
  -11   11   28     -2.61      0.11
   -9   11   28     12.70      0.57
   -7   11   28      6.45     -0.06
   -5   11   28     21.60      0.21
   -3   11   28      4.48      0.60
   -1   11   28     -4.25      0.22
    1   11   28     14.01     -0.41
    3   11   28      2.28     -0.28
    5   11   28     -1.66     -0.10
    7   11   28     14.34     -0.08
  -20   12   28     -6.35     -0.28
  -18   12   28     -2.19      0.17
  -16   12   28     -5.36      0.04
  -14   12   28      2.90      0.11
  -12   12   28     -5.71     -0.31
  -10   12   28     -4.88      0.38
   -8   12   28     -4.95      0.15
   -6   12   28    -10.27      0.02
   -4   12   28      7.38     -0.39
   -2   12   28      0.68     -0.43
    0   12   28      2.85     -0.24
    2   12   28     -8.23     -0.51
    4   12   28     -4.92      0.30
    6   12   28     -1.89     -0.23
  -19   13   28     -5.91     -0.05
  -17   13   28     -9.49      0.11
  -15   13   28      2.71     -0.11
  -13   13   28     -2.52     -0.42
  -11   13   28     -1.23     -0.20
   -9   13   28      7.28     -0.51
   -7   13   28      2.00     -1.29
   -5   13   28      4.03     -0.64
   -3   13   28    -12.12     -0.26
   -1   13   28     -8.89      0.56
    1   13   28      5.49      0.25
    3   13   28      5.58     -0.06
    5   13   28     -0.55      0.08
  -18   14   28    -12.73      0.22
  -16   14   28     -6.46     -0.23
  -14   14   28     -4.01      0.05
  -12   14   28     19.99     -0.38
  -10   14   28      3.99      0.26
   -8   14   28     15.95     -0.08
   -6   14   28    -19.42     -0.01
   -4   14   28      7.23      0.39
   -2   14   28     -5.67     -0.51
    0   14   28     -4.94      0.01
    2   14   28     -9.19     -0.29
    4   14   28    -15.02     -0.06
    6   14   28     -1.70     -0.37
  -19   15   28      4.20     -0.10
  -17   15   28     -6.37     -0.08
  -15   15   28      0.04      0.10
  -13   15   28     -5.71      0.03
  -11   15   28      2.78      0.30
   -9   15   28      0.55      0.28
   -7   15   28      0.22     -0.08
   -5   15   28      7.92     -0.38
   -3   15   28     -3.59     -0.50
   -1   15   28     -1.65     -0.43
    1   15   28     -7.35     -0.54
    3   15   28     -2.81     -0.13
    5   15   28     -3.71     -0.09
  -18   16   28    -13.73      0.13
  -16   16   28      6.36      0.13
  -14   16   28     -0.23     -0.27
  -12   16   28     18.63     -0.47
  -10   16   28     -9.44     -0.29
   -8   16   28      6.35     -0.30
   -6   16   28    -13.62     -0.56
   -4   16   28      6.34      0.24
   -2   16   28     -3.90     -0.31
    0   16   28      1.92      0.40
    2   16   28      6.27     -0.16
    4   16   28      4.82     -0.25
  -17   17   28      1.10     -0.06
  -15   17   28      2.95      0.24
  -13   17   28     10.02      0.00
  -11   17   28     10.58      0.05
   -9   17   28      0.05     -0.02
   -7   17   28     -1.99      0.19
   -5   17   28     10.09     -0.15
   -3   17   28     -1.81     -0.31
   -1   17   28    -15.15      0.06
    1   17   28    -12.66      0.14
    3   17   28     -2.00      0.53
    5   17   28     -7.11     -0.16
  -16   18   28      1.57      0.14
  -14   18   28     -4.92     -0.06
  -12   18   28     11.24      0.22
  -10   18   28     11.75     -0.25
   -8   18   28     -1.99      0.21
   -6   18   28     -0.92     -0.24
   -4   18   28      1.51      0.21
   -2   18   28     -7.38     -0.29
    0   18   28    -11.35     -0.35
    2   18   28     -7.87     -0.31
    4   18   28      3.14     -0.38
  -17   19   28     -0.53     -0.05
  -15   19   28      4.68      0.01
  -13   19   28     11.32     -0.38
  -11   19   28     -6.26     -0.20
   -9   19   28     -9.58     -0.08
   -7   19   28     -0.57      0.02
   -5   19   28     10.24     -0.05
   -3   19   28      9.08     -0.25
   -1   19   28     -9.53      0.34
    1   19   28    -11.58     -0.25
    3   19   28    -10.85      0.13
  -16   20   28     16.60      0.15
  -14   20   28      6.33     -0.17
  -12   20   28    -14.75     -0.02
  -10   20   28      6.91     -0.49
   -8   20   28    -19.46     -0.17
   -6   20   28      8.02      0.03
   -4   20   28      8.60      0.10
   -2   20   28     -6.93      0.33
    0   20   28     -7.24      0.07
    2   20   28      2.60      0.32
  -15   21   28     -2.34      0.18
  -13   21   28     -1.23     -0.20
  -11   21   28     -4.06     -0.53
   -9   21   28     13.12     -0.16
   -7   21   28     16.09     -0.32
   -5   21   28    -10.13      0.17
   -3   21   28    -25.44     -0.28
   -1   21   28    -29.14      0.10
    1   21   28    -13.98     -0.18
  -14   22   28     -1.13      0.31
  -12   22   28     -9.75      0.23
  -10   22   28     14.58      0.13
   -8   22   28    -15.48     -0.32
   -6   22   28     -9.63      0.11
   -4   22   28     -2.46     -0.41
   -2   22   28      2.90      0.02
    0   22   28      8.49     -0.26
    2   22   28     -3.20      0.08
  -13   23   28     -0.09      0.14
  -11   23   28     -2.84     -0.22
   -9   23   28      0.35      0.39
   -7   23   28      3.40     -0.23
   -5   23   28      3.69      0.39
   -3   23   28      1.66     -0.06
   -1   23   28      8.75      0.36
    1   23   28     27.07     -0.09
  -12   24   28      2.45     -0.28
  -10   24   28      9.31     -0.30
   -8   24   28      6.12     -0.89
   -6   24   28    -14.98     -0.25
   -4   24   28    -26.06     -0.34
   -2   24   28    -16.13      0.05
    0   24   28      4.74     -0.13
  -11   25   28     11.13     -0.26
   -9   25   28      5.88      0.54
   -7   25   28     -4.83     -0.17
   -5   25   28     -3.25      0.02
   -3   25   28     -1.22     -0.95
   -8   26   28     18.30      0.23
   -6   26   28      7.34      0.14
   -4   26   28     10.65     -0.10
  -20    0   29     19.44     -0.42
  -18    0   29     29.49     -0.11
  -16    0   29      9.04      0.05
  -14    0   29    -10.14      0.49
  -12    0   29      2.68     -0.40
  -10    0   29     -1.11     -0.16
   -8    0   29     -2.63      0.22
   -6    0   29     -6.79      0.18
   -4    0   29      7.87     -0.70
   -2    0   29     -0.82      1.08
    0    0   29     13.15      1.51
    2    0   29     -9.03      0.19
    4    0   29     -0.06      0.22
    6    0   29     -1.83      0.11
  -19    1   29     13.92     -0.06
  -17    1   29    -11.85      0.05
  -15    1   29     -0.60      0.38
  -13    1   29    -16.31      0.52
  -11    1   29     -7.66     -0.23
   -9    1   29     12.74      0.14
   -7    1   29     17.80     -0.06
   -5    1   29     14.11      0.07
   -3    1   29     -9.63      0.06
   -1    1   29     -0.75      0.50
    1    1   29      4.66      0.34
    3    1   29      2.82     -0.03
    5    1   29     -4.88      0.00
    7    1   29      1.79     -0.21
  -20    2   29      5.63      0.10
  -18    2   29      3.81      0.13
  -16    2   29     -5.47      0.17
  -14    2   29     -5.69     -0.07
  -12    2   29      0.24     -0.11
  -10    2   29     17.96     -0.24
   -8    2   29     16.19      0.19
   -6    2   29      3.34     -0.32
   -4    2   29      8.74     -0.04
   -2    2   29     -2.82      1.69
    0    2   29     11.12      0.12
    2    2   29     -9.79     -0.80
    4    2   29     -1.15     -0.46
    6    2   29     -4.87     -0.07
  -19    3   29     16.47     -0.13
  -17    3   29      4.91     -0.72
  -15    3   29      9.18     -0.41
  -13    3   29     -6.43     -0.26
  -11    3   29     -5.00     -0.10
   -9    3   29     -6.65      0.15
   -7    3   29      7.77     -0.09
   -5    3   29      2.66     -0.03
   -3    3   29      2.61     -0.74
   -1    3   29      0.19     -0.12
    1    3   29    -11.90      0.78
    3    3   29      2.23      0.56
    5    3   29    -10.97      0.36
    7    3   29      1.45     -0.03
  -20    4   29      2.19     -0.02
  -18    4   29      3.13     -0.39
  -16    4   29      3.74     -0.11
  -14    4   29      6.70     -0.36
  -12    4   29    -27.03     -0.19
  -10    4   29    -18.98     -0.28
   -8    4   29    -11.45      0.35
   -6    4   29      1.93     -0.03
   -4    4   29     -2.65      0.12
   -2    4   29     -8.88     -0.45
    0    4   29     -8.81     -0.63
    2    4   29    -10.58      0.45
    4    4   29      2.46      0.49
    6    4   29    -10.85      0.19
  -19    5   29    -12.21     -0.39
  -17    5   29      2.66     -0.23
  -15    5   29     11.95     -0.02
  -13    5   29    -12.21     -0.15
  -11    5   29     -4.82      0.00
   -9    5   29      1.80      0.07
   -7    5   29      2.43     -0.34
   -5    5   29    -12.88     -0.15
   -3    5   29     -5.38     -0.05
   -1    5   29    -15.32     -0.68
    1    5   29    -12.82     -0.08
    3    5   29     -1.70      0.27
    5    5   29     -5.77      0.28
  -20    6   29      5.99      1.11
  -18    6   29     -1.27     -0.43
  -16    6   29     -7.87     -0.59
  -14    6   29     -1.09     -0.41
  -12    6   29     -8.60     -0.02
  -10    6   29     -9.46     -0.24
   -8    6   29    -18.43     -0.30
   -6    6   29     -0.42      0.47
   -4    6   29     -5.39      0.23
   -2    6   29      8.32     -1.58
    0    6   29    -10.67     -0.27
    2    6   29     -2.85      0.39
    4    6   29      5.21     -0.03
    6    6   29    -14.60      0.12
  -19    7   29    -12.56     -0.22
  -17    7   29      9.07     -0.34
  -15    7   29      4.48     -0.09
  -13    7   29    -26.59     -0.02
  -11    7   29    -25.64      0.03
   -9    7   29    -20.33      0.43
   -7    7   29     -6.97      0.14
   -5    7   29      0.99      0.48
   -3    7   29      8.61      0.29
   -1    7   29    -15.87     -1.00
    1    7   29     -8.94      0.04
    3    7   29     -4.81      0.05
    5    7   29      7.21      0.41
  -18    8   29     -2.12     -0.28
  -16    8   29     -2.54      0.49
  -14    8   29    -19.14      0.40
  -12    8   29    -10.57      0.18
  -10    8   29     -5.20     -0.06
   -8    8   29     -7.92     -0.03
   -6    8   29    -16.35      0.77
   -4    8   29    -10.37      0.17
   -2    8   29     -0.67     -0.91
    0    8   29     -4.64     -0.54
    2    8   29      9.09     -0.48
    4    8   29      8.96     -0.11
    6    8   29      3.62     -0.14
  -19    9   29     -0.36      0.43
  -17    9   29      7.54     -0.31
  -15    9   29      4.24      0.04
  -13    9   29     -5.84      0.23
  -11    9   29      7.89     -0.15
   -9    9   29     -6.58     -0.31
   -7    9   29     -3.91     -0.33
   -5    9   29     -2.19      0.23
   -3    9   29     -3.55     -0.35
   -1    9   29     -8.79     -0.34
    1    9   29      0.60      1.13
    3    9   29     11.87     -0.10
    5    9   29     12.37      0.25
  -18   10   29      6.91     -0.41
  -16   10   29      4.30     -0.18
  -14   10   29    -18.79     -0.05
  -12   10   29      7.58     -0.13
  -10   10   29     -2.24     -0.08
   -8   10   29      6.09     -0.01
   -6   10   29    -19.32      0.29
   -4   10   29     17.93      0.46
   -2   10   29     17.18      0.96
    0   10   29     10.69      0.63
    2   10   29      6.85     -0.21
    4   10   29      1.54     -0.04
  -19   11   29      6.19      0.13
  -17   11   29     -0.61     -0.23
  -15   11   29     -2.03      0.17
  -13   11   29    -13.47      0.30
  -11   11   29      2.82      0.04
   -9   11   29      6.46      0.45
   -7   11   29     11.34      0.66
   -5   11   29      6.47      0.39
   -3   11   29      5.61      0.43
   -1   11   29      9.18      0.44
    1   11   29     -2.50      0.24
    3   11   29      5.18     -0.55
    5   11   29      7.38      0.02
  -18   12   29     12.57      0.28
  -16   12   29     19.47      0.13
  -14   12   29     -2.28      0.13
  -12   12   29      4.08      0.05
  -10   12   29     -9.19      0.10
   -8   12   29     17.32      0.25
   -6   12   29     -4.71      0.07
   -4   12   29      7.79      0.12
   -2   12   29      2.65      0.60
    0   12   29      8.75      0.90
    2   12   29      4.94      0.17
    4   12   29     15.38     -0.02
  -17   13   29      3.55     -0.37
  -15   13   29      0.46     -0.01
  -13   13   29     -1.33      0.17
  -11   13   29     -2.36     -0.19
   -9   13   29     13.45      0.40
   -7   13   29     21.01      0.42
   -5   13   29      3.48     -0.28
   -3   13   29     13.28      0.19
   -1   13   29     14.00      0.28
    1   13   29      4.10     -0.02
    3   13   29      1.65      0.20
    5   13   29    -10.50     -0.29
  -18   14   29      3.47      0.27
  -16   14   29     -1.55     -0.10
  -14   14   29     -2.21      0.42
  -12   14   29     -2.91      0.27
  -10   14   29      9.41     -0.05
   -8   14   29     22.43      0.47
   -6   14   29      7.14     -0.01
   -4   14   29     -3.87      0.40
   -2   14   29      7.26      0.63
    0   14   29      9.76      0.17
    2   14   29    -13.64     -0.41
    4   14   29      2.28     -0.32
  -17   15   29      0.12      0.15
  -15   15   29     -5.23      0.01
  -13   15   29      2.18      0.22
  -11   15   29     -8.38      0.23
   -9   15   29      7.39      0.43
   -7   15   29     16.56      0.21
   -5   15   29    -11.82     -0.27
   -3   15   29     -3.91     -0.11
   -1   15   29     -3.18      0.16
    1   15   29      2.03     -0.18
    3   15   29     -6.91      0.29
  -16   16   29      3.32     -0.40
  -14   16   29     10.40      0.32
  -12   16   29     -1.89     -0.08
  -10   16   29      9.99     -0.48
   -8   16   29      8.89      0.20
   -6   16   29      6.36     -0.05
   -4   16   29     -0.93      0.04
   -2   16   29      6.62     -0.22
    0   16   29      6.68     -0.25
    2   16   29     -7.67      0.21
  -15   17   29      5.15      0.04
  -13   17   29      7.25      0.04
  -11   17   29     -1.86     -0.14
   -9   17   29      9.10     -0.06
   -7   17   29     16.67      0.12
   -5   17   29     -6.05     -0.07
   -3   17   29     -5.83     -0.10
   -1   17   29     -2.04      0.22
    1   17   29      3.26     -0.09
    3   17   29     -0.49      0.33
  -16   18   29    -11.00     -0.35
  -14   18   29      1.82      0.21
  -12   18   29      2.38      0.21
  -10   18   29     -3.20     -0.17
   -8   18   29    -18.58     -0.01
   -6   18   29    -27.61      0.00
   -4   18   29     -3.55     -0.05
   -2   18   29      6.66     -0.17
    0   18   29      4.27      0.25
    2   18   29     -7.29      0.21
  -15   19   29     11.00     -0.15
  -13   19   29     -4.99      0.01
  -11   19   29    -18.45     -0.06
   -9   19   29    -19.89     -0.30
   -7   19   29     -8.90     -0.13
   -5   19   29      9.27      0.09
   -3   19   29     11.14     -0.18
   -1   19   29      4.43     -0.12
    1   19   29      2.05     -0.31
  -14   20   29      4.71     -0.23
  -12   20   29     -4.95      0.12
  -10   20   29    -17.39     -0.14
   -8   20   29     -8.90      0.22
   -6   20   29    -19.29      0.09
   -4   20   29      1.23      0.18
   -2   20   29     10.72     -0.26
    0   20   29      5.78      0.04
  -13   21   29    -13.29     -0.07
  -11   21   29    -16.37      0.00
   -9   21   29    -19.83      0.06
   -7   21   29    -16.25     -0.09
   -5   21   29      7.95     -0.06
   -3   21   29     13.45     -0.41
   -1   21   29      4.68     -0.08
  -12   22   29     -4.30      0.55
  -10   22   29     -6.55      0.01
   -8   22   29     -7.09      0.27
   -6   22   29    -11.93     -0.26
   -4   22   29     -0.39      0.22
   -2   22   29      8.55     -0.13
  -11   23   29      0.65      0.16
   -9   23   29     -1.68      0.43
   -7   23   29      1.63     -0.06
   -5   23   29     -2.21      0.14
   -3   23   29      5.88      0.09
   -8   24   29     -8.61      0.36
   -6   24   29      0.02     -0.17
  -18    0   30     21.51      0.33
  -16    0   30      2.81      0.16
  -14    0   30     22.35      0.25
  -12    0   30     -5.80      0.35
  -10    0   30      7.43      0.15
   -8    0   30      7.93      0.49
   -6    0   30      9.75      0.06
   -4    0   30      4.98     -0.26
   -2    0   30      0.95     -1.56
    0    0   30      5.58      0.60
    2    0   30      6.78     -0.03
    4    0   30      9.21      0.47
  -19    1   30     -9.87      0.23
  -17    1   30      8.60      0.20
  -15    1   30      8.80      0.00
  -13    1   30     10.82      0.29
  -11    1   30     15.39      0.44
   -9    1   30      9.50     -0.37
   -7    1   30     12.19     -0.02
   -5    1   30    -17.50     -0.07
   -3    1   30     -4.64     -1.08
   -1    1   30    -17.01      0.32
    1    1   30      6.10      0.03
    3    1   30     -1.38     -0.47
    5    1   30     -6.86      0.02
  -18    2   30     -3.24      0.28
  -16    2   30    -24.03      0.19
  -14    2   30      5.84      0.12
  -12    2   30     12.22      0.42
  -10    2   30      8.00      0.16
   -8    2   30     -7.86      0.31
   -6    2   30     -9.77      0.50
   -4    2   30    -12.29     -0.07
   -2    2   30     -0.34     -1.02
    0    2   30     -9.77      0.25
    2    2   30    -10.52     -0.53
    4    2   30      0.77     -0.42
  -19    3   30     -0.30      0.17
  -17    3   30      5.68      0.32
  -15    3   30     14.06      0.23
  -13    3   30      8.98      0.52
  -11    3   30      0.28      0.69
   -9    3   30     10.68      0.58
   -7    3   30     21.15      0.29
   -5    3   30      7.92     -0.25
   -3    3   30      8.94      0.31
   -1    3   30      0.78      0.56
    1    3   30      6.11      0.02
    3    3   30      1.76     -0.41
    5    3   30      9.71     -0.06
  -18    4   30      3.66      0.32
  -16    4   30      3.97      0.56
  -14    4   30     16.19     -0.26
  -12    4   30     23.46      0.04
  -10    4   30      9.63     -0.31
   -8    4   30      4.70     -0.16
   -6    4   30      4.85     -0.19
   -4    4   30      0.52     -1.01
   -2    4   30     17.62      0.04
    0    4   30     12.15     -0.86
    2    4   30      5.07     -0.52
    4    4   30      6.02     -0.21
  -19    5   30    -11.24      0.24
  -17    5   30    -19.96     -0.07
  -15    5   30     -5.52      0.18
  -13    5   30     13.32     -0.04
  -11    5   30      1.19     -0.26
   -9    5   30    -16.89      0.02
   -7    5   30    -11.37     -0.09
   -5    5   30    -12.22     -0.49
   -3    5   30    -13.19     -0.69
   -1    5   30     -6.33     -1.22
    1    5   30    -24.71      0.19
    3    5   30     -4.85     -0.12
    5    5   30      3.14     -0.06
  -18    6   30     -5.96     -0.28
  -16    6   30     -6.79      0.14
  -14    6   30      0.77     -0.45
  -12    6   30      8.92      0.25
  -10    6   30      7.36     -0.42
   -8    6   30      0.47     -0.27
   -6    6   30     -8.37     -0.31
   -4    6   30     -3.22      0.95
   -2    6   30      1.91      4.07
    0    6   30      7.70      0.26
    2    6   30     -1.31     -0.26
    4    6   30     -2.42     -0.53
  -17    7   30     -2.41     -0.13
  -15    7   30      0.26      0.02
  -13    7   30      5.93     -0.32
  -11    7   30      6.48     -0.20
   -9    7   30      1.02     -0.01
   -7    7   30      6.07     -0.02
   -5    7   30     11.23     -0.25
   -3    7   30      4.73     -0.49
   -1    7   30     18.39     -1.10
    1    7   30     -0.38     -0.08
    3    7   30      7.70     -0.11
  -18    8   30      2.45      0.13
  -16    8   30     -9.24      0.31
  -14    8   30     -1.66     -0.20
  -12    8   30     -2.05      0.17
  -10    8   30     -4.56     -0.25
   -8    8   30    -20.28      0.02
   -6    8   30    -15.98     -0.04
   -4    8   30    -13.52     -0.35
   -2    8   30    -12.60      0.67
    0    8   30     -0.36     -0.79
    2    8   30      1.78     -0.13
    4    8   30      8.29     -0.23
  -17    9   30     -7.89      0.18
  -15    9   30     -7.34      0.20
  -13    9   30     -3.27      0.18
  -11    9   30     -1.40      0.21
   -9    9   30      2.57      0.24
   -7    9   30    -12.45      0.00
   -5    9   30    -13.42      0.05
   -3    9   30    -12.14      1.02
   -1    9   30     -3.21      0.80
    1    9   30     11.64      0.13
    3    9   30      1.59     -0.07
  -18   10   30     10.62      0.22
  -16   10   30     -6.89      0.18
  -14   10   30      4.12      0.09
  -12   10   30     -3.06      0.21
  -10   10   30     12.95     -0.06
   -8   10   30     -2.60     -0.39
   -6   10   30      5.21      0.00
   -4   10   30     -2.01     -0.47
   -2   10   30      5.00     -0.25
    0   10   30     11.35      0.44
    2   10   30      3.08     -0.14
    4   10   30      8.01     -0.21
  -17   11   30     -0.08      0.56
  -15   11   30     -0.13     -0.27
  -13   11   30      5.51     -0.23
  -11   11   30     -0.28      0.08
   -9   11   30      1.12      0.33
   -7   11   30      6.30     -0.06
   -5   11   30      3.42     -0.10
   -3   11   30      1.90     -0.34
   -1   11   30     -8.70     -0.30
    1   11   30     12.96     -0.22
    3   11   30     -1.66     -0.38
  -16   12   30      3.73      0.08
  -14   12   30     19.31      0.27
  -12   12   30     -2.81     -0.14
  -10   12   30     -6.47      0.35
   -8   12   30     -2.40      0.34
   -6   12   30     -1.34      0.26
   -4   12   30     -4.61     -0.53
   -2   12   30     -0.73     -1.04
    0   12   30      2.48      0.26
    2   12   30     -6.11     -0.27
  -17   13   30     -1.34      0.38
  -15   13   30     12.64     -0.35
  -13   13   30      4.94     -0.26
  -11   13   30      0.41     -0.23
   -9   13   30     -4.09     -0.45
   -7   13   30     19.93     -0.61
   -5   13   30      3.39     -0.22
   -3   13   30    -14.01     -0.13
   -1   13   30    -15.01      0.38
    1   13   30      3.37      0.81
    3   13   30     -1.36      0.01
  -16   14   30     -2.81     -0.21
  -14   14   30      8.01      0.00
  -12   14   30     21.11     -0.34
  -10   14   30     -2.48      0.02
   -8   14   30      9.08     -0.10
   -6   14   30     -9.31      0.15
   -4   14   30     -5.25      0.34
   -2   14   30    -12.31     -0.53
    0   14   30     -7.71      0.62
    2   14   30     -8.83     -0.07
  -15   15   30     12.43      0.04
  -13   15   30     -0.71      0.34
  -11   15   30      2.91      0.47
   -9   15   30     -9.54      0.24
   -7   15   30     17.46      0.20
   -5   15   30      8.98     -0.22
   -3   15   30     -4.61     -0.23
   -1   15   30     -4.92     -0.36
    1   15   30     -6.62      0.15
  -14   16   30     -7.40     -0.11
  -12   16   30     11.28      0.01
  -10   16   30    -11.11     -0.18
   -8   16   30      5.48     -0.23
   -6   16   30     -0.52     -0.31
   -4   16   30      3.22      0.44
   -2   16   30     -6.31     -0.04
    0   16   30      3.26      0.82
  -13   17   30     -0.92      0.00
  -11   17   30      8.46      0.07
   -9   17   30     -5.58     -0.29
   -7   17   30      3.44      0.27
   -5   17   30      1.97      0.01
   -3   17   30     -1.97     -0.18
   -1   17   30    -11.18     -0.08
  -14   18   30     -8.64      0.21
  -12   18   30     12.82      0.61
  -10   18   30     17.19     -0.10
   -8   18   30      3.81      0.00
   -6   18   30      8.31     -0.28
   -4   18   30     12.30      0.39
   -2   18   30     12.25     -0.23
    0   18   30      3.84     -0.10
  -13   19   30      3.08     -0.19
  -11   19   30     -6.01      0.06
   -9   19   30     -6.24     -0.30
   -7   19   30      6.33     -0.03
   -5   19   30     15.11     -0.11
   -3   19   30     24.11     -0.21
   -1   19   30      9.30      0.15
  -10   20   30     10.65     -0.36
   -8   20   30    -15.90     -0.11
   -6   20   30      2.37     -0.03
   -4   20   30      5.62      0.23
   -9   21   30     25.26      0.04
   -7   21   30     24.37      0.16
   -5   21   30      5.74      0.51
  -16    0   31      5.03      0.05
  -14    0   31    -15.60      0.44
  -12    0   31    -13.97      0.23
  -10    0   31    -11.75      0.01
   -8    0   31    -20.81     -0.26
   -6    0   31     -7.81     -0.02
   -4    0   31      5.54     -0.87
   -2    0   31     -5.54     -0.49
    0    0   31      7.18     -0.22
    2    0   31    -15.97      0.26
  -17    1   31     -3.73      0.19
  -15    1   31     -0.55      0.22
  -13    1   31     -4.73      0.25
  -11    1   31    -18.98      0.02
   -9    1   31     -3.77     -0.02
   -7    1   31      4.31     -0.38
   -5    1   31     15.31     -0.13
   -3    1   31     -7.18     -1.11
   -1    1   31     -1.86     -1.31
    1    1   31      7.85      0.25
    3    1   31     -1.31     -0.11
  -16    2   31      2.33      0.02
  -14    2   31      5.86     -0.07
  -12    2   31     -1.43      0.15
  -10    2   31      6.19     -0.16
   -8    2   31     -8.15     -0.12
   -6    2   31     -1.88     -0.31
   -4    2   31      6.31     -0.23
   -2    2   31     -3.07      0.79
    0    2   31     14.60     -0.33
    2    2   31     -8.61     -0.48
  -17    3   31      0.10     -0.48
  -15    3   31     -7.38      0.06
  -13    3   31     -7.94     -0.09
  -11    3   31     -9.39      0.46
   -9    3   31    -14.61      0.20
   -7    3   31     -8.96      0.18
   -5    3   31      1.72      0.57
   -3    3   31     -1.11     -0.85
   -1    3   31      4.94     -0.84
    1    3   31     -0.40      0.78
    3    3   31     -6.28      0.86
  -16    4   31    -12.66      0.00
  -14    4   31      4.98     -0.08
  -12    4   31    -16.36     -0.27
  -10    4   31    -12.35     -0.33
   -8    4   31    -21.95      0.32
   -6    4   31      3.03     -0.08
   -4    4   31      2.85      0.07
   -2    4   31      4.79     -0.53
    0    4   31     11.42     -1.02
    2    4   31     -3.09      0.35
  -17    5   31      6.71     -0.19
  -15    5   31     13.55      0.10
  -13    5   31      4.31     -0.39
  -11    5   31      3.76      0.05
   -9    5   31      1.71     -0.16
   -7    5   31    -12.35     -0.13
   -5    5   31     -8.49      0.07
   -3    5   31     -3.41      0.12
   -1    5   31     -0.37     -0.47
    1    5   31      7.86     -0.22
    3    5   31     -6.26      0.59
  -16    6   31    -16.00     -0.38
  -14    6   31     -1.39      0.06
  -12    6   31     -1.26      0.07
  -10    6   31      4.41     -0.16
   -8    6   31    -19.73     -0.38
   -6    6   31      1.84      0.34
   -4    6   31     -3.02      0.86
   -2    6   31     15.01     -0.61
    0    6   31      0.15     -0.23
    2    6   31     -3.76      0.76
  -17    7   31      3.12     -0.32
  -15    7   31     -4.65     -0.11
  -13    7   31    -18.37     -0.30
  -11    7   31    -14.78     -0.05
   -9    7   31     -2.33      0.18
   -7    7   31     -3.23     -0.10
   -5    7   31     12.87      0.09
   -3    7   31     19.19      0.33
   -1    7   31     -0.82     -0.82
    1    7   31     -0.07     -0.12
  -16    8   31      3.09      0.14
  -14    8   31     -8.61      0.19
  -12    8   31    -10.97      0.09
  -10    8   31      6.48      0.03
   -8    8   31     -3.32     -0.37
   -6    8   31     -9.63      0.07
   -4    8   31    -10.89     -0.32
   -2    8   31     -2.35     -1.10
    0    8   31     -7.42     -1.09
    2    8   31      6.32     -0.20
  -15    9   31      1.14      0.05
  -13    9   31     -3.20      0.15
  -11    9   31      8.36     -0.03
   -9    9   31      2.20     -0.24
   -7    9   31     -3.43     -0.51
   -5    9   31     -4.49      0.21
   -3    9   31     -8.82     -0.51
   -1    9   31    -17.52     -1.15
    1    9   31    -15.80      0.99
  -16   10   31      1.57     -0.20
  -14   10   31    -18.03     -0.05
  -12   10   31     -2.89     -0.09
  -10   10   31      2.82     -0.10
   -8   10   31      4.86     -0.35
   -6   10   31    -12.85     -0.16
   -4   10   31     12.26     -0.11
   -2   10   31      9.90      0.45
    0   10   31     -3.24      0.06
  -15   11   31     -0.25      0.10
  -13   11   31    -11.44      0.14
  -11   11   31     -3.67     -0.03
   -9   11   31     -6.75      0.32
   -7   11   31      2.57      0.23
   -5   11   31     -3.35      0.07
   -3   11   31     -6.87     -0.48
   -1   11   31     -3.96     -0.98
    1   11   31     -8.42      0.34
  -14   12   31      8.31      0.14
  -12   12   31     11.79      0.09
  -10   12   31     -6.88      0.04
   -8   12   31     -5.10      0.14
   -6   12   31     -8.26      0.05
   -4   12   31     -3.63     -0.13
   -2   12   31    -10.49     -0.05
    0   12   31     -6.04      0.03
  -13   13   31      3.16     -0.05
  -11   13   31      2.46     -0.46
   -9   13   31     -3.72      0.08
   -7   13   31     11.57      0.42
   -5   13   31      1.77     -0.11
   -3   13   31      7.58      0.06
   -1   13   31      4.49     -0.41
  -14   14   31      4.38      0.10
  -12   14   31     -2.82      0.07
  -10   14   31     -2.07     -0.08
   -8   14   31     -6.60      0.32
   -6   14   31      8.71     -0.03
   -4   14   31     -6.73      0.44
   -2   14   31     -2.29      0.55
  -13   15   31      4.72      0.05
  -11   15   31     -2.41      0.11
   -9   15   31     -7.84     -0.02
   -7   15   31      7.06      0.18
   -5   15   31     -4.14     -0.34
   -3   15   31     -4.63      0.20
   -1   15   31    -12.36     -0.11
  -12   16   31     -9.67     -0.33
  -10   16   31      8.58     -0.38
   -8   16   31     -2.25     -0.03
   -6   16   31      9.71     -0.08
   -4   16   31     -5.36      0.24
   -2   16   31      0.51     -0.04
  -11   17   31     -9.36      0.24
   -9   17   31     -1.60     -0.02
   -7   17   31      4.19      0.39
   -5   17   31     -5.30      0.00
   -3   17   31     -9.14      0.36
  -10   18   31      3.20     -0.04
   -8   18   31    -18.03     -0.27
   -6   18   31    -24.16     -0.11
  -16    0   32     -7.57      0.13
  -14    0   32      7.65      0.09
  -12    0   32    -11.41      0.26
  -10    0   32     -5.86      0.15
   -8    0   32      9.98      0.22
   -6    0   32      9.70     -0.03
   -4    0   32      2.45      0.35
   -2    0   32     -2.03     -1.07
    0    0   32    -14.53      0.22
  -15    1   32      0.11     -0.64
  -13    1   32      8.69     -0.30
  -11    1   32      1.16      0.40
   -9    1   32      9.56     -0.33
   -7    1   32      5.88     -0.26
   -5    1   32    -13.07      0.11
   -3    1   32     -1.08     -0.62
   -1    1   32    -23.55      0.01
    1    1   32      8.61     -0.06
  -16    2   32    -13.47      0.14
  -14    2   32     -1.02     -0.05
  -12    2   32      6.79      0.19
  -10    2   32     -0.41      0.21
   -8    2   32     -7.14      0.17
   -6    2   32     -9.44      0.26
   -4    2   32     -8.13      0.49
   -2    2   32      3.31     -0.36
    0    2   32    -13.51     -0.01
  -15    3   32     -9.53      0.28
  -13    3   32      2.37      0.26
  -11    3   32     -8.82      0.31
   -9    3   32     17.44      0.24
   -7    3   32     17.48      0.35
   -5    3   32      8.76      0.36
   -3    3   32      5.78      1.30
   -1    3   32     -6.92      1.92
    1    3   32     10.18      0.24
  -14    4   32     -1.89     -0.22
  -12    4   32     17.55     -0.02
  -10    4   32     17.92     -0.21
   -8    4   32     16.49     -0.16
   -6    4   32     10.98     -0.07
   -4    4   32      7.34     -0.36
   -2    4   32     13.79      1.54
    0    4   32     14.51     -0.50
  -15    5   32    -10.83      0.21
  -13    5   32     14.56     -0.20
  -11    5   32      3.35     -0.36
   -9    5   32      3.24      0.22
   -7    5   32     -4.55      0.31
   -5    5   32     -0.08      0.01
   -3    5   32     -0.76      0.21
   -1    5   32      7.13      0.46
  -14    6   32     -4.22     -0.02
  -12    6   32      8.74      0.19
  -10    6   32     17.63     -0.39
   -8    6   32     18.33     -0.13
   -6    6   32      1.82      0.06
   -4    6   32      9.48      1.71
   -2    6   32      6.59      6.71
    0    6   32     14.12      1.73
  -15    7   32     -1.55      0.08
  -13    7   32      5.76     -0.29
  -11    7   32      9.25      0.10
   -9    7   32     28.88      0.49
   -7    7   32     25.89      0.33
   -5    7   32     27.64      0.26
   -3    7   32     11.97      0.39
   -1    7   32     20.93      0.51
  -14    8   32      0.71     -0.19
  -12    8   32     -1.50      0.08
  -10    8   32      3.54      0.13
   -8    8   32      3.07      0.26
   -6    8   32     -2.54     -0.35
   -4    8   32      2.38     -0.57
   -2    8   32      2.00      1.73
  -13    9   32     -2.26      0.12
  -11    9   32     -7.58      0.22
   -9    9   32     14.87      0.28
   -7    9   32     -0.40     -0.05
   -5    9   32     -4.16      0.22
   -3    9   32     -7.37      1.26
   -1    9   32     -3.95      1.43
  -12   10   32     -8.21      0.29
  -10   10   32     11.56      0.29
   -8   10   32      9.96     -0.14
   -6   10   32     12.51     -0.17
   -4   10   32     -1.17     -0.40
   -2   10   32      0.92     -0.10
  -13   11   32      2.63     -0.11
  -11   11   32     -4.65     -0.05
   -9   11   32     -0.15     -0.02
   -7   11   32     -3.27     -0.54
   -5   11   32     -1.34     -0.61
   -3   11   32      2.42     -0.78
  -12   12   32     -3.97     -0.07
  -10   12   32     -8.87      0.11
   -8   12   32    -13.78      0.13
   -6   12   32     -5.78      0.07
   -4   12   32    -10.05     -0.59
  -11   13   32      3.49     -0.12
   -9   13   32     -8.81     -0.21
   -7   13   32      1.69     -0.12
   -5   13   32      1.13      0.13
  -10   14   32     -4.14     -0.17
   -8   14   32    -13.74     -0.23
   -6   14   32    -11.99      0.19
   -7   15   32      2.47      0.19
  -12    0   33     -3.98      0.02
  -10    0   33    -15.07      0.04
   -8    0   33    -20.48      0.03
   -6    0   33    -10.76      0.24
   -4    0   33      0.08      0.03
  -13    1   33      3.69     -0.39
  -11    1   33    -16.71     -0.26
   -9    1   33     -9.53     -0.03
   -7    1   33     -0.90     -0.44
   -5    1   33      9.18      0.00
   -3    1   33     -4.14     -1.27
  -12    2   33      1.21     -0.32
  -10    2   33     -8.77     -0.29
   -8    2   33    -11.98     -0.35
   -6    2   33     -6.48     -0.40
   -4    2   33      3.43     -0.12
  -13    3   33    -10.92     -0.29
  -11    3   33     -8.32      0.19
   -9    3   33    -10.56      0.12
   -7    3   33    -12.53      0.41
   -5    3   33     -5.67      1.06
   -3    3   33    -11.39     -1.02
  -12    4   33     -7.46     -0.15
  -10    4   33    -11.60     -0.17
   -8    4   33     -7.77      0.42
   -6    4   33     -1.88     -0.02
   -4    4   33     -3.40     -0.53
  -11    5   33     -2.58      0.21
   -9    5   33      4.42     -0.05
   -7    5   33     -8.92      0.25
   -5    5   33     -4.95      0.10
   -3    5   33     -8.80     -0.88
  -12    6   33      4.68      0.14
  -10    6   33      2.41     -0.04
   -8    6   33     -3.29      0.13
   -6    6   33     -0.30      0.54
   -4    6   33     -4.27      0.34
  -11    7   33     -6.40      0.00
   -9    7   33     12.32      0.35
   -7    7   33      8.34      0.32
   -5    7   33     11.68     -0.06
  -10    8   33     -1.75      0.15
   -8    8   33     11.22     -0.05
   -6    8   33      4.36     -0.19
   -9    9   33      4.97      0.00
   -7    9   33      5.33     -0.13
    0    0    0      0.00      0.00
# SQUEEZE RESULTS (APPEND TO CIF)
# Note: Data are Listed for all Voids in the P1 Unit Cell
# i.e. Centre of Gravity, Solvent Accessible Volume,
# Recovered number of Electrons in the Void and
# Details about the Squeezed Material
loop_
  _platon_squeeze_void_nr
  _platon_squeeze_void_average_x
  _platon_squeeze_void_average_y
  _platon_squeeze_void_average_z
  _platon_squeeze_void_volume
  _platon_squeeze_void_count_electrons
  _platon_squeeze_void_content
   1  0.159  0.000 -0.092       259        86 ' '
   2  0.841  0.000  0.092       259        86 ' '
   3  0.500  0.215  0.000       173        50 ' '
   4  0.000  0.285  0.000       173        50 ' '
   5  0.341  0.500  0.092       259        86 ' '
   6  0.659  0.500 -0.092       259        86 ' '
   7  0.000  0.715  0.000       173        50 ' '
   8  0.500  0.785  0.000       173        50 ' '
   9  0.425  0.097  0.038        16         4 ' '
  10  0.925  0.403  0.038        15         4 ' '
  11  0.925  0.597  0.038        16         4 ' '
  12  0.425  0.903  0.038        15         4 ' '
  13 -0.064  0.000  0.500      1141       283 ' '
  14  0.436  0.500  0.500      1141       283 ' '
  15  0.575  0.097  0.962        16         4 ' '
  16  0.075  0.403  0.962        15         4 ' '
  17  0.075  0.597  0.962        16         4 ' '
  18  0.575  0.903  0.962        15         4 ' '
_platon_squeeze_details
TITL wss0412_0mC 1 2/m 1    R = 0.06
CELL   23.3110   39.0400   27.6630     90.00    106.03     90.00
SPGR C2/m
# Note: Atoms in Void as Cxxx and Qxxx all others
C101 0.500 0.219 0.500 !       9.84 eA-3
Q102 0.602 0.256 0.746 !       5.64 eA-3
Q103 0.252 0.224 0.254 !       5.52 eA-3
C104 0.094 0.250 0.985 !       5.38 eA-3
Q105 0.641 0.131 0.211 !       5.37 eA-3
Q106 0.626 0.226 0.224 !       5.27 eA-3
Q107 0.657 0.297 0.858 !       5.25 eA-3
Q108 0.194 0.258 0.132 !       5.11 eA-3
Q109 0.592 0.353 0.753 !       5.03 eA-3
Q110 0.721 0.396 0.794 !       4.97 eA-3
Q111 0.790 0.354 0.881 !       4.94 eA-3
Q112 0.789 0.455 0.242 !       4.83 eA-3
Q113 0.811 0.462 0.066 !       4.58 eA-3
Q114 0.202 0.095 0.137 !       4.50 eA-3
Q115 0.860 0.499 0.164 !       4.45 eA-3
Q116 0.768 0.453 0.065 !       4.29 eA-3
Q117 0.398 0.076 0.493 !       4.00 eA-3
C118 0.844 0.361 0.525 !       3.86 eA-3
C119 0.672 0.499 0.734 !       3.70 eA-3
C120 0.263 0.047 0.926 !       3.68 eA-3
Q121 0.143 0.500 0.578 !       3.68 eA-3
Q122 0.634 0.455 0.220 !       3.63 eA-3
Q123 0.087 0.502 0.133 !       3.54 eA-3
Q124 0.981 0.289 0.903 !       3.53 eA-3
Q125 0.603 0.453 0.041 !       3.45 eA-3
Q126 0.843 0.154 0.688 !       3.34 eA-3
C127 0.032 0.335 0.440 !       3.23 eA-3
C128 0.398 0.189 0.522 !       3.10 eA-3
C129 1.000 0.391 0.495 !       3.00 eA-3
Q130 0.718 0.500 0.328 !       2.96 eA-3
C131 0.389 0.401 0.099 !       2.95 eA-3
C132 0.125 0.095 0.886 !       2.89 eA-3
Q133 0.216 0.499 0.203 !       2.79 eA-3
C134 0.500 0.407 0.892 !       2.77 eA-3
Q135 0.858 0.454 0.876 !       2.76 eA-3
C136 0.475 0.187 0.909 !       2.72 eA-3
C137 0.890 0.062 0.474 !       2.71 eA-3
Q138 0.360 0.497 0.195 !       2.65 eA-3
Q139 0.541 0.297 0.263 !       2.62 eA-3
Q140 0.625 0.498 0.992 !       2.60 eA-3
Q141 0.868 0.466 0.138 !       2.52 eA-3
Q142 0.413 0.078 0.977 !       2.48 eA-3
Q143 0.280 0.500 0.867 !       2.44 eA-3
Q144 0.541 0.061 0.912 !       2.43 eA-3
C145 0.459 0.560 0.196 !       2.43 eA-3
C146 0.959 0.060 0.196 !       2.43 eA-3
Q147 0.046 0.162 0.118 !       2.42 eA-3
C148 0.236 0.062 0.925 !       2.41 eA-3
Q149 0.828 0.297 0.162 !       2.36 eA-3
C150 0.274 0.080 0.464 !       2.33 eA-3
Q151 0.338 0.445 0.762 !       2.33 eA-3
C152 0.544 0.430 0.818 !       2.32 eA-3
Q153 0.617 0.015 0.164 !       2.32 eA-3
Q154 0.048 0.226 0.124 !       2.31 eA-3
Q155 0.954 0.101 0.384 !       2.31 eA-3
Q156 0.868 0.499 0.352 !       2.28 eA-3
Q157 0.920 0.493 0.035 !       2.27 eA-3
C158 0.220 0.411 0.548 !       2.25 eA-3
Q159 0.584 0.502 0.008 !       2.25 eA-3
Q160 0.906 0.166 0.675 !       2.23 eA-3
Q161 0.359 0.095 0.165 !       2.18 eA-3
Q162 0.429 0.502 0.906 !       2.17 eA-3
C163 0.396 0.429 0.108 !       2.14 eA-3
Q164 0.437 0.190 0.889 !       2.13 eA-3
C165 0.578 0.171 0.457 !       2.12 eA-3
C166 0.993 0.092 0.841 !       2.10 eA-3
Q167 0.343 0.368 0.335 !       2.10 eA-3
C168 0.908 0.491 0.000 !       2.07 eA-3
Q169 0.367 0.431 0.900 !       2.05 eA-3
Q170 0.546 0.455 0.085 !       2.04 eA-3
Q171 0.055 0.061 0.841 !       2.04 eA-3
Q172 0.420 0.036 0.708 !       2.04 eA-3
C173 1.000 0.297-0.001 !       2.03 eA-3
Q174 0.806 0.498 0.437 !       2.02 eA-3
Q175 0.540 0.498 0.109 !       2.02 eA-3
Q176 0.485 0.149 0.921 !       2.02 eA-3
Q177 0.914 0.401 0.240 !       2.00 eA-3
Q178 0.743 0.370 0.663 !       2.00 eA-3
Q179 0.212 0.268 0.407 !       2.00 eA-3
Q180 0.368 0.451 0.102 !       1.99 eA-3
Q181 0.707 0.498 0.023 !       1.99 eA-3
Q182 0.054 0.036 0.053 !       1.99 eA-3
Q183 0.328 0.498 0.086 !       1.98 eA-3
Q184 0.342 0.352 0.725 !       1.98 eA-3
C185 0.515 0.423 0.827 !       1.97 eA-3
C186 0.892 0.075 0.139 !       1.96 eA-3
Q187 0.916 0.040 0.810 !       1.96 eA-3
Q188 0.213 0.039 0.024 !       1.96 eA-3
Q189 0.727 0.242 0.703 !       1.93 eA-3
Q190 0.406 0.501 0.063 !       1.93 eA-3
Q191 0.133 0.048 0.078 !       1.92 eA-3
Q192 0.210 0.502 0.602 !       1.90 eA-3
Q193 0.063 0.499 0.289 !       1.89 eA-3
Q194 0.508 0.172 0.796 !       1.88 eA-3
Q195 0.875 0.337 0.114 !       1.87 eA-3
Q196 0.367 0.319 0.349 !       1.86 eA-3
Q197 0.885 0.498 0.562 !       1.86 eA-3
C198 0.302 0.097 0.456 !       1.86 eA-3
Q199 0.179 0.502 0.953 !       1.85 eA-3
;
_shelx_fab_checksum              18773
_olex2_submission_special_instructions 'No special instructions were received'
loop_
_space_group_symop_operation_xyz
'x, y, z'
'-x, y, -z'
'x+1/2, y+1/2, z'
'-x+1/2, y+1/2, -z'
'-x, -y, -z'
'x, -y, z'
'-x+1/2, -y+1/2, -z'
'x+1/2, -y+1/2, z'
loop_
_atom_site_label
_atom_site_type_symbol
_atom_site_fract_x
_atom_site_fract_y
_atom_site_fract_z
_atom_site_U_iso_or_equiv
_atom_site_adp_type
_atom_site_occupancy
_atom_site_site_symmetry_order
_atom_site_calc_flag
_atom_site_refinement_flags_posn
_atom_site_refinement_flags_adp
_atom_site_refinement_flags_occupancy
_atom_site_disorder_assembly
_atom_site_disorder_group
W1 W 0.95581(11) 1.000000 0.89247(9) 0.0580(7) Uani 0.756(7) 2 d S T P A 1
W2 W 0.89401(8) 0.95638(5) 0.96213(7) 0.0589(7) Uani 0.626(6) 1 d . U . A 1
W3 W 0.79596(3) 0.90945(2) 0.85511(2) 0.03970(15) Uani 1 1 d . . . . .
W4 W 0.86322(3) 0.95319(2) 0.77809(3) 0.04420(16) Uani 1 1 d . . . . .
W5 W 0.71020(3) 0.95246(2) 0.75219(2) 0.03224(13) Uani 1 1 d . . . . .
W6 W 0.63790(4) 1.000000 0.83517(3) 0.03461(19) Uani 1 2 d S T P . .
W7 W 0.72562(3) 0.95614(2) 0.93761(2) 0.04389(16) Uani 1 1 d . . . . .
P1 P 0.7973(2) 1.000000 0.85844(18) 0.0262(10) Uani 1 2 d S T P . .
Na1 Na 1.0965(6) 1.000000 0.8636(4) 0.080(4) Uani 1 2 d DS T P . .
O1 O 0.8565(6) 1.000000 0.8996(5) 0.043(3) Uani 1 2 d S T P A .
O2 O 0.9577(5) 0.9655(3) 0.9363(5) 0.075(4) Uani 1 1 d . . . . .
O3 O 0.9033(9) 1.000000 0.9991(7) 0.088(7) Uani 1 2 d S T P . .
O4 O 0.8563(5) 0.9248(2) 0.9075(4) 0.047(3) Uani 1 1 d . . . . .
O5 O 0.7932(4) 0.9682(2) 0.8261(3) 0.032(2) Uani 1 1 d . . . . .
O6 O 0.9196(5) 0.9664(3) 0.8351(5) 0.063(3) Uani 1 1 d . . . . .
O7 O 0.8553(6) 1.000000 0.7573(6) 0.049(4) Uani 1 2 d S T P . .
O8 O 0.8471(5) 0.9117(2) 0.8112(4) 0.044(2) Uani 1 1 d . . . . .
O9 O 0.7831(4) 0.9469(2) 0.7341(4) 0.037(2) Uani 1 1 d . . . . .
O10 O 0.7310(4) 0.9131(2) 0.7932(4) 0.037(2) Uani 1 1 d . . . . .
O11 O 0.7127(6) 1.000000 0.7358(5) 0.035(3) Uani 1 2 d S T P . .
O12 O 0.6623(4) 0.9671(2) 0.7940(4) 0.035(2) Uani 1 1 d . . . . .
O13 O 0.6512(5) 0.9657(2) 0.8878(4) 0.049(3) Uani 1 1 d . . . . .
O14 O 0.8065(6) 0.9579(3) 0.9684(4) 0.062(3) Uani 1 1 d . . . . .
O15 O 0.7396(5) 0.9249(2) 0.8889(4) 0.042(2) Uani 1 1 d . . . . .
O16 O 0.7456(6) 1.000000 0.8827(5) 0.034(3) Uani 1 2 d S T P A .
O17 O 0.7148(8) 1.000000 0.9653(6) 0.055(4) Uani 1 2 d S T P A .
O18 O 0.7004(6) 0.9295(3) 0.9763(4) 0.062(3) Uani 1 1 d . . . . .
O19 O 0.5617(7) 1.000000 0.8115(6) 0.053(4) Uani 1 2 d S T P . .
O20 O 0.6593(5) 0.9367(2) 0.7008(4) 0.046(3) Uani 1 1 d . . . . .
O21 O 0.9041(5) 0.9361(3) 0.7418(5) 0.062(3) Uani 1 1 d . . . . .
O22 O 0.7944(5) 0.8661(2) 0.8641(4) 0.048(3) Uani 1 1 d . . . . .
O23 O 0.9238(7) 0.9279(4) 1.0127(6) 0.094(5) Uani 1 1 d . . . . .
O24 O 1.0318(9) 1.000000 0.8885(9) 0.099(7) Uani 1 2 d S T P A .
O25 O 1.126(3) 1.0411(11) 0.898(3) 0.109(16) Uani 0.23(2) 1 d D U . B -1
H25D H 1.166663 1.039068 0.902769 0.163 Uiso 0.23(2) 1 d R . . B -1
H25E H 1.128213 1.039408 0.930889 0.163 Uiso 0.23(2) 1 d R . . B -1
W8 W 0.86031(2) 0.63194(2) 0.79118(2) 0.02800(12) Uani 1 1 d . . . . .
W9 W 0.87226(2) 0.72464(2) 0.77300(2) 0.02718(12) Uani 1 1 d . . . . .
W10 W 0.74915(2) 0.77610(2) 0.74636(2) 0.02649(12) Uani 1 1 d . . . . .
W11 W 0.80535(2) 0.74312(2) 0.86596(2) 0.03030(13) Uani 1 1 d . . . . .
W12 W 0.79463(2) 0.64951(2) 0.88664(2) 0.03154(13) Uani 1 1 d . . . . .
W13 W 0.72392(2) 0.59783(2) 0.78652(2) 0.02984(13) Uani 1 1 d . . . . .
W14 W 0.58998(2) 0.65228(2) 0.75758(2) 0.02837(12) Uani 1 1 d . . . . .
W15 W 0.65826(2) 0.70364(2) 0.85898(2) 0.02939(12) Uani 1 1 d . . . . .
W16 W 0.60219(2) 0.73883(2) 0.74031(2) 0.02526(12) Uani 1 1 d . . . . .
Ni1 Ni 0.63500(7) 0.68035(4) 0.65175(6) 0.0254(3) Uani 1 1 d . . . . .
Ni2 Ni 0.62804(7) 0.60115(4) 0.66122(7) 0.0316(4) Uani 1 1 d . . . . .
Ni3 Ni 0.74682(7) 0.63261(4) 0.67398(6) 0.0246(3) Uani 1 1 d . . . . .
Ni4 Ni 0.86591(7) 0.66896(4) 0.67111(6) 0.0260(3) Uani 1 1 d . . . . .
Ni5 Ni 0.75927(7) 0.71177(4) 0.65817(6) 0.0248(3) Uani 1 1 d . . . . .
Ni6 Ni 0.64107(7) 0.75399(4) 0.62721(6) 0.0269(4) Uani 1 1 d . . . . .
S1 S 0.82250(16) 0.84618(9) 0.50274(14) 0.0391(8) Uani 1 1 d . . . . .
S2 S 0.8687(3) 0.500000 0.5445(2) 0.0451(13) Uani 1 2 d S T P . .
P2 P 0.73223(13) 0.68635(7) 0.76324(11) 0.0183(6) Uani 1 1 d . . . . .
O26 O 0.8832(4) 0.6790(2) 0.7991(3) 0.031(2) Uani 1 1 d . . . . .
O27 O 0.7722(3) 0.71838(19) 0.7802(3) 0.0236(18) Uani 1 1 d . . . . .
O28 O 0.8320(4) 0.7685(2) 0.7530(3) 0.029(2) Uani 1 1 d . . . . .
O29 O 0.7777(4) 0.7793(2) 0.8216(4) 0.035(2) Uani 1 1 d . . . . .
O30 O 0.8733(4) 0.7393(2) 0.8415(4) 0.033(2) Uani 1 1 d . . . . .
O31 O 0.8187(4) 0.6956(2) 0.8855(3) 0.031(2) Uani 1 1 d . . . . .
O32 O 0.8594(4) 0.6353(2) 0.8635(4) 0.035(2) Uani 1 1 d . . . . .
O33 O 0.7527(4) 0.6092(2) 0.8589(3) 0.033(2) Uani 1 1 d . . . . .
O34 O 0.7633(4) 0.65518(19) 0.7932(3) 0.0253(19) Uani 1 1 d . . . . .
O35 O 0.6728(4) 0.69218(19) 0.7753(3) 0.0237(18) Uani 1 1 d . . . . .
O36 O 0.6510(4) 0.6200(2) 0.7879(3) 0.031(2) Uani 1 1 d . . . . .
O37 O 0.6026(4) 0.6703(2) 0.8278(4) 0.035(2) Uani 1 1 d . . . . .
O38 O 0.7167(4) 0.6689(2) 0.8804(3) 0.034(2) Uani 1 1 d . . . . .
O39 O 0.7253(4) 0.7341(2) 0.8667(3) 0.033(2) Uani 1 1 d . . . . .
O40 O 0.6129(4) 0.7372(2) 0.8134(3) 0.030(2) Uani 1 1 d . . . . .
O41 O 0.6723(4) 0.7668(2) 0.7563(3) 0.029(2) Uani 1 1 d . . . . .
O42 O 0.5562(4) 0.6973(2) 0.7399(3) 0.0261(19) Uani 1 1 d . . . . .
O43 O 0.6174(3) 0.7254(2) 0.6824(3) 0.0261(19) Uani 1 1 d . . . . .
O44 O 0.6031(4) 0.6473(2) 0.6963(3) 0.029(2) Uani 1 1 d . . . . .
O45 O 0.7077(4) 0.6059(2) 0.7201(3) 0.0281(19) Uani 1 1 d . . . . .
O46 O 0.8325(4) 0.6360(2) 0.7240(3) 0.0274(19) Uani 1 1 d . . . . .
O47 O 0.8392(4) 0.70834(19) 0.7105(3) 0.0276(19) Uani 1 1 d . . . . .
O48 O 0.7285(4) 0.7560(2) 0.6855(3) 0.028(2) Uani 1 1 d . . . . .
O49 O 0.6769(4) 0.7103(2) 0.6126(3) 0.0282(19) Uani 1 1 d . . . . .
O50 O 0.7800(4) 0.6660(2) 0.6347(3) 0.0258(19) Uani 1 1 d . . . . .
O51 O 0.7219(3) 0.68007(19) 0.7069(3) 0.0240(18) Uani 1 1 d . . . . .
O52 O 0.7971(4) 0.7386(2) 0.6128(3) 0.029(2) Uani 1 1 d . . . . .
O53 O 0.8789(4) 0.7060(2) 0.6219(3) 0.030(2) Uani 1 1 d . . . . .
O54 O 0.8583(5) 0.8655(3) 0.4776(5) 0.064(3) Uani 1 1 d . . . . .
O55 O 0.8009(8) 0.8641(4) 0.5380(5) 0.098(6) Uani 1 1 d . . . . .
O56 O 0.7744(6) 0.8276(4) 0.4659(5) 0.078(4) Uani 1 1 d . . . . .
O57 O 1.0566(4) 0.7592(2) 0.5816(3) 0.031(2) Uani 1 1 d . . . . .
O58 O 1.0546(4) 0.8158(2) 0.5989(4) 0.033(2) Uani 1 1 d . . . . .
O59 O 0.6636(4) 0.63749(19) 0.6283(3) 0.0248(18) Uani 1 1 d . . . . .
O60 O 0.7616(4) 0.5885(2) 0.6419(4) 0.033(2) Uani 1 1 d . . . . .
O61 O 0.6722(4) 0.5637(2) 0.6331(4) 0.036(2) Uani 1 1 d . . . . .
O62 O 0.8367(9) 0.500000 0.4941(7) 0.091(7) Uani 1 2 d S T P . .
O63 O 0.9041(6) 0.5304(4) 0.5596(6) 0.083(4) Uani 1 1 d . . . . .
O64 O 0.5483(4) 0.7691(2) 0.7219(4) 0.037(2) Uani 1 1 d . . . . .
O65 O 0.6366(4) 0.7128(2) 0.9113(4) 0.039(2) Uani 1 1 d . . . . .
O66 O 0.5266(4) 0.6287(2) 0.7526(4) 0.034(2) Uani 1 1 d . . . . .
O67 O 0.8085(4) 0.5936(2) 0.7922(4) 0.032(2) Uani 1 1 d . . . . .
O68 O 0.7053(4) 0.5556(2) 0.7909(4) 0.039(2) Uani 1 1 d . . . . .
O69 O 0.8191(4) 0.6394(3) 0.9497(4) 0.042(2) Uani 1 1 d . . . . .
O70 O 0.8335(4) 0.7642(3) 0.9218(4) 0.040(2) Uani 1 1 d . . . . .
O71 O 0.7425(4) 0.8187(2) 0.7322(4) 0.037(2) Uani 1 1 d . . . . .
O72 O 0.9437(4) 0.7347(2) 0.7733(4) 0.033(2) Uani 1 1 d . . . . .
O73 O 0.9277(4) 0.6121(2) 0.7997(4) 0.037(2) Uani 1 1 d . . . . .
N1 N 0.6753(6) 0.7810(3) 0.5774(5) 0.042(3) Uani 1 1 d . . . . .
H1A H 0.711470 0.772360 0.577051 0.050 Uiso 1 1 calc R . . . .
H1B H 0.650227 0.779588 0.545733 0.050 Uiso 1 1 calc R . . . .
N2 N 0.6140(5) 0.8024(3) 0.6433(5) 0.034(3) Uani 1 1 d . . . . .
H2A H 0.573843 0.802471 0.638845 0.041 Uiso 1 1 calc R . . . .
H2B H 0.632163 0.807753 0.675941 0.041 Uiso 1 1 calc R . . . .
N3 N 0.9551(5) 0.6702(3) 0.7098(4) 0.033(3) Uani 1 1 d . . . . .
H3A H 0.969011 0.692063 0.713002 0.040 Uiso 1 1 calc R . . . .
H3B H 0.961119 0.660944 0.741031 0.040 Uiso 1 1 calc R . . . .
N4 N 0.8883(5) 0.6260(3) 0.6373(4) 0.035(3) Uani 1 1 d . . . . .
H4A H 0.862904 0.608585 0.638689 0.042 Uiso 1 1 calc R . . . .
H4B H 0.885492 0.630469 0.604462 0.042 Uiso 1 1 calc R . . . .
N5 N 0.5849(6) 0.5661(3) 0.6950(6) 0.056(3) Uani 1 1 d . U . . .
H5A H 0.607297 0.546811 0.703010 0.067 Uiso 1 1 calc R . . . .
H5B H 0.579638 0.575158 0.723811 0.067 Uiso 1 1 calc R . . . .
N6 N 0.5484(6) 0.6023(4) 0.6068(6) 0.064(4) Uani 1 1 d . U . . .
H6A H 0.538589 0.624235 0.596901 0.077 Uiso 1 1 calc R . . . .
H6B H 0.550996 0.589960 0.579580 0.077 Uiso 1 1 calc R . . . .
C1 C 0.8483(6) 0.7324(3) 0.6069(5) 0.030(3) Uani 1 1 d . . . . .
C2 C 0.8749(6) 0.7598(3) 0.5819(5) 0.031(3) Uani 1 1 d . . . . .
C3 C 0.8408(6) 0.7869(4) 0.5556(5) 0.038(3) Uani 1 1 d . . . . .
H3 H 0.798872 0.787370 0.550867 0.045 Uiso 1 1 calc R . . . .
C4 C 0.8684(6) 0.8130(3) 0.5367(5) 0.030(3) Uani 1 1 d . . . . .
C5 C 0.9293(6) 0.8138(3) 0.5446(5) 0.031(3) Uani 1 1 d . . . . .
H5 H 0.947633 0.832358 0.532198 0.038 Uiso 1 1 calc R . . . .
C6 C 0.9637(5) 0.7872(3) 0.5709(5) 0.027(3) Uani 1 1 d . . . . .
C7 C 0.9366(5) 0.7601(3) 0.5894(5) 0.026(3) Uani 1 1 d . . . . .
H7 H 0.960227 0.741837 0.607064 0.031 Uiso 1 1 calc R . . . .
C8 C 1.0308(5) 0.7879(3) 0.5847(5) 0.030(3) Uani 1 1 d . . . . .
C9 C 0.7248(6) 0.5640(3) 0.6312(5) 0.032(3) Uani 1 1 d . . . . .
C10 C 0.7252(7) 0.500000 0.6258(7) 0.025(4) Uani 1 2 d S T P . .
H10 H 0.692657 0.499999 0.640279 0.030 Uiso 1 2 calc RS T P . .
C11 C 0.7480(5) 0.5310(3) 0.6157(5) 0.029(3) Uani 1 1 d . . . . .
C12 C 0.7940(6) 0.5310(3) 0.5921(5) 0.031(3) Uani 1 1 d . . . . .
H12 H 0.811314 0.551939 0.585417 0.037 Uiso 1 1 calc R . . . .
C13 C 0.8136(8) 0.500000 0.5787(8) 0.034(5) Uani 1 2 d S T P . .
C14 C 0.6813(10) 0.8168(4) 0.5949(9) 0.078(7) Uani 1 1 d . . . . .
H14A H 0.717477 0.819157 0.623626 0.093 Uiso 1 1 calc R . . . .
H14B H 0.686007 0.831921 0.567520 0.093 Uiso 1 1 calc R . . . .
C15 C 0.6296(9) 0.8275(4) 0.6104(7) 0.056(5) Uani 1 1 d . . . . .
H15 H 0.595781 0.826881 0.578895 0.067 Uiso 1 1 calc R . . . .
C16 C 0.6311(9) 0.8638(4) 0.6285(8) 0.065(5) Uani 1 1 d . . . . .
H16A H 0.594501 0.868773 0.638094 0.098 Uiso 1 1 calc R . . . .
H16B H 0.665762 0.867015 0.657733 0.098 Uiso 1 1 calc R . . . .
H16C H 0.634093 0.879463 0.601578 0.098 Uiso 1 1 calc R . . . .
C17 C 0.9857(6) 0.6493(3) 0.6790(6) 0.038(3) Uani 1 1 d . . . . .
H17A H 1.027313 0.644382 0.698571 0.046 Uiso 1 1 calc R . . . .
H17B H 0.986730 0.662067 0.648295 0.046 Uiso 1 1 calc R . . . .
C18 C 0.9514(7) 0.6162(4) 0.6648(7) 0.047(4) Uani 1 1 d . . . . .
H18 H 0.950137 0.604651 0.696786 0.057 Uiso 1 1 calc R . . . .
C19 C 0.9804(8) 0.5926(5) 0.6377(9) 0.080(7) Uani 1 1 d . . . . .
H19A H 1.020976 0.587656 0.658355 0.121 Uiso 1 1 calc R . . . .
H19B H 0.957488 0.571221 0.630755 0.121 Uiso 1 1 calc R . . . .
H19C H 0.982022 0.603081 0.605963 0.121 Uiso 1 1 calc R . . . .
C23 C 0.5267(9) 0.5578(5) 0.6600(9) 0.081(4) Uani 1 1 d . U . . .
H23A H 0.531519 0.538527 0.638179 0.097 Uiso 1 1 calc R . . . .
H23B H 0.498944 0.550383 0.679333 0.097 Uiso 1 1 calc R . . . .
C24 C 0.5013(10) 0.5869(6) 0.6288(10) 0.088(4) Uani 1 1 d . U . . .
H24 H 0.498456 0.604410 0.654456 0.106 Uiso 1 1 calc R . . . .
C25 C 0.4399(13) 0.5845(8) 0.5983(12) 0.140(8) Uani 1 1 d . U . . .
H25A H 0.414958 0.590093 0.619998 0.210 Uiso 1 1 d R . . . .
H25B H 0.433218 0.561383 0.585678 0.210 Uiso 1 1 d R . . . .
H25C H 0.429728 0.600723 0.568848 0.210 Uiso 1 1 d R . . . .
Ni7 Ni 0.8995(3) 0.500000 0.8499(2) 0.1288(17) Uani 1 2 d DS T P . .
N7 N 0.9362(10) 0.4688(6) 0.8091(9) 0.1288(17) Uani 0.5 1 d D U . C -1
H7A H 0.975454 0.473892 0.813828 0.155 Uiso 0.5 1 calc R . . C -1
H7B H 0.932969 0.446535 0.817666 0.155 Uiso 0.5 1 calc R . . C -1
N8 N 0.8630(10) 0.5311(6) 0.8907(9) 0.1288(17) Uani 0.5 1 d D U . C -1
H8A H 0.828424 0.540255 0.871093 0.155 Uiso 0.5 1 calc R . . C -1
H8B H 0.854665 0.519336 0.916318 0.155 Uiso 0.5 1 calc R . . C -1
N74 N 0.8438(12) 0.5172(9) 0.7839(8) 0.1288(17) Uani 0.5 1 d D U . C -1
H74A H 0.807760 0.506461 0.777466 0.155 Uiso 0.5 1 calc R . . C -1
H74B H 0.837917 0.540136 0.785381 0.155 Uiso 0.5 1 calc R . . C -1
N75 N 0.9630(15) 0.5371(9) 0.8555(15) 0.1288(17) Uani 0.5 1 d D U . C -1
H75A H 0.998565 0.527714 0.854988 0.155 Uiso 0.5 1 calc R . . C -1
H75B H 0.951581 0.552394 0.829760 0.155 Uiso 0.5 1 calc R . . C -1
C50 C 0.905(3) 0.5765(18) 0.9576(19) 0.176(11) Uani 0.5 1 d D U . C -1
H50A H 0.936833 0.593782 0.966012 0.264 Uiso 0.5 1 calc R . . C -1
H50B H 0.866308 0.587633 0.952566 0.264 Uiso 0.5 1 calc R . . C -1
H50C H 0.911240 0.559885 0.985131 0.264 Uiso 0.5 1 calc R . . C -1
C47 C 0.901(3) 0.5342(13) 0.718(2) 0.147(11) Uani 0.5 1 d D U . C -1
H47A H 0.917496 0.522146 0.693300 0.221 Uiso 0.5 1 calc R . . C -1
H47B H 0.871385 0.550872 0.700136 0.221 Uiso 0.5 1 calc R . . C -1
H47C H 0.933663 0.546103 0.742141 0.221 Uiso 0.5 1 calc R . . C -1
C46 C 0.8731(15) 0.5091(9) 0.7443(8) 0.139(5) Uani 0.5 1 d D U . C -1
H46 H 0.837466 0.502613 0.716343 0.166 Uiso 0.5 1 calc R . . C -1
C45 C 0.902(2) 0.4751(10) 0.7561(8) 0.137(5) Uani 0.5 1 d D U . C -1
H45A H 0.929026 0.471737 0.734657 0.165 Uiso 0.5 1 calc R . . C -1
H45B H 0.870295 0.457375 0.746467 0.165 Uiso 0.5 1 calc R . . C -1
C48 C 0.9675(18) 0.5539(13) 0.9044(19) 0.208 Uani 0.5 1 d D U . C -1
H48A H 0.987324 0.576410 0.905559 0.250 Uiso 0.5 1 calc R . . C -1
H48B H 0.991879 0.539565 0.932037 0.250 Uiso 0.5 1 calc R . . C -1
C49 C 0.9069(17) 0.5585(11) 0.911(2) 0.171(4) Uani 0.5 1 d D U . C -1
H49 H 0.891350 0.576929 0.885401 0.206 Uiso 0.5 1 calc R . . C -1
Ni8 Ni 0.64180(10) 0.82515(5) 0.90342(8) 0.0506(5) Uani 1 1 d . . . . .
O76 O 0.5712(6) 0.7915(3) 0.8673(6) 0.078(4) Uani 1 1 d . . . . .
H76A H 0.564132 0.781666 0.837974 0.117 Uiso 1 1 d R . . . .
H76B H 0.582242 0.770586 0.881454 0.117 Uiso 1 1 d R . . . .
O77 O 0.5999(7) 0.8265(3) 0.9632(6) 0.087(5) Uani 1 1 d . . . . .
H77A H 0.563171 0.829357 0.938030 0.131 Uiso 1 1 d R . . . .
H77B H 0.619451 0.840917 0.988030 0.131 Uiso 1 1 d R . . . .
N9 N 0.6704(6) 0.8241(3) 0.8378(5) 0.047(3) Uani 1 1 d . . . . .
H9A H 0.708559 0.831909 0.844542 0.057 Uiso 1 1 calc R . . . .
H9B H 0.669445 0.802223 0.826167 0.057 Uiso 1 1 calc R . . . .
N10 N 0.5926(6) 0.8675(3) 0.8679(5) 0.054(4) Uani 1 1 d . . . . .
H10A H 0.553237 0.861910 0.856719 0.065 Uiso 1 1 calc R . . . .
H10B H 0.596424 0.885105 0.890160 0.065 Uiso 1 1 calc R . . . .
N11 N 0.6954(7) 0.7848(3) 0.9425(5) 0.057(4) Uani 1 1 d . . . . .
H11A H 0.673070 0.770546 0.956021 0.069 Uiso 1 1 calc R . . . .
H11B H 0.710558 0.772454 0.920976 0.069 Uiso 1 1 calc R . . . .
N12 N 0.7134(6) 0.8551(3) 0.9442(5) 0.045(3) Uani 1 1 d . . . . .
H12A H 0.721774 0.871677 0.924046 0.054 Uiso 1 1 calc R . . . .
H12B H 0.703796 0.865391 0.970421 0.054 Uiso 1 1 calc R . . . .
C20 C 0.7453(8) 0.7997(4) 0.9834(6) 0.053(4) Uani 1 1 d . . . . .
H20A H 0.778724 0.783228 0.993385 0.064 Uiso 1 1 calc R . . . .
H20B H 0.731266 0.804927 1.013295 0.064 Uiso 1 1 calc R . . . .
C21 C 0.7658(8) 0.8325(4) 0.9630(6) 0.047(4) Uani 1 1 d . . . . .
H21 H 0.781158 0.826181 0.933851 0.056 Uiso 1 1 calc R . . . .
C22 C 0.8159(8) 0.8496(5) 1.0021(7) 0.064(5) Uani 1 1 d . . . . .
H22A H 0.849302 0.833572 1.013245 0.096 Uiso 1 1 calc R . . . .
H22B H 0.829174 0.869984 0.987578 0.096 Uiso 1 1 calc R . . . .
H22C H 0.801697 0.856316 1.030979 0.096 Uiso 1 1 calc R . . . .
C26 C 0.6306(8) 0.8459(4) 0.7995(6) 0.054(4) Uani 1 1 d . . . . .
H26A H 0.593459 0.833255 0.783245 0.065 Uiso 1 1 calc R . . . .
H26B H 0.650349 0.852017 0.773324 0.065 Uiso 1 1 calc R . . . .
C27 C 0.6153(8) 0.8785(4) 0.8240(7) 0.052(4) Uani 1 1 d . . . . .
H27 H 0.652912 0.891886 0.837463 0.062 Uiso 1 1 calc R . . . .
C28 C 0.5709(8) 0.9009(4) 0.7870(7) 0.064(5) Uani 1 1 d . . . . .
H28A H 0.587345 0.907357 0.759335 0.097 Uiso 1 1 calc R . . . .
H28B H 0.533559 0.888216 0.773641 0.097 Uiso 1 1 calc R . . . .
H28C H 0.562965 0.921579 0.804201 0.097 Uiso 1 1 calc R . . . .
Ni9 Ni 0.91901(8) 0.82536(4) 0.78400(7) 0.0343(4) Uani 1 1 d . . . . .
N13 N 0.9832(5) 0.7994(3) 0.8244(4) 0.038(3) Uani 1 1 d D U . . .
H13A H 0.976546 0.776815 0.816798 0.045 Uiso 1 1 calc R . . . .
H13B H 1.017446 0.805523 0.816990 0.045 Uiso 1 1 calc R . . . .
N14 N 0.9074(7) 0.8407(4) 0.8453(5) 0.060(4) Uani 1 1 d D U . . .
H14C H 0.922121 0.862336 0.851510 0.071 Uiso 1 1 calc R . . . .
H14D H 0.867521 0.841594 0.842208 0.071 Uiso 1 1 calc R . . . .
N15 N 0.9301(5) 0.8087(3) 0.7225(4) 0.042(3) Uani 1 1 d D U . . .
H15A H 0.969121 0.811155 0.723028 0.050 Uiso 1 1 calc R . . . .
H15B H 0.921077 0.785996 0.719400 0.050 Uiso 1 1 calc R . . . .
N16 N 0.8579(5) 0.8544(3) 0.7459(4) 0.042(3) Uani 1 1 d D U . . .
H16D H 0.821559 0.845939 0.746086 0.050 Uiso 1 1 calc R . . . .
H16E H 0.861718 0.875661 0.760054 0.050 Uiso 1 1 calc R . . . .
C29 C 0.8920(9) 0.8274(5) 0.6784(6) 0.080(6) Uani 1 1 d D U . . .
H29A H 0.917013 0.835495 0.657049 0.096 Uiso 1 1 calc R . . . .
H29B H 0.861696 0.811496 0.658125 0.096 Uiso 1 1 calc R . . . .
C30 C 0.8617(9) 0.8569(5) 0.6936(5) 0.091(6) Uani 1 1 d D U . . .
H30 H 0.895213 0.873734 0.699327 0.109 Uiso 1 1 calc R . . . .
C31 C 0.8154(7) 0.8773(4) 0.6576(6) 0.054(4) Uani 1 1 d D U . . .
H31A H 0.801320 0.895597 0.675725 0.081 Uiso 1 1 calc R . . . .
H31B H 0.832464 0.887355 0.632224 0.081 Uiso 1 1 calc R . . . .
H31C H 0.781872 0.862402 0.641133 0.081 Uiso 1 1 calc R . . . .
C32 C 0.9912(8) 0.8043(5) 0.8794(5) 0.071(5) Uani 1 1 d D U . . .
H32A H 1.000840 0.782067 0.896893 0.085 Uiso 1 1 calc R . . . .
H32B H 1.024927 0.820135 0.893105 0.085 Uiso 1 1 calc R . . . .
C33 C 0.9365(10) 0.8184(6) 0.8888(6) 0.049(7) Uani 0.5 1 d D U . . .
H33 H 0.909134 0.798464 0.886773 0.059 Uiso 0.5 1 calc R . . . .
C34 C 0.9420(12) 0.8344(7) 0.9385(7) 0.103(8) Uani 1 1 d D U . . .
H34A H 0.902767 0.842680 0.939897 0.155 Uiso 1 1 calc R . . . .
H34B H 0.956742 0.817368 0.965085 0.155 Uiso 1 1 calc R . . . .
H34C H 0.969953 0.853641 0.943425 0.155 Uiso 1 1 calc R . . . .
Ni10 Ni 0.82336(14) 0.500000 0.39190(12) 0.0536(8) Uani 1 2 d DS T P . .
N17 N 0.8878(8) 0.4680(5) 0.4002(9) 0.042(7) Uani 0.5 1 d D U . D -1
H17C H 0.895311 0.457456 0.430678 0.051 Uiso 0.5 1 calc R . . D -1
H17D H 0.878570 0.451701 0.375743 0.051 Uiso 0.5 1 calc R . . D -1
N18 N 0.8803(10) 0.5368(5) 0.4002(13) 0.095(15) Uani 0.5 1 d D U . D -1
H18A H 0.880256 0.545835 0.369861 0.114 Uiso 0.5 1 calc R . . D -1
H18B H 0.871595 0.553737 0.419687 0.114 Uiso 0.5 1 calc R . . D -1
N19 N 0.7583(8) 0.5313(6) 0.3835(9) 0.093(8) Uani 0.5 1 d D U . D -1
H19D H 0.762878 0.544046 0.411809 0.112 Uiso 0.5 1 calc R . . D -1
H19E H 0.756813 0.545633 0.357293 0.112 Uiso 0.5 1 calc R . . D -1
N20 N 0.7694(11) 0.4619(6) 0.3840(13) 0.098(8) Uani 0.5 1 d D U . D -1
H20C H 0.762283 0.452936 0.352515 0.118 Uiso 0.5 1 calc R . . D -1
H20D H 0.785363 0.445176 0.406701 0.118 Uiso 0.5 1 calc R . . D -1
C35 C 0.9418(7) 0.4884(6) 0.3966(9) 0.063(8) Uani 0.5 1 d D U . D -1
H35 H 0.977819 0.475322 0.415755 0.075 Uiso 0.5 1 calc R . . D -1
C36 C 0.9403(8) 0.5208(7) 0.4256(11) 0.069(9) Uani 0.5 1 d D U . D -1
H36A H 0.973320 0.536333 0.423855 0.083 Uiso 0.5 1 calc R . . D -1
H36B H 0.943748 0.515697 0.461342 0.083 Uiso 0.5 1 calc R . . D -1
C37 C 0.9479(13) 0.4932(8) 0.3448(9) 0.057(10) Uani 0.5 1 d D U . D -1
H37A H 0.948451 0.470769 0.329007 0.086 Uiso 0.5 1 calc R . . D -1
H37B H 0.914050 0.506590 0.324854 0.086 Uiso 0.5 1 calc R . . D -1
H37C H 0.985168 0.505356 0.346487 0.086 Uiso 0.5 1 calc R . . D -1
C38 C 0.7125(10) 0.4751(8) 0.3926(18) 0.102(7) Uani 0.5 1 d D U . D -1
H38A H 0.678752 0.460280 0.374898 0.122 Uiso 0.5 1 calc R . . D -1
H38B H 0.715445 0.474583 0.428968 0.122 Uiso 0.5 1 calc R . . D -1
C39 C 0.7020(8) 0.5107(7) 0.3734(14) 0.102(7) Uani 0.5 1 d D U . D -1
H39 H 0.689737 0.507892 0.336017 0.123 Uiso 0.5 1 calc R . . D -1
C40 C 0.6508(12) 0.5285(10) 0.384(2) 0.112(10) Uani 0.5 1 d D U . D -1
H40A H 0.647585 0.551648 0.369775 0.168 Uiso 0.5 1 calc R . . D -1
H40B H 0.614075 0.515733 0.368390 0.168 Uiso 0.5 1 calc R . . D -1
H40C H 0.656748 0.529772 0.420265 0.168 Uiso 0.5 1 calc R . . D -1
O25A O 1.1631(16) 1.008(2) 0.9205(13) 0.109(16) Uani 0.27(2) 1 d D U . B -2
H25F H 1.156618 0.992731 0.944951 0.163 Uiso 0.27(2) 1 d R . . B -2
H25G H 1.159498 1.031911 0.927851 0.163 Uiso 0.27(2) 1 d R . . B -2
Ni2A Ni 0.8736(5) 0.9562(3) 0.9702(4) 0.0589(7) Uani 0.374(6) 1 d . U . A 2
Ni1A Ni 0.9476(13) 1.000000 0.8769(11) 0.0580(7) Uani 0.244(7) 2 d S T P A 2
loop_
_atom_site_aniso_label
_atom_site_aniso_U_11
_atom_site_aniso_U_22
_atom_site_aniso_U_33
_atom_site_aniso_U_23
_atom_site_aniso_U_13
_atom_site_aniso_U_12
W1 0.0324(10) 0.0469(8) 0.0807(19) 0.000 -0.0079(10) 0.000
W2 0.0597(12) 0.0526(7) 0.0490(10) 0.0004(6) -0.0108(7) 0.0014(8)
W3 0.0474(4) 0.0255(3) 0.0459(4) 0.0032(2) 0.0125(3) 0.0070(2)
W4 0.0408(3) 0.0356(3) 0.0591(4) -0.0027(3) 0.0186(3) 0.0045(3)
W5 0.0382(3) 0.0280(3) 0.0298(3) -0.0040(2) 0.0082(2) -0.0008(2)
W6 0.0386(4) 0.0292(4) 0.0398(5) 0.000 0.0172(4) 0.000
W7 0.0729(5) 0.0277(3) 0.0340(3) 0.0037(2) 0.0197(3) 0.0022(3)
P1 0.031(2) 0.018(2) 0.025(3) 0.000 0.001(2) 0.000
Na1 0.131(10) 0.053(6) 0.084(8) 0.000 0.075(8) 0.000
O1 0.039(8) 0.041(8) 0.040(9) 0.000 -0.006(7) 0.000
O2 0.049(7) 0.083(9) 0.075(10) 0.009(7) -0.013(7) 0.004(6)
O3 0.075(13) 0.103(16) 0.058(13) 0.000 -0.031(10) 0.000
O4 0.050(6) 0.040(6) 0.044(7) 0.001(5) -0.001(5) 0.013(5)
O5 0.035(5) 0.023(4) 0.033(5) -0.002(4) 0.001(4) 0.002(4)
O6 0.038(6) 0.049(7) 0.091(10) 0.006(6) 0.001(6) 0.009(5)
O7 0.037(8) 0.050(9) 0.066(11) 0.000 0.023(8) 0.000
O8 0.049(6) 0.032(5) 0.050(7) 0.000(5) 0.014(5) 0.013(4)
O9 0.052(6) 0.029(5) 0.036(6) 0.001(4) 0.020(5) 0.006(4)
O10 0.043(6) 0.026(5) 0.042(6) -0.003(4) 0.014(5) 0.003(4)
O11 0.040(8) 0.026(7) 0.037(8) 0.000 0.007(6) 0.000
O12 0.035(5) 0.033(5) 0.037(6) -0.002(4) 0.011(4) -0.008(4)
O13 0.057(7) 0.035(5) 0.071(8) -0.016(5) 0.047(6) -0.020(5)
O14 0.086(9) 0.044(6) 0.040(7) 0.008(5) -0.011(6) 0.007(6)
O15 0.057(7) 0.033(5) 0.039(6) 0.000(4) 0.018(5) -0.001(5)
O16 0.046(8) 0.026(6) 0.027(7) 0.000 0.008(6) 0.000
O17 0.093(13) 0.043(8) 0.034(9) 0.000 0.026(9) 0.000
O18 0.113(11) 0.040(6) 0.044(7) 0.010(5) 0.037(7) 0.000(6)
O19 0.042(9) 0.048(9) 0.076(12) 0.000 0.029(8) 0.000
O20 0.066(7) 0.042(6) 0.030(6) -0.008(5) 0.010(5) -0.004(5)
O21 0.055(7) 0.054(7) 0.085(9) -0.011(6) 0.034(7) 0.009(6)
O22 0.065(7) 0.028(5) 0.051(7) 0.008(5) 0.014(6) 0.007(5)
O23 0.107(12) 0.079(10) 0.074(10) 0.021(8) -0.010(9) 0.020(9)
O24 0.058(13) 0.115(18) 0.108(19) 0.000 -0.003(12) 0.000
O25 0.108(17) 0.108(18) 0.109(17) -0.005(7) 0.028(8) -0.007(7)
W8 0.0251(3) 0.0292(3) 0.0304(3) 0.0034(2) 0.0089(2) 0.0056(2)
W9 0.0209(2) 0.0280(3) 0.0338(3) -0.0035(2) 0.0095(2) -0.0021(2)
W10 0.0240(3) 0.0212(2) 0.0361(3) -0.0024(2) 0.0113(2) -0.00164(19)
W11 0.0273(3) 0.0323(3) 0.0317(3) -0.0064(2) 0.0090(2) -0.0003(2)
W12 0.0333(3) 0.0346(3) 0.0284(3) 0.0037(2) 0.0114(2) 0.0057(2)
W13 0.0323(3) 0.0233(3) 0.0372(3) 0.0047(2) 0.0151(2) 0.0015(2)
W14 0.0249(3) 0.0252(3) 0.0389(3) -0.0003(2) 0.0152(2) -0.0024(2)
W15 0.0291(3) 0.0309(3) 0.0320(3) -0.0007(2) 0.0149(2) 0.0015(2)
W16 0.0219(3) 0.0230(2) 0.0336(3) -0.0009(2) 0.0122(2) 0.00114(19)
Ni1 0.0222(8) 0.0236(8) 0.0311(9) -0.0018(7) 0.0082(7) 0.0006(6)
Ni2 0.0271(9) 0.0239(8) 0.0463(11) -0.0031(7) 0.0141(8) -0.0021(7)
Ni3 0.0221(8) 0.0209(7) 0.0320(9) -0.0010(7) 0.0093(7) -0.0004(6)
Ni4 0.0214(8) 0.0249(8) 0.0333(10) 0.0004(7) 0.0104(7) 0.0013(6)
Ni5 0.0203(8) 0.0242(8) 0.0312(9) 0.0016(7) 0.0092(7) 0.0016(6)
Ni6 0.0225(8) 0.0251(8) 0.0342(10) 0.0023(7) 0.0098(7) 0.0025(6)
S1 0.038(2) 0.042(2) 0.038(2) 0.0103(16) 0.0110(17) 0.0109(16)
S2 0.049(3) 0.046(3) 0.050(4) 0.000 0.029(3) 0.000
P2 0.0169(14) 0.0192(14) 0.0203(16) -0.0013(12) 0.0075(12) 0.0004(11)
O26 0.026(5) 0.033(5) 0.035(5) 0.005(4) 0.010(4) 0.006(4)
O27 0.018(4) 0.021(4) 0.033(5) -0.003(4) 0.010(4) -0.003(3)
O28 0.023(4) 0.029(5) 0.037(5) -0.007(4) 0.010(4) -0.005(4)
O29 0.022(5) 0.031(5) 0.054(6) -0.007(4) 0.015(4) 0.001(4)
O30 0.027(5) 0.030(5) 0.043(6) -0.005(4) 0.009(4) 0.001(4)
O31 0.028(5) 0.035(5) 0.030(5) 0.000(4) 0.006(4) -0.003(4)
O32 0.028(5) 0.039(5) 0.039(6) 0.005(4) 0.008(4) 0.005(4)
O33 0.037(5) 0.031(5) 0.035(6) 0.005(4) 0.017(4) 0.006(4)
O34 0.029(5) 0.020(4) 0.030(5) 0.001(4) 0.012(4) 0.003(3)
O35 0.027(4) 0.019(4) 0.029(5) 0.002(3) 0.013(4) 0.006(3)
O36 0.035(5) 0.026(4) 0.036(5) 0.002(4) 0.019(4) -0.001(4)
O37 0.027(5) 0.038(5) 0.047(6) -0.001(4) 0.020(4) -0.003(4)
O38 0.044(6) 0.033(5) 0.032(5) -0.002(4) 0.024(5) 0.001(4)
O39 0.038(5) 0.033(5) 0.031(5) 0.000(4) 0.013(4) 0.002(4)
O40 0.027(5) 0.030(5) 0.036(5) 0.002(4) 0.015(4) 0.005(4)
O41 0.026(5) 0.027(4) 0.036(5) -0.003(4) 0.015(4) 0.000(4)
O42 0.023(4) 0.027(4) 0.032(5) -0.004(4) 0.012(4) 0.001(3)
O43 0.018(4) 0.022(4) 0.037(5) 0.007(4) 0.005(4) 0.004(3)
O44 0.024(4) 0.025(4) 0.039(6) 0.000(4) 0.012(4) 0.001(4)
O45 0.025(4) 0.022(4) 0.039(5) -0.002(4) 0.011(4) 0.005(3)
O46 0.024(4) 0.026(4) 0.034(5) -0.002(4) 0.010(4) 0.000(3)
O47 0.026(5) 0.017(4) 0.039(5) 0.000(4) 0.008(4) 0.001(3)
O48 0.022(4) 0.022(4) 0.041(6) 0.001(4) 0.009(4) -0.002(3)
O49 0.023(4) 0.027(4) 0.035(5) -0.006(4) 0.009(4) 0.002(4)
O50 0.023(4) 0.023(4) 0.032(5) 0.000(4) 0.007(4) -0.001(3)
O51 0.022(4) 0.023(4) 0.027(5) 0.004(4) 0.007(4) 0.002(3)
O52 0.022(4) 0.029(5) 0.041(6) 0.009(4) 0.015(4) 0.009(4)
O53 0.023(4) 0.032(5) 0.038(6) 0.002(4) 0.011(4) 0.002(4)
O54 0.061(8) 0.056(7) 0.078(9) 0.037(6) 0.027(7) 0.010(6)
O55 0.140(14) 0.093(10) 0.075(10) 0.024(8) 0.055(10) 0.076(10)
O56 0.073(9) 0.088(10) 0.054(8) 0.021(7) -0.016(7) 0.000(7)
O57 0.026(5) 0.032(5) 0.034(5) -0.001(4) 0.009(4) -0.004(4)
O58 0.024(5) 0.025(5) 0.042(6) 0.005(4) -0.003(4) -0.006(4)
O59 0.024(4) 0.020(4) 0.029(5) 0.001(4) 0.005(4) 0.001(3)
O60 0.037(5) 0.018(4) 0.051(6) -0.004(4) 0.022(5) -0.003(4)
O61 0.032(5) 0.028(5) 0.053(6) -0.003(4) 0.020(5) -0.004(4)
O62 0.080(14) 0.16(2) 0.034(11) 0.000 0.025(10) 0.000
O63 0.080(10) 0.084(9) 0.104(12) -0.029(8) 0.059(9) -0.034(8)
O64 0.039(5) 0.029(5) 0.047(6) 0.003(4) 0.019(5) 0.005(4)
O65 0.034(5) 0.044(5) 0.042(6) -0.006(5) 0.017(5) -0.004(4)
O66 0.030(5) 0.029(5) 0.047(6) 0.000(4) 0.017(4) -0.005(4)
O67 0.031(5) 0.023(4) 0.042(6) 0.009(4) 0.009(4) 0.011(4)
O68 0.046(6) 0.023(5) 0.052(7) 0.004(4) 0.021(5) -0.002(4)
O69 0.048(6) 0.052(6) 0.029(6) 0.005(5) 0.016(5) 0.012(5)
O70 0.035(5) 0.052(6) 0.035(6) -0.012(5) 0.011(5) 0.000(4)
O71 0.035(5) 0.022(4) 0.057(7) -0.002(4) 0.019(5) -0.002(4)
O72 0.024(5) 0.036(5) 0.043(6) -0.004(4) 0.017(4) -0.001(4)
O73 0.028(5) 0.037(5) 0.045(6) 0.000(4) 0.010(4) 0.007(4)
N1 0.050(8) 0.042(7) 0.038(7) 0.006(6) 0.022(6) 0.008(6)
N2 0.034(6) 0.025(6) 0.047(7) 0.007(5) 0.017(6) 0.002(5)
N3 0.025(6) 0.035(6) 0.039(7) -0.006(5) 0.007(5) 0.001(5)
N4 0.030(6) 0.036(6) 0.040(7) -0.008(5) 0.012(5) -0.002(5)
N5 0.050(6) 0.051(6) 0.069(6) 0.003(5) 0.021(5) -0.015(5)
N6 0.054(6) 0.059(6) 0.075(7) -0.005(5) 0.011(5) -0.007(5)
C1 0.026(7) 0.040(7) 0.030(7) 0.014(6) 0.014(6) 0.005(6)
C2 0.030(7) 0.032(7) 0.034(8) 0.002(6) 0.016(6) 0.001(6)
C3 0.025(7) 0.053(9) 0.035(8) -0.006(7) 0.006(6) 0.007(6)
C4 0.030(7) 0.025(6) 0.030(7) 0.007(5) 0.001(6) 0.006(5)
C5 0.025(7) 0.030(7) 0.035(8) 0.004(6) 0.003(6) -0.003(5)
C6 0.016(6) 0.033(7) 0.031(7) 0.006(6) 0.004(5) -0.003(5)
C7 0.016(6) 0.028(6) 0.033(7) 0.010(5) 0.006(5) 0.002(5)
C8 0.021(6) 0.041(8) 0.025(7) 0.009(6) 0.003(5) 0.009(6)
C9 0.035(8) 0.019(6) 0.038(8) 0.007(6) 0.004(6) 0.006(5)
C10 0.009(8) 0.017(8) 0.051(12) 0.000 0.012(8) 0.000
C11 0.026(7) 0.024(6) 0.038(8) -0.012(6) 0.011(6) -0.002(5)
C12 0.038(8) 0.014(6) 0.039(8) 0.004(5) 0.009(6) 0.003(5)
C13 0.027(10) 0.032(10) 0.050(13) 0.000 0.020(9) 0.000
C14 0.110(17) 0.032(9) 0.109(18) 0.013(10) 0.061(15) -0.003(10)
C15 0.089(13) 0.027(8) 0.069(12) 0.007(8) 0.051(11) 0.001(8)
C16 0.088(14) 0.024(8) 0.095(15) -0.002(8) 0.045(12) -0.002(8)
C17 0.016(6) 0.037(7) 0.065(11) 0.000(7) 0.015(7) 0.001(5)
C18 0.045(9) 0.036(8) 0.061(11) -0.010(7) 0.016(8) 0.000(7)
C19 0.045(11) 0.064(12) 0.115(19) -0.042(12) -0.004(11) 0.008(9)
C23 0.071(6) 0.077(6) 0.090(7) 0.007(6) 0.016(5) -0.018(6)
C24 0.072(6) 0.087(6) 0.097(7) 0.005(6) 0.010(5) -0.014(6)
C25 0.113(12) 0.141(14) 0.145(14) 0.010(12) 0.002(11) -0.011(12)
Ni7 0.129(3) 0.130(3) 0.147(3) 0.000 0.071(3) 0.000
N7 0.129(3) 0.130(3) 0.147(3) 0.000 0.071(3) 0.000
N8 0.129(3) 0.130(3) 0.147(3) 0.000 0.071(3) 0.000
N74 0.129(3) 0.130(3) 0.147(3) 0.000 0.071(3) 0.000
N75 0.129(3) 0.130(3) 0.147(3) 0.000 0.071(3) 0.000
C50 0.176(16) 0.170(16) 0.178(15) -0.006(13) 0.041(13) 0.013(14)
C47 0.148(16) 0.149(16) 0.142(16) 0.001(13) 0.038(13) -0.007(14)
C46 0.141(7) 0.138(7) 0.144(7) 0.000(6) 0.052(6) 0.002(6)
C45 0.138(7) 0.135(7) 0.146(7) -0.004(6) 0.052(6) 0.005(6)
C48 0.207 0.210 0.208 0.000 0.059 0.000
C49 0.172(6) 0.171(6) 0.177(6) -0.001(6) 0.058(6) 0.002(6)
Ni8 0.0661(14) 0.0378(11) 0.0529(13) -0.0125(9) 0.0251(11) -0.0028(10)
O76 0.082(10) 0.057(8) 0.098(11) -0.029(7) 0.027(8) -0.010(7)
O77 0.108(12) 0.080(10) 0.089(11) -0.031(8) 0.055(10) -0.028(9)
N9 0.051(8) 0.044(7) 0.047(8) -0.008(6) 0.015(7) 0.005(6)
N10 0.047(8) 0.049(8) 0.068(10) -0.015(7) 0.018(7) 0.007(6)
N11 0.093(11) 0.033(7) 0.059(10) 0.006(6) 0.042(9) 0.002(7)
N12 0.064(9) 0.035(7) 0.036(7) 0.002(5) 0.015(6) 0.013(6)
C20 0.087(13) 0.040(9) 0.036(9) 0.002(7) 0.024(9) 0.002(8)
C21 0.067(11) 0.032(8) 0.045(10) 0.010(7) 0.023(8) -0.004(7)
C22 0.073(13) 0.057(11) 0.061(12) 0.024(9) 0.017(10) -0.008(9)
C26 0.049(10) 0.062(11) 0.046(10) -0.003(8) 0.004(8) -0.002(8)
C27 0.061(11) 0.030(8) 0.065(12) -0.017(8) 0.018(9) -0.009(7)
C28 0.046(10) 0.058(11) 0.075(14) -0.008(10) -0.008(9) 0.001(8)
Ni9 0.0325(9) 0.0316(9) 0.0420(11) -0.0028(8) 0.0157(8) 0.0000(7)
N13 0.032(5) 0.039(5) 0.047(6) -0.002(5) 0.020(5) -0.008(4)
N14 0.064(7) 0.055(7) 0.062(7) 0.001(6) 0.023(6) 0.018(6)
N15 0.036(6) 0.044(6) 0.050(6) -0.011(5) 0.019(5) -0.010(5)
N16 0.036(6) 0.035(5) 0.054(6) 0.006(5) 0.011(5) 0.004(5)
C29 0.085(9) 0.087(9) 0.066(9) -0.003(7) 0.017(7) 0.020(7)
C30 0.101(10) 0.099(10) 0.078(9) 0.017(8) 0.034(8) 0.030(8)
C31 0.055(9) 0.063(9) 0.036(8) 0.007(7) -0.001(7) 0.010(7)
C32 0.073(9) 0.080(9) 0.061(8) 0.003(7) 0.021(7) 0.019(7)
C33 0.048(10) 0.059(11) 0.038(9) -0.005(8) 0.009(8) 0.017(8)
C34 0.109(15) 0.137(16) 0.069(11) -0.020(11) 0.034(11) 0.017(13)
Ni10 0.0526(18) 0.0625(19) 0.0475(19) 0.000 0.0169(15) 0.000
N17 0.044(10) 0.040(10) 0.042(11) -0.016(8) 0.009(8) 0.002(7)
N18 0.092(16) 0.094(17) 0.097(18) 0.008(10) 0.020(10) 0.003(9)
N19 0.090(10) 0.100(10) 0.094(10) 0.004(8) 0.034(7) 0.002(7)
N20 0.096(10) 0.105(10) 0.098(10) 0.000(8) 0.033(7) -0.007(8)
C35 0.057(11) 0.066(12) 0.067(11) -0.001(8) 0.022(9) -0.005(8)
C36 0.072(12) 0.063(11) 0.071(12) -0.003(9) 0.016(9) 0.000(9)
C37 0.054(14) 0.05(2) 0.076(14) 0.004(12) 0.027(12) -0.015(12)
C38 0.098(9) 0.105(9) 0.103(9) 0.003(7) 0.030(7) -0.004(7)
C39 0.098(9) 0.104(9) 0.105(9) 0.001(7) 0.029(7) 0.000(6)
C40 0.106(14) 0.116(16) 0.116(16) 0.008(13) 0.034(13) 0.004(12)
O25A 0.108(17) 0.108(18) 0.109(17) -0.005(7) 0.028(8) -0.007(7)
Ni2A 0.0597(12) 0.0526(7) 0.0490(10) 0.0004(6) -0.0108(7) 0.0014(8)
Ni1A 0.0324(10) 0.0469(8) 0.0807(19) 0.000 -0.0079(10) 0.000
loop_
_atom_type_symbol
_atom_type_description
_atom_type_scat_dispersion_real
_atom_type_scat_dispersion_imag
_atom_type_scat_source
C C 0.0030 0.0020 'International Tables Vol C Tables 4.2.6.8 and 6.1.1.4'
H H 0.0000 0.0000 'International Tables Vol C Tables 4.2.6.8 and 6.1.1.4'
N N 0.0060 0.0030 'International Tables Vol C Tables 4.2.6.8 and 6.1.1.4'
Na Na 0.0360 0.0250 'International Tables Vol C Tables 4.2.6.8 and 6.1.1.4'
Ni Ni 0.3390 1.1120 'International Tables Vol C Tables 4.2.6.8 and 6.1.1.4'
O O 0.0110 0.0060 'International Tables Vol C Tables 4.2.6.8 and 6.1.1.4'
P P 0.1020 0.0940 'International Tables Vol C Tables 4.2.6.8 and 6.1.1.4'
S S 0.1250 0.1230 'International Tables Vol C Tables 4.2.6.8 and 6.1.1.4'
W W -0.8490 6.8720 'International Tables Vol C Tables 4.2.6.8 and 6.1.1.4'
loop_
_geom_angle_atom_site_label_1
_geom_angle_atom_site_label_2
_geom_angle_atom_site_label_3
_geom_angle
_geom_angle_site_symmetry_1
_geom_angle_site_symmetry_3
W2 W1 W2 64.37(9) 6_575 .
O1 W1 W2 48.6(2) . .
O1 W1 W2 48.6(2) . 6_575
O2 W1 W2 29.4(4) . .
O2 W1 W2 85.6(5) . 6_575
O2 W1 W2 85.6(5) 6_575 .
O2 W1 W2 29.4(4) 6_575 6_575
O2 W1 O1 77.7(5) . .
O2 W1 O1 77.8(5) 6_575 .
O2 W1 O2 96.6(9) . 6_575
O2 W1 O6 157.7(5) 6_575 .
O2 W1 O6 157.7(5) . 6_575
O2 W1 O6 88.3(6) . .
O2 W1 O6 88.3(5) 6_575 6_575
O6 W1 W2 88.2(4) . .
O6 W1 W2 88.2(4) 6_575 6_575
O6 W1 W2 130.5(3) . 6_575
O6 W1 W2 130.5(3) 6_575 .
O6 W1 O1 82.1(4) 6_575 .
O6 W1 O1 82.1(4) . .
O6 W1 O6 79.4(6) 6_575 .
O24 W1 W2 130.5(5) . .
O24 W1 W2 130.5(5) . 6_575
O24 W1 O1 178.8(8) . .
O24 W1 O2 101.5(6) . 6_575
O24 W1 O2 101.5(6) . .
O24 W1 O6 98.8(7) . .
O24 W1 O6 98.8(7) . 6_575
O1 W2 W1 47.6(4) . .
O2 W2 W1 28.6(4) . .
O2 W2 O1 76.0(5) . .
O2 W2 O3 92.8(8) . .
O2 W2 O4 93.4(5) . .
O2 W2 O14 158.4(5) . .
O3 W2 W1 81.3(6) . .
O3 W2 O1 74.2(5) . .
O3 W2 O14 84.5(7) . .
O4 W2 W1 92.9(3) . .
O4 W2 O1 84.0(4) . .
O4 W2 O3 155.1(5) . .
O4 W2 O14 80.9(5) . .
O14 W2 W1 130.3(3) . .
O14 W2 O1 82.6(5) . .
O23 W2 W1 131.8(6) . .
O23 W2 O1 173.9(6) . .
O23 W2 O2 104.1(7) . .
O23 W2 O3 99.7(7) . .
O23 W2 O4 102.1(6) . .
O23 W2 O14 97.5(6) . .
O4 W3 O5 84.0(4) . .
O4 W3 O8 90.6(5) . .
O4 W3 O10 156.4(4) . .
O4 W3 O15 89.4(5) . .
O8 W3 O5 73.3(3) . .
O8 W3 O10 84.7(4) . .
O10 W3 O5 72.4(3) . .
O15 W3 O5 84.5(4) . .
O15 W3 O8 157.7(4) . .
O15 W3 O10 86.3(4) . .
O22 W3 O4 104.6(5) . .
O22 W3 O5 169.5(4) . .
O22 W3 O8 100.3(5) . .
O22 W3 O10 99.0(5) . .
O22 W3 O15 101.3(5) . .
O6 W4 O5 83.9(4) . .
O6 W4 O7 88.6(6) . .
O6 W4 O8 90.9(5) . .
O6 W4 O9 156.2(5) . .
O7 W4 O5 84.9(5) . .
O7 W4 O8 157.3(5) . .
O7 W4 O9 86.3(5) . .
O8 W4 O5 72.5(3) . .
O9 W4 O5 72.5(3) . .
O9 W4 O8 85.0(4) . .
O21 W4 O5 169.4(4) . .
O21 W4 O6 103.5(6) . .
O21 W4 O7 102.7(6) . .
O21 W4 O8 99.4(5) . .
O21 W4 O9 100.3(5) . .
O9 W5 O5 72.2(4) . .
O9 W5 O11 87.7(5) . .
O10 W5 O5 72.1(3) . .
O10 W5 O9 88.0(4) . .
O10 W5 O11 155.4(5) . .
O10 W5 O12 88.7(4) . .
O11 W5 O5 83.5(4) . .
O12 W5 O5 83.1(4) . .
O12 W5 O9 154.9(4) . .
O12 W5 O11 85.0(5) . .
O20 W5 O5 171.7(4) . .
O20 W5 O9 101.9(5) . .
O20 W5 O10 102.2(4) . .
O20 W5 O11 102.3(5) . .
O20 W5 O12 103.1(5) . .
O12 W6 O12 84.8(5) . 6_575
O12 W6 O13 154.5(4) 6_575 .
O12 W6 O13 88.4(4) 6_575 6_575
O12 W6 O13 154.5(4) . 6_575
O12 W6 O13 88.4(4) . .
O12 W6 O16 83.8(4) . .
O12 W6 O16 83.8(4) 6_575 .
O13 W6 O13 87.2(6) . 6_575
O13 W6 O16 71.0(4) 6_575 .
O13 W6 O16 71.0(4) . .
O19 W6 O12 102.7(5) . 6_575
O19 W6 O12 102.7(5) . .
O19 W6 O13 102.8(5) . .
O19 W6 O13 102.8(5) . 6_575
O19 W6 O16 171.1(6) . .
O13 W7 O16 72.9(4) . .
O13 W7 Ni2A 148.9(3) . .
O14 W7 O13 157.8(5) . .
O14 W7 O15 89.8(5) . .
O14 W7 O16 85.1(5) . .
O14 W7 O17 90.8(6) . .
O14 W7 Ni2A 11.4(4) . .
O15 W7 O13 85.2(4) . .
O15 W7 O16 84.8(4) . .
O15 W7 O17 156.5(5) . .
O15 W7 Ni2A 79.9(4) . .
O16 W7 Ni2A 78.7(4) . .
O17 W7 O13 85.4(6) . .
O17 W7 O16 71.9(4) . .
O17 W7 Ni2A 97.6(6) . .
O18 W7 O13 99.7(5) . .
O18 W7 O14 102.6(6) . .
O18 W7 O15 102.0(5) . .
O18 W7 O16 169.7(5) . .
O18 W7 O17 100.8(5) . .
O18 W7 Ni2A 110.0(5) . .
O1 P1 O16 109.4(8) . .
O5 P1 O1 109.6(5) 6_575 .
O5 P1 O1 109.6(5) . .
O5 P1 O5 109.9(7) 6_575 .
O5 P1 O16 109.2(5) . .
O5 P1 O16 109.2(5) 6_575 .
O24 Na1 O25 92(2) . .
O24 Na1 O25A 104.9(18) . .
W1 O1 W2 83.7(4) . 6_575
W1 O1 W2 83.7(4) . .
W1 O1 Ni2A 96.6(5) . 6_575
W2 O1 W2 89.8(5) 6_575 .
W2 O1 Ni2A 88.6(5) . 6_575
W2 O1 Ni2A 13.1(3) 6_575 6_575
P1 O1 W1 129.7(9) . .
P1 O1 W2 127.5(5) . .
P1 O1 W2 127.5(5) . 6_575
P1 O1 Ni2A 119.3(6) . 6_575
P1 O1 Ni2A 119.3(6) . .
P1 O1 Ni1A 119.6(11) . .
Ni2A O1 Ni2A 84.5(7) 6_575 .
Ni1A O1 Ni2A 104.0(7) . .
Ni1A O1 Ni2A 104.0(7) . 6_575
W1 O2 W2 122.0(7) . .
Ni1A O2 Ni2A 118.3(11) . .
W2 O3 W2 119.9(10) 6_575 .
Ni2A O3 Ni2A 124.3(11) . 6_575
W3 O4 W2 154.7(6) . .
W3 O4 Ni2A 142.3(7) . .
W3 O5 W4 89.6(3) . .
W3 O5 W5 89.0(3) . .
W4 O5 W5 88.8(3) . .
P1 O5 W3 126.0(5) . .
P1 O5 W4 125.0(5) . .
P1 O5 W5 126.7(5) . .
W4 O6 W1 153.1(6) . .
Ni1A O6 W4 146.0(9) . .
W4 O7 W4 146.4(9) 6_575 .
W3 O8 W4 124.6(5) . .
W5 O9 W4 126.3(5) . .
W5 O10 W3 126.3(5) . .
W5 O11 W5 151.5(8) 6_575 .
W5 O12 W6 152.6(5) . .
W7 O13 W6 126.6(5) . .
W7 O14 W2 148.8(7) . .
Ni2A O14 W7 155.0(9) . .
W3 O15 W7 145.3(6) . .
W7 O16 W6 89.4(4) 6_575 .
W7 O16 W6 89.4(4) . .
W7 O16 W7 90.1(4) . 6_575
P1 O16 W6 124.7(7) . .
P1 O16 W7 125.9(4) . .
P1 O16 W7 125.9(4) . 6_575
W7 O17 W7 126.0(8) . 6_575
W1 O24 Na1 162.1(15) . .
Na1 O24 Ni1A 149.3(18) . .
O26 W8 O32 84.3(4) . .
O26 W8 O34 82.6(3) . .
O26 W8 O67 154.5(4) . .
O32 W8 O34 71.9(3) . .
O46 W8 O26 92.5(4) . .
O46 W8 O32 157.3(4) . .
O46 W8 O34 85.4(3) . .
O46 W8 O67 92.0(4) . .
O67 W8 O32 81.9(4) . .
O67 W8 O34 72.7(3) . .
O73 W8 O26 101.7(4) . .
O73 W8 O32 98.9(4) . .
O73 W8 O34 169.6(4) . .
O73 W8 O46 103.8(4) . .
O73 W8 O67 101.6(4) . .
O26 W9 O27 84.6(3) . .
O26 W9 O28 157.7(3) . .
O26 W9 O30 86.7(4) . .
O28 W9 O27 73.3(3) . .
O28 W9 O30 84.0(4) . .
O30 W9 O27 72.8(3) . .
O47 W9 O26 90.6(4) . .
O47 W9 O27 82.9(3) . .
O47 W9 O28 89.6(4) . .
O47 W9 O30 155.7(4) . .
O72 W9 O26 100.6(4) . .
O72 W9 O27 171.1(3) . .
O72 W9 O28 101.0(4) . .
O72 W9 O30 100.1(4) . .
O72 W9 O47 104.1(4) . .
O28 W10 O27 73.1(3) . .
O28 W10 O29 82.7(4) . .
O28 W10 O41 156.0(4) . .
O29 W10 O27 71.7(3) . .
O41 W10 O27 83.4(3) . .
O41 W10 O29 85.3(4) . .
O48 W10 O27 86.0(3) . .
O48 W10 O28 91.4(4) . .
O48 W10 O29 157.7(4) . .
O48 W10 O41 91.9(4) . .
O71 W10 O27 169.8(4) . .
O71 W10 O28 101.5(4) . .
O71 W10 O29 99.2(4) . .
O71 W10 O41 100.9(4) . .
O71 W10 O48 103.0(4) . .
O29 W11 O27 72.9(3) . .
O29 W11 O30 89.8(4) . .
O29 W11 O31 155.5(4) . .
O29 W11 O39 89.1(4) . .
O30 W11 O27 72.4(3) . .
O30 W11 O31 86.4(4) . .
O30 W11 O39 155.3(4) . .
O31 W11 O27 82.9(3) . .
O39 W11 O27 83.7(3) . .
O39 W11 O31 84.4(4) . .
O70 W11 O27 172.2(4) . .
O70 W11 O29 101.9(4) . .
O70 W11 O30 102.1(4) . .
O70 W11 O31 102.6(4) . .
O70 W11 O39 102.3(4) . .
O31 W12 O33 154.8(4) . .
O31 W12 O34 84.3(3) . .
O31 W12 O38 84.3(4) . .
O32 W12 O31 90.3(4) . .
O32 W12 O33 89.4(4) . .
O32 W12 O34 73.0(3) . .
O32 W12 O38 155.5(4) . .
O33 W12 O34 71.6(3) . .
O33 W12 O38 85.6(4) . .
O38 W12 O34 82.7(3) . .
O69 W12 O31 102.6(4) . .
O69 W12 O32 101.8(4) . .
O69 W12 O33 102.1(4) . .
O69 W12 O34 171.5(4) . .
O69 W12 O38 102.7(4) . .
O33 W13 O34 72.4(3) . .
O36 W13 O33 86.2(4) . .
O36 W13 O34 84.3(3) . .
O36 W13 O67 157.5(4) . .
O45 W13 O33 155.7(4) . .
O45 W13 O34 83.3(3) . .
O45 W13 O36 90.2(4) . .
O45 W13 O67 91.1(4) . .
O67 W13 O33 83.4(4) . .
O67 W13 O34 73.6(3) . .
O68 W13 O33 99.5(4) . .
O68 W13 O34 170.3(4) . .
O68 W13 O36 100.9(4) . .
O68 W13 O45 104.7(4) . .
O68 W13 O67 100.5(4) . .
O36 W14 O35 83.2(3) . .
O36 W14 O37 85.0(4) . .
O36 W14 O42 155.8(4) . .
O37 W14 O35 71.6(3) . .
O42 W14 O35 73.3(3) . .
O42 W14 O37 82.4(4) . .
O44 W14 O35 85.9(3) . .
O44 W14 O36 92.5(4) . .
O44 W14 O37 157.4(4) . .
O44 W14 O42 91.3(4) . .
O66 W14 O35 169.3(4) . .
O66 W14 O36 101.5(4) . .
O66 W14 O37 99.1(4) . .
O66 W14 O42 100.8(4) . .
O66 W14 O44 103.4(4) . .
O37 W15 O35 72.5(3) . .
O37 W15 O38 89.6(4) . .
O37 W15 O39 156.5(4) . .
O37 W15 O40 89.2(4) . .
O38 W15 O35 83.7(3) . .
O38 W15 O39 85.2(4) . .
O38 W15 O40 155.6(4) . .
O39 W15 O35 84.2(3) . .
O40 W15 O35 72.6(3) . .
O40 W15 O39 86.2(4) . .
O65 W15 O35 170.7(4) . .
O65 W15 O37 102.0(4) . .
O65 W15 O38 103.9(4) . .
O65 W15 O39 101.4(4) . .
O65 W15 O40 100.2(4) . .
O40 W16 O35 72.0(3) . .
O41 W16 O35 84.0(3) . .
O41 W16 O40 85.5(4) . .
O41 W16 O42 155.9(4) . .
O42 W16 O35 72.1(3) . .
O42 W16 O40 83.8(4) . .
O43 W16 O35 82.1(3) . .
O43 W16 O40 154.0(3) . .
O43 W16 O41 90.3(4) . .
O43 W16 O42 89.8(3) . .
O64 W16 O35 172.0(4) . .
O64 W16 O40 101.8(4) . .
O64 W16 O41 100.8(4) . .
O64 W16 O42 102.6(4) . .
O64 W16 O43 104.2(4) . .
Ni2 Ni1 Ni3 56.68(5) . .
Ni5 Ni1 Ni2 117.21(6) . .
Ni5 Ni1 Ni3 60.66(5) . .
Ni6 Ni1 Ni2 171.65(8) . .
Ni6 Ni1 Ni3 122.22(6) . .
Ni6 Ni1 Ni5 61.81(5) . .
O43 Ni1 Ni2 143.2(2) . .
O43 Ni1 Ni3 133.2(2) . .
O43 Ni1 Ni5 85.8(2) . .
O43 Ni1 Ni6 44.6(2) . .
O43 Ni1 O44 98.4(3) . .
O43 Ni1 O51 88.2(3) . .
O44 Ni1 Ni2 44.9(2) . .
O44 Ni1 Ni3 85.9(2) . .
O44 Ni1 Ni5 134.3(3) . .
O44 Ni1 Ni6 142.4(2) . .
O44 Ni1 O51 89.8(3) . .
O49 Ni1 Ni2 131.7(2) . .
O49 Ni1 Ni3 87.1(2) . .
O49 Ni1 Ni5 38.8(2) . .
O49 Ni1 Ni6 41.9(2) . .
O49 Ni1 O43 84.6(3) . .
O49 Ni1 O44 172.5(3) . .
O49 Ni1 O51 83.4(3) . .
O49 Ni1 O58 93.3(4) . 8_465
O51 Ni1 Ni2 89.8(2) . .
O51 Ni1 Ni3 45.1(2) . .
O51 Ni1 Ni5 44.6(2) . .
O51 Ni1 Ni6 94.1(2) . .
O58 Ni1 Ni2 94.2(2) 8_465 .
O58 Ni1 Ni3 137.4(2) 8_465 .
O58 Ni1 Ni5 132.1(3) 8_465 .
O58 Ni1 Ni6 81.8(2) 8_465 .
O58 Ni1 O43 89.1(3) 8_465 .
O58 Ni1 O44 93.6(4) 8_465 .
O58 Ni1 O51 175.9(3) 8_465 .
O59 Ni1 Ni2 38.4(2) . .
O59 Ni1 Ni3 38.8(2) . .
O59 Ni1 Ni5 87.6(2) . .
O59 Ni1 Ni6 134.7(2) . .
O59 Ni1 O43 171.9(3) . .
O59 Ni1 O44 82.9(3) . .
O59 Ni1 O49 93.2(3) . .
O59 Ni1 O51 83.8(3) . .
O59 Ni1 O58 98.8(3) . 8_465
Ni3 Ni2 Ni1 61.89(5) . .
O44 Ni2 Ni1 41.3(2) . .
O44 Ni2 Ni3 87.7(2) . .
O45 Ni2 Ni1 85.5(2) . .
O45 Ni2 Ni3 43.7(2) . .
O45 Ni2 O44 82.6(3) . .
O59 Ni2 Ni1 38.2(2) . .
O59 Ni2 Ni3 42.5(2) . .
O59 Ni2 O44 79.2(3) . .
O59 Ni2 O45 84.3(3) . .
O59 Ni2 O61 91.0(3) . .
O59 Ni2 N5 175.1(5) . .
O59 Ni2 N6 93.2(5) . .
O61 Ni2 Ni1 129.1(3) . .
O61 Ni2 Ni3 78.0(2) . .
O61 Ni2 O44 165.6(3) . .
O61 Ni2 O45 86.0(4) . .
O61 Ni2 N5 93.3(5) . .
N5 Ni2 Ni1 137.6(4) . .
N5 Ni2 Ni3 141.0(4) . .
N5 Ni2 O44 97.0(5) . .
N5 Ni2 O45 98.3(5) . .
N6 Ni2 Ni1 88.5(4) . .
N6 Ni2 Ni3 135.2(4) . .
N6 Ni2 O44 90.6(5) . .
N6 Ni2 O45 173.0(5) . .
N6 Ni2 O61 100.6(5) . .
N6 Ni2 N5 83.7(6) . .
Ni1 Ni3 Ni4 114.91(6) . .
Ni1 Ni3 Ni5 59.38(5) . .
Ni2 Ni3 Ni1 61.43(5) . .
Ni2 Ni3 Ni4 171.73(8) . .
Ni2 Ni3 Ni5 120.68(6) . .
Ni4 Ni3 Ni5 55.67(5) . .
O45 Ni3 Ni1 86.3(2) . .
O45 Ni3 Ni2 45.5(2) . .
O45 Ni3 Ni4 142.7(3) . .
O45 Ni3 Ni5 131.4(2) . .
O45 Ni3 O46 97.4(3) . .
O45 Ni3 O51 87.5(3) . .
O46 Ni3 Ni1 133.1(2) . .
O46 Ni3 Ni2 142.6(2) . .
O46 Ni3 Ni4 45.6(2) . .
O46 Ni3 Ni5 85.5(2) . .
O46 Ni3 O51 89.1(3) . .
O50 Ni3 Ni1 86.0(2) . .
O50 Ni3 Ni2 134.4(3) . .
O50 Ni3 Ni4 37.7(2) . .
O50 Ni3 Ni5 38.2(2) . .
O50 Ni3 O45 169.5(3) . .
O50 Ni3 O46 82.9(3) . .
O50 Ni3 O51 82.0(3) . .
O50 Ni3 O59 92.7(3) . .
O50 Ni3 O60 100.4(3) . .
O51 Ni3 Ni1 44.1(2) . .
O51 Ni3 Ni2 93.1(2) . .
O51 Ni3 Ni4 88.1(2) . .
O51 Ni3 Ni5 43.9(2) . .
O59 Ni3 Ni1 38.0(2) . .
O59 Ni3 Ni2 41.9(2) . .
O59 Ni3 Ni4 130.4(2) . .
O59 Ni3 Ni5 86.0(2) . .
O59 Ni3 O45 85.5(3) . .
O59 Ni3 O46 170.7(3) . .
O59 Ni3 O51 82.1(3) . .
O59 Ni3 O60 93.2(4) . .
O60 Ni3 Ni1 131.2(3) . .
O60 Ni3 Ni2 82.0(3) . .
O60 Ni3 Ni4 96.6(2) . .
O60 Ni3 Ni5 138.3(3) . .
O60 Ni3 O45 90.0(3) . .
O60 Ni3 O46 95.7(4) . .
O60 Ni3 O51 174.8(3) . .
Ni5 Ni4 Ni3 62.30(5) . .
O46 Ni4 Ni3 41.9(2) . .
O46 Ni4 Ni5 88.3(2) . .
O47 Ni4 Ni3 85.8(2) . .
O47 Ni4 Ni5 43.6(2) . .
O47 Ni4 O46 82.7(3) . .
O50 Ni4 Ni3 37.7(2) . .
O50 Ni4 Ni5 42.9(2) . .
O50 Ni4 O46 79.3(3) . .
O50 Ni4 O47 84.4(3) . .
O50 Ni4 O53 91.0(3) . .
O50 Ni4 N3 177.8(4) . .
O50 Ni4 N4 94.0(4) . .
O53 Ni4 Ni3 128.7(2) . .
O53 Ni4 Ni5 78.1(2) . .
O53 Ni4 O46 166.4(3) . .
O53 Ni4 O47 86.9(3) . .
N3 Ni4 Ni3 140.4(3) . .
N3 Ni4 Ni5 138.6(3) . .
N3 Ni4 O46 99.0(4) . .
N3 Ni4 O47 96.7(4) . .
N3 Ni4 O53 90.9(4) . .
N4 Ni4 Ni3 88.9(3) . .
N4 Ni4 Ni5 136.2(3) . .
N4 Ni4 O46 90.4(4) . .
N4 Ni4 O47 173.1(4) . .
N4 Ni4 O53 99.8(4) . .
N4 Ni4 N3 84.7(4) . .
Ni1 Ni5 Ni3 59.96(5) . .
Ni1 Ni5 Ni6 56.90(5) . .
Ni4 Ni5 Ni1 121.83(6) . .
Ni4 Ni5 Ni3 62.03(5) . .
Ni4 Ni5 Ni6 171.26(8) . .
Ni6 Ni5 Ni3 116.65(6) . .
O47 Ni5 Ni1 132.5(2) . .
O47 Ni5 Ni3 86.4(2) . .
O47 Ni5 Ni4 45.0(2) . .
O47 Ni5 Ni6 143.1(2) . .
O47 Ni5 O48 97.8(3) . .
O47 Ni5 O51 88.1(3) . .
O48 Ni5 Ni1 86.5(2) . .
O48 Ni5 Ni3 135.0(2) . .
O48 Ni5 Ni4 142.2(2) . .
O48 Ni5 Ni6 45.4(2) . .
O48 Ni5 O51 90.6(3) . .
O49 Ni5 Ni1 39.5(3) . .
O49 Ni5 Ni3 87.1(2) . .
O49 Ni5 Ni4 134.4(2) . .
O49 Ni5 Ni6 38.3(2) . .
O49 Ni5 O47 171.9(4) . .
O49 Ni5 O48 83.4(3) . .
O49 Ni5 O50 92.6(3) . .
O49 Ni5 O51 83.9(3) . .
O49 Ni5 O52 97.6(4) . .
O50 Ni5 Ni1 86.2(2) . .
O50 Ni5 Ni3 37.7(2) . .
O50 Ni5 Ni4 42.3(2) . .
O50 Ni5 Ni6 130.9(2) . .
O50 Ni5 O47 85.2(3) . .
O50 Ni5 O48 172.2(3) . .
O50 Ni5 O51 82.4(3) . .
O50 Ni5 O52 94.4(3) . .
O51 Ni5 Ni1 44.4(2) . .
O51 Ni5 Ni3 44.7(2) . .
O51 Ni5 Ni4 94.1(2) . .
O51 Ni5 Ni6 89.8(2) . .
O52 Ni5 Ni1 137.0(3) . .
O52 Ni5 Ni3 132.1(2) . .
O52 Ni5 Ni4 82.6(2) . .
O52 Ni5 Ni6 93.4(2) . .
O52 Ni5 O47 90.3(3) . .
O52 Ni5 O48 92.8(3) . .
O52 Ni5 O51 176.4(3) . .
Ni1 Ni6 Ni5 61.29(5) . .
O43 Ni6 Ni1 43.5(2) . .
O43 Ni6 Ni5 84.7(2) . .
O43 Ni6 O48 82.1(3) . .
O43 Ni6 O57 85.1(3) . 8_465
O48 Ni6 Ni1 87.8(2) . .
O48 Ni6 Ni5 42.0(2) . .
O49 Ni6 Ni1 42.6(2) . .
O49 Ni6 Ni5 38.2(2) . .
O49 Ni6 O43 84.3(3) . .
O49 Ni6 O48 80.0(3) . .
O49 Ni6 O57 92.5(3) . 8_465
O49 Ni6 N1 92.4(4) . .
O49 Ni6 N2 172.9(4) . .
O57 Ni6 Ni1 78.6(2) 8_465 .
O57 Ni6 Ni5 130.5(2) 8_465 .
O57 Ni6 O48 165.7(3) 8_465 .
N1 Ni6 Ni1 134.4(3) . .
N1 Ni6 Ni5 88.7(3) . .
N1 Ni6 O43 172.9(4) . .
N1 Ni6 O48 91.2(4) . .
N1 Ni6 O57 101.3(5) . 8_465
N1 Ni6 N2 82.8(4) . .
N2 Ni6 Ni1 142.7(3) . .
N2 Ni6 Ni5 135.9(3) . .
N2 Ni6 O43 99.9(4) . .
N2 Ni6 O48 94.8(4) . .
N2 Ni6 O57 93.6(4) . 8_465
O54 S1 O56 110.7(8) . .
O54 S1 C4 107.1(7) . .
O55 S1 O54 116.2(9) . .
O55 S1 O56 112.0(10) . .
O55 S1 C4 106.1(7) . .
O56 S1 C4 103.8(7) . .
O62 S2 O63 113.4(8) . .
O62 S2 O63 113.4(8) . 6_565
O62 S2 C13 105.4(11) . .
O63 S2 O63 111.0(14) . 6_565
O63 S2 C13 106.5(7) . .
O63 S2 C13 106.5(7) 6_565 .
O34 P2 O27 108.7(5) . .
O35 P2 O27 108.6(4) . .
O35 P2 O34 108.6(4) . .
O51 P2 O27 110.4(5) . .
O51 P2 O34 110.0(5) . .
O51 P2 O35 110.5(5) . .
W8 O26 W9 148.1(5) . .
W9 O27 W10 89.5(2) . .
W9 O27 W11 89.2(3) . .
W10 O27 W11 89.1(2) . .
P2 O27 W9 124.8(4) . .
P2 O27 W10 125.3(5) . .
P2 O27 W11 127.3(4) . .
W10 O28 W9 123.8(4) . .
W11 O29 W10 126.2(5) . .
W11 O30 W9 125.3(5) . .
W12 O31 W11 153.4(5) . .
W12 O32 W8 126.0(5) . .
W12 O33 W13 126.0(5) . .
W8 O34 W12 89.0(3) . .
W13 O34 W8 89.3(2) . .
W13 O34 W12 89.6(3) . .
P2 O34 W8 125.5(4) . .
P2 O34 W12 126.1(4) . .
P2 O34 W13 125.6(5) . .
W14 O35 W15 89.9(3) . .
W14 O35 W16 89.3(3) . .
W16 O35 W15 89.2(2) . .
P2 O35 W14 125.4(4) . .
P2 O35 W15 126.8(5) . .
P2 O35 W16 124.8(4) . .
W14 O36 W13 147.6(5) . .
W15 O37 W14 125.9(4) . .
W15 O38 W12 152.2(5) . .
W11 O39 W15 151.5(5) . .
W15 O40 W16 125.9(4) . .
W16 O41 W10 147.7(5) . .
W14 O42 W16 124.9(4) . .
W16 O43 Ni1 136.5(4) . .
W16 O43 Ni6 130.5(4) . .
Ni1 O43 Ni6 91.9(3) . .
W14 O44 Ni1 132.3(4) . .
W14 O44 Ni2 129.3(4) . .
Ni1 O44 Ni2 93.8(3) . .
W13 O45 Ni2 131.6(4) . .
W13 O45 Ni3 136.2(5) . .
Ni3 O45 Ni2 90.8(4) . .
W8 O46 Ni3 133.1(4) . .
W8 O46 Ni4 129.4(4) . .
Ni3 O46 Ni4 92.6(3) . .
W9 O47 Ni4 130.8(4) . .
W9 O47 Ni5 136.7(4) . .
Ni5 O47 Ni4 91.4(3) . .
W10 O48 Ni5 132.0(5) . .
W10 O48 Ni6 130.5(4) . .
Ni5 O48 Ni6 92.6(3) . .
Ni5 O49 Ni1 101.7(4) . .
Ni5 O49 Ni6 103.4(4) . .
Ni6 O49 Ni1 95.5(3) . .
Ni3 O50 Ni5 104.1(4) . .
Ni4 O50 Ni3 104.6(4) . .
Ni4 O50 Ni5 94.8(3) . .
Ni1 O51 Ni3 90.8(3) . .
Ni1 O51 Ni5 91.0(3) . .
Ni5 O51 Ni3 91.5(3) . .
P2 O51 Ni1 124.6(5) . .
P2 O51 Ni3 124.7(4) . .
P2 O51 Ni5 124.2(5) . .
C1 O52 Ni5 124.6(8) . .
C1 O53 Ni4 128.3(8) . .
C8 O57 Ni6 123.8(8) . 8_565
C8 O58 Ni1 122.3(8) . 8_565
Ni1 O59 Ni2 103.4(4) . .
Ni1 O59 Ni3 103.2(4) . .
Ni2 O59 Ni3 95.5(3) . .
C9 O60 Ni3 124.3(8) . .
C9 O61 Ni2 127.7(8) . .
W8 O67 W13 123.9(4) . .
C14 N1 Ni6 106.5(10) . .
C15 N2 Ni6 109.7(9) . .
C17 N3 Ni4 105.3(8) . .
C18 N4 Ni4 108.3(8) . .
C23 N5 Ni2 108.9(12) . .
C24 N6 Ni2 107.9(12) . .
O52 C1 C2 116.5(11) . .
O53 C1 O52 125.6(11) . .
O53 C1 C2 117.9(11) . .
C3 C2 C1 122.0(12) . .
C7 C2 C1 118.5(11) . .
C7 C2 C3 119.1(12) . .
C4 C3 C2 119.7(12) . .
C3 C4 S1 117.6(10) . .
C5 C4 S1 120.7(10) . .
C5 C4 C3 121.7(12) . .
C4 C5 C6 119.0(12) . .
C5 C6 C7 120.3(11) . .
C5 C6 C8 121.8(11) . .
C7 C6 C8 117.6(11) . .
C2 C7 C6 120.1(11) . .
O57 C8 C6 116.2(12) . .
O58 C8 O57 127.7(11) . .
O58 C8 C6 116.1(11) . .
O60 C9 C11 116.1(11) . .
O61 C9 O60 127.6(12) . .
O61 C9 C11 116.3(11) . .
C11 C10 C11 122.3(15) . 6_565
C10 C11 C9 120.2(12) . .
C10 C11 C12 118.9(11) . .
C12 C11 C9 120.9(11) . .
C13 C12 C11 118.4(12) . .
C12 C13 S2 118.6(9) . .
C12 C13 S2 118.6(9) 6_565 .
C12 C13 C12 122.7(17) . 6_565
C15 C14 N1 111.1(15) . .
N2 C15 C16 114.6(14) . .
C14 C15 N2 111.2(13) . .
C14 C15 C16 115.2(15) . .
N3 C17 C18 108.1(11) . .
N4 C18 C17 106.6(11) . .
C19 C18 N4 115.2(14) . .
C19 C18 C17 112.6(14) . .
C24 C23 N5 111.7(17) . .
C23 C24 N6 109.0(18) . .
C23 C24 C25 118(2) . .
C25 C24 N6 120(2) . .
N7 Ni7 N7 74.7(14) . 6_565
N7 Ni7 N74 87.7(7) 6_565 6_565
N7 Ni7 N74 64.0(12) 6_565 .
N7 Ni7 N74 87.7(7) . .
N7 Ni7 N74 64.0(12) . 6_565
N7 Ni7 N75 36.9(12) . 6_565
N7 Ni7 N75 93.4(8) . .
N7 Ni7 N75 93.4(8) 6_565 6_565
N7 Ni7 N75 36.9(12) 6_565 .
N8 Ni7 N7 105.2(14) . 6_565
N8 Ni7 N7 180.0(5) . .
N8 Ni7 N7 180.0(3) 6_565 6_565
N8 Ni7 N7 105.2(14) 6_565 .
N8 Ni7 N8 74.8(14) . 6_565
N8 Ni7 N74 92.3(7) 6_565 6_565
N8 Ni7 N74 116.0(12) 6_565 .
N8 Ni7 N74 92.3(7) . .
N8 Ni7 N74 116.0(12) . 6_565
N8 Ni7 N75 143.1(12) . 6_565
N8 Ni7 N75 143.1(12) 6_565 .
N8 Ni7 N75 86.5(8) . .
N8 Ni7 N75 86.5(8) 6_565 6_565
N74 Ni7 N74 38(2) 6_565 .
N74 Ni7 N75 124.6(13) . 6_565
N74 Ni7 N75 124.6(13) 6_565 .
N74 Ni7 N75 95.9(17) 6_565 6_565
N74 Ni7 N75 95.9(17) . .
N75 Ni7 N75 90(2) . 6_565
C45 N7 Ni7 105.0(12) . .
C49 N8 Ni7 106.9(14) . .
C46 N74 Ni7 106.4(13) . .
C48 N75 Ni7 104.4(14) . .
N74 C46 C47 126.0(18) . .
N74 C46 C45 107.5(17) . .
C47 C46 C45 117.8(13) . .
C46 C45 N7 116.9(19) . .
N75 C48 C49 109(3) . .
N8 C49 C50 119(4) . .
N8 C49 C48 116.9(18) . .
C48 C49 C50 114.7(16) . .
O76 Ni8 O77 85.3(5) . .
N9 Ni8 O76 88.4(5) . .
N9 Ni8 O77 171.8(6) . .
N9 Ni8 N11 98.3(5) . .
N10 Ni8 O76 90.8(6) . .
N10 Ni8 O77 92.0(6) . .
N10 Ni8 N9 82.7(5) . .
N10 Ni8 N11 176.1(6) . .
N11 Ni8 O76 93.0(6) . .
N11 Ni8 O77 87.4(6) . .
N12 Ni8 O76 174.9(5) . .
N12 Ni8 O77 92.0(5) . .
N12 Ni8 N9 94.6(5) . .
N12 Ni8 N10 93.6(5) . .
N12 Ni8 N11 82.5(5) . .
C26 N9 Ni8 108.8(10) . .
C27 N10 Ni8 109.3(9) . .
C20 N11 Ni8 108.8(9) . .
C21 N12 Ni8 108.4(9) . .
N11 C20 C21 107.7(13) . .
N12 C21 C20 108.5(13) . .
N12 C21 C22 112.9(13) . .
C22 C21 C20 111.3(13) . .
N9 C26 C27 109.9(14) . .
N10 C27 C26 107.2(13) . .
N10 C27 C28 112.2(14) . .
C28 C27 C26 112.4(15) . .
N13 Ni9 N15 93.7(5) . .
N13 Ni9 N16 175.6(5) . .
N14 Ni9 N13 85.7(5) . .
N14 Ni9 N15 178.5(6) . .
N14 Ni9 N16 92.1(5) . .
N16 Ni9 N15 88.6(5) . .
C32 N13 Ni9 112.9(9) . .
C33 N14 Ni9 113.2(10) . .
C29 N15 Ni9 111.5(9) . .
C30 N16 Ni9 110.1(8) . .
C30 C29 N15 112.0(12) . .
N16 C30 C31 117.6(13) . .
C29 C30 N16 113.2(13) . .
C29 C30 C31 123.1(14) . .
C33 C32 N13 110.9(13) . .
C32 C33 N14 107.4(14) . .
C32 C33 C34 117.6(17) . .
C34 C33 N14 114.1(17) . .
N17 Ni10 N17 81.3(12) 6_565 .
N17 Ni10 N18 7.6(12) 6_565 .
N17 Ni10 N18 88.9(7) . .
N17 Ni10 N18 88.9(7) 6_565 6_565
N17 Ni10 N18 7.6(12) . 6_565
N17 Ni10 N20 169.8(10) . 6_565
N17 Ni10 N20 88.6(10) 6_565 6_565
N17 Ni10 N20 88.6(10) . .
N17 Ni10 N20 169.8(10) 6_565 .
N18 Ni10 N18 96.5(16) . 6_565
N19 Ni10 N17 179.0(9) 6_565 6_565
N19 Ni10 N17 99.7(10) 6_565 .
N19 Ni10 N17 179.0(9) . .
N19 Ni10 N17 99.7(10) . 6_565
N19 Ni10 N18 171.4(11) 6_565 .
N19 Ni10 N18 171.4(11) . 6_565
N19 Ni10 N18 92.1(11) . .
N19 Ni10 N18 92.1(11) 6_565 6_565
N19 Ni10 N19 79.4(14) 6_565 .
N19 Ni10 N20 11.1(13) . 6_565
N19 Ni10 N20 11.1(13) 6_565 .
N19 Ni10 N20 90.5(7) . .
N19 Ni10 N20 90.5(7) 6_565 6_565
N20 Ni10 N18 81.0(11) 6_565 .
N20 Ni10 N18 177.5(12) . .
N20 Ni10 N18 177.5(12) 6_565 6_565
N20 Ni10 N18 81.0(11) . 6_565
N20 Ni10 N20 101.5(16) . 6_565
C35 N17 Ni10 106.6(11) . .
C36 N18 Ni10 105.4(13) . .
C39 N19 Ni10 107.8(13) . .
C38 N20 Ni10 107.2(14) . .
C36 C35 N17 105.4(15) . .
C37 C35 N17 115.5(12) . .
C37 C35 C36 115.5(13) . .
C35 C36 N18 104.7(17) . .
C39 C38 N20 109.3(18) . .
C38 C39 N19 112.7(18) . .
C40 C39 N19 115.2(16) . .
C40 C39 C38 115.6(17) . .
W7 Ni2A Ni2A 90.0(2) . 6_575
O1 Ni2A W7 82.0(4) . .
O1 Ni2A Ni2A 47.8(3) . 6_575
O2 Ni2A W7 142.0(5) . .
O2 Ni2A O1 64.8(5) . .
O2 Ni2A Ni2A 81.4(4) . 6_575
O3 Ni2A W7 109.9(7) . .
O3 Ni2A O1 71.7(7) . .
O3 Ni2A O2 78.0(9) . .
O3 Ni2A O4 146.6(10) . .
O3 Ni2A Ni2A 27.9(6) . 6_575
O4 Ni2A W7 79.9(4) . .
O4 Ni2A O1 78.6(5) . .
O4 Ni2A O2 75.9(6) . .
O4 Ni2A Ni2A 126.3(4) . 6_575
O14 Ni2A W7 13.6(5) . .
O14 Ni2A O1 90.3(7) . .
O14 Ni2A O2 153.8(8) . .
O14 Ni2A O3 102.7(10) . .
O14 Ni2A O4 92.1(7) . .
O14 Ni2A O23 121.1(10) . .
O14 Ni2A Ni2A 87.6(6) . 6_575
O23 Ni2A W7 128.3(8) . .
O23 Ni2A O1 148.6(9) . .
O23 Ni2A O2 83.9(8) . .
O23 Ni2A O3 100.2(9) . .
O23 Ni2A O4 97.2(8) . .
O23 Ni2A Ni2A 128.0(6) . 6_575
O2 Ni1A O1 72.9(12) . .
O2 Ni1A O1 72.9(12) 6_575 .
O2 Ni1A O2 80.4(14) . 6_575
O6 Ni1A O1 88.7(12) . .
O6 Ni1A O1 88.7(12) 6_575 .
O6 Ni1A O2 161(2) 6_575 .
O6 Ni1A O2 88.7(7) 6_575 6_575
O6 Ni1A O2 161(2) . 6_575
O6 Ni1A O2 88.7(7) . .
O6 Ni1A O6 97.0(15) 6_575 .
O6 Ni1A O24 106.9(16) 6_575 .
O6 Ni1A O24 106.9(16) . .
O24 Ni1A O1 155.9(18) . .
O24 Ni1A O2 88.9(11) . 6_575
O24 Ni1A O2 88.9(11) . .
loop_
_geom_bond_atom_site_label_1
_geom_bond_atom_site_label_2
_geom_bond_distance
_geom_bond_site_symmetry_2
W1 W2 3.197(3) .
W1 W2 3.197(3) 6_575
W1 O1 2.377(15) .
W1 O2 1.806(14) .
W1 O2 1.806(14) 6_575
W1 O6 2.053(13) 6_575
W1 O6 2.053(13) .
W1 O24 1.81(2) .
W2 O1 2.413(10) .
W2 O2 1.850(14) .
W2 O3 1.968(10) .
W2 O4 1.959(10) .
W2 O14 2.095(14) .
W2 O23 1.772(13) .
W3 O4 1.821(10) .
W3 O5 2.423(8) .
W3 O8 1.925(10) .
W3 O10 1.953(10) .
W3 O15 1.909(10) .
W3 O22 1.714(9) .
W4 O5 2.443(9) .
W4 O6 1.826(12) .
W4 O7 1.909(5) .
W4 O8 1.949(10) .
W4 O9 1.942(10) .
W4 O21 1.699(11) .
W5 O5 2.474(9) .
W5 O9 1.912(9) .
W5 O10 1.893(9) .
W5 O11 1.915(3) .
W5 O12 1.903(9) .
W5 O20 1.696(10) .
W6 O12 1.905(9) .
W6 O12 1.906(9) 6_575
W6 O13 1.938(11) .
W6 O13 1.938(11) 6_575
W6 O16 2.492(13) .
W6 O19 1.715(15) .
W7 O13 1.931(12) .
W7 O14 1.844(13) .
W7 O15 1.910(9) .
W7 O16 2.418(9) .
W7 O17 1.921(7) .
W7 O18 1.708(10) .
W7 Ni2A 3.315(12) .
P1 O1 1.528(14) .
P1 O5 1.519(9) 6_575
P1 O5 1.519(9) .
P1 O16 1.531(14) .
Na1 O24 1.82(2) .
Na1 O25 1.899(10) .
Na1 O25A 1.909(10) .
O1 Ni2A 2.543(16) .
O1 Ni2A 2.543(16) 6_575
O1 Ni1A 2.37(4) .
O2 Ni2A 2.422(19) .
O2 Ni1A 2.09(3) .
O3 Ni2A 1.934(14) .
O3 Ni2A 1.934(14) 6_575
O4 Ni2A 2.069(16) .
O6 Ni1A 1.75(2) .
O14 Ni2A 1.551(17) .
O23 Ni2A 1.793(17) .
O24 Ni1A 1.90(4) .
W8 O26 1.908(9) .
W8 O32 2.012(9) .
W8 O34 2.453(8) .
W8 O46 1.798(9) .
W8 O67 1.929(9) .
W8 O73 1.707(9) .
W9 O26 1.914(8) .
W9 O27 2.408(8) .
W9 O28 1.956(8) .
W9 O30 1.973(9) .
W9 O47 1.804(9) .
W9 O72 1.709(8) .
W10 O27 2.442(8) .
W10 O28 1.913(8) .
W10 O29 2.007(10) .
W10 O41 1.922(8) .
W10 O48 1.798(9) .
W10 O71 1.706(8) .
W11 O27 2.479(8) .
W11 O29 1.866(9) .
W11 O30 1.892(9) .
W11 O31 1.933(9) .
W11 O39 1.905(9) .
W11 O70 1.712(9) .
W12 O31 1.888(9) .
W12 O32 1.879(9) .
W12 O33 1.901(9) .
W12 O34 2.494(8) .
W12 O38 1.931(9) .
W12 O69 1.726(9) .
W13 O33 1.977(9) .
W13 O34 2.407(8) .
W13 O36 1.918(8) .
W13 O45 1.800(9) .
W13 O67 1.942(9) .
W13 O68 1.717(8) .
W14 O35 2.423(8) .
W14 O36 1.913(9) .
W14 O37 2.009(10) .
W14 O42 1.933(8) .
W14 O44 1.815(9) .
W14 O66 1.715(8) .
W15 O35 2.470(8) .
W15 O37 1.873(9) .
W15 O38 1.897(9) .
W15 O39 1.928(9) .
W15 O40 1.921(9) .
W15 O65 1.697(9) .
W16 O35 2.466(8) .
W16 O40 1.968(9) .
W16 O41 1.913(8) .
W16 O42 1.942(8) .
W16 O43 1.812(9) .
W16 O64 1.696(9) .
Ni1 Ni2 3.111(2) .
Ni1 Ni3 3.124(2) .
Ni1 Ni5 3.106(2) .
Ni1 Ni6 2.966(2) .
Ni1 O43 2.044(8) .
Ni1 O44 2.059(9) .
Ni1 O49 2.018(9) .
Ni1 O51 2.174(8) .
Ni1 O58 2.040(9) 8_465
Ni1 O59 1.976(8) .
Ni2 Ni3 2.960(2) .
Ni2 O44 2.199(8) .
Ni2 O45 2.112(9) .
Ni2 O59 1.987(8) .
Ni2 O61 2.060(9) .
Ni2 N5 2.067(12) .
Ni2 N6 2.042(15) .
Ni3 Ni4 3.138(2) .
Ni3 Ni5 3.146(2) .
Ni3 O45 2.046(9) .
Ni3 O46 2.097(9) .
Ni3 O50 1.984(8) .
Ni3 O51 2.212(8) .
Ni3 O59 2.010(8) .
Ni3 O60 2.010(8) .
Ni4 Ni5 2.934(2) .
Ni4 O46 2.243(8) .
Ni4 O47 2.076(8) .
Ni4 O50 1.982(8) .
Ni4 O53 2.066(9) .
Ni4 N3 2.060(11) .
Ni4 N4 2.054(11) .
Ni5 Ni6 3.121(2) .
Ni5 O47 2.023(9) .
Ni5 O48 2.091(8) .
Ni5 O49 1.986(9) .
Ni5 O50 2.004(8) .
Ni5 O51 2.181(8) .
Ni5 O52 2.016(8) .
Ni6 O43 2.082(8) .
Ni6 O48 2.224(9) .
Ni6 O49 1.989(8) .
Ni6 O57 2.090(9) 8_465
Ni6 N1 2.062(11) .
Ni6 N2 2.078(10) .
S1 O54 1.438(11) .
S1 O55 1.402(13) .
S1 O56 1.479(13) .
S1 C4 1.775(12) .
S2 O62 1.388(19) .
S2 O63 1.439(13) 6_565
S2 O63 1.439(13) .
S2 C13 1.793(18) .
P2 O27 1.553(8) .
P2 O34 1.537(8) .
P2 O35 1.530(8) .
P2 O51 1.529(9) .
O52 C1 1.272(14) .
O53 C1 1.256(15) .
O57 C8 1.283(15) .
O58 C8 1.240(15) .
O60 C9 1.266(15) .
O61 C9 1.242(16) .
N1 C14 1.48(2) .
N2 C15 1.453(17) .
N3 C17 1.495(17) .
N4 C18 1.508(19) .
N5 C23 1.47(2) .
N6 C24 1.52(3) .
C1 C2 1.500(17) .
C2 C3 1.399(19) .
C2 C7 1.394(17) .
C3 C4 1.382(19) .
C4 C5 1.377(18) .
C5 C6 1.390(17) .
C6 C7 1.398(16) .
C6 C8 1.505(16) .
C9 C11 1.504(17) .
C10 C11 1.381(15) .
C10 C11 1.381(15) 6_565
C11 C12 1.401(18) .
C12 C13 1.381(14) .
C14 C15 1.45(2) .
C15 C16 1.50(2) .
C17 C18 1.514(19) .
C18 C19 1.47(2) .
C23 C24 1.45(3) .
C24 C25 1.45(3) .
Ni7 N7 2.006(17) .
Ni7 N7 2.006(17) 6_565
Ni7 N8 2.000(17) .
Ni7 N8 2.000(18) 6_565
Ni7 N74 2.041(17) .
Ni7 N74 2.041(17) 6_565
Ni7 N75 2.046(18) .
Ni7 N75 2.046(18) 6_565
N7 C45 1.483(10) .
N8 C49 1.478(10) .
N74 C46 1.476(10) .
N75 C48 1.479(10) .
C50 C49 1.486(10) .
C47 C46 1.482(10) .
C46 C45 1.483(10) .
C48 C49 1.482(10) .
Ni8 O76 2.126(13) .
Ni8 O77 2.142(13) .
Ni8 N9 2.101(13) .
Ni8 N10 2.097(13) .
Ni8 N11 2.114(14) .
Ni8 N12 2.093(13) .
N9 C26 1.47(2) .
N10 C27 1.51(2) .
N11 C20 1.50(2) .
N12 C21 1.480(19) .
C20 C21 1.53(2) .
C21 C22 1.51(2) .
C26 C27 1.53(2) .
C27 C28 1.52(2) .
Ni9 N13 1.895(12) .
Ni9 N14 1.887(14) .
Ni9 N15 1.905(12) .
Ni9 N16 1.898(11) .
N13 C32 1.493(9) .
N14 C33 1.488(10) .
N15 C29 1.486(9) .
N16 C30 1.477(9) .
C29 C30 1.471(10) .
C30 C31 1.482(9) .
C32 C33 1.475(10) .
C33 C34 1.483(10) .
Ni10 N17 1.919(15) 6_565
Ni10 N17 1.919(15) .
Ni10 N18 1.927(18) 6_565
Ni10 N18 1.927(18) .
Ni10 N19 1.911(17) .
Ni10 N19 1.911(17) 6_565
Ni10 N20 1.922(18) .
Ni10 N20 1.922(18) 6_565
N17 C35 1.517(13) .
N18 C36 1.516(14) .
N19 C39 1.496(14) .
N20 C38 1.501(14) .
C35 C36 1.505(13) .
C35 C37 1.489(10) .
C38 C39 1.486(14) .
C39 C40 1.476(10) .
Ni2A Ni2A 3.42(2) 6_575
loop_
_geom_torsion_atom_site_label_1
_geom_torsion_atom_site_label_2
_geom_torsion_atom_site_label_3
_geom_torsion_atom_site_label_4
_geom_torsion
_geom_torsion_site_symmetry_1
_geom_torsion_site_symmetry_4
W2 W1 O2 W2 41.5(8) 6_575 .
W2 W1 O24 Na1 135.5(5) . .
W2 W1 O24 Na1 -135.5(5) 6_575 .
W4 O6 Ni1A O1 65(2) . .
W4 O6 Ni1A O2 137.9(17) . .
W4 O6 Ni1A O2 83(4) . 6_575
W4 O6 Ni1A O6 -24(4) . 6_575
W4 O6 Ni1A O24 -133.7(17) . .
W7 O14 Ni2A O1 52(2) . .
W7 O14 Ni2A O2 35(3) . .
W7 O14 Ni2A O3 123.7(18) . .
W7 O14 Ni2A O4 -26(2) . .
W7 O14 Ni2A O23 -125.9(18) . .
W7 O14 Ni2A Ni2A 100.1(19) . 6_575
O1 W1 O2 W2 -7.0(7) . .
O1 W2 O2 W1 7.0(7) . .
O1 P1 O5 W3 60.2(9) . .
O1 P1 O5 W4 -59.7(8) . .
O1 P1 O5 W5 -178.9(7) . .
O1 P1 O16 W6 180.000(2) . .
O1 P1 O16 W7 60.9(6) . 6_575
O1 P1 O16 W7 -60.9(6) . .
O2 W1 O2 W2 68.9(10) 6_575 .
O2 W1 O24 Na1 130.4(5) . .
O2 W1 O24 Na1 -130.4(5) 6_575 .
O3 W2 O2 W1 -66.0(9) . .
O4 W2 O2 W1 89.8(8) . .
O5 W3 O4 W2 48.5(15) . .
O5 W3 O4 Ni2A 68.8(11) . .
O5 W4 O6 W1 -50.7(16) . .
O5 W4 O6 Ni1A -61(3) . .
O5 W5 O10 W3 -3.0(5) . .
O5 P1 O1 W1 60.3(5) . .
O5 P1 O1 W1 -60.3(5) 6_575 .
O5 P1 O1 W2 -177.6(7) 6_575 .
O5 P1 O1 W2 177.6(7) . 6_575
O5 P1 O1 W2 -56.9(11) . .
O5 P1 O1 W2 57.0(11) 6_575 6_575
O5 P1 O1 Ni2A -69.2(9) . .
O5 P1 O1 Ni2A 69.2(9) 6_575 6_575
O5 P1 O1 Ni2A -170.1(6) . 6_575
O5 P1 O1 Ni2A 170.1(6) 6_575 .
O5 P1 O1 Ni1A -60.3(5) 6_575 .
O5 P1 O1 Ni1A 60.3(5) . .
O5 P1 O5 W3 -179.40(13) 6_575 .
O5 P1 O5 W4 60.7(9) 6_575 .
O5 P1 O5 W5 -58.5(9) 6_575 .
O5 P1 O16 W6 -60.1(4) . .
O5 P1 O16 W6 60.1(4) 6_575 .
O5 P1 O16 W7 179.2(6) 6_575 .
O5 P1 O16 W7 -59.0(9) 6_575 6_575
O5 P1 O16 W7 59.0(9) . .
O5 P1 O16 W7 -179.2(6) . 6_575
O6 W1 O2 W2 -33(2) 6_575 .
O6 W1 O2 W2 -89.3(8) . .
O6 W1 O24 Na1 40.3(3) . .
O6 W1 O24 Na1 -40.3(3) 6_575 .
O7 W4 O6 W1 34.3(16) . .
O7 W4 O6 Ni1A 24(3) . .
O8 W3 O4 W2 121.7(15) . .
O8 W3 O4 Ni2A 142.0(11) . .
O8 W4 O6 W1 -123.0(16) . .
O8 W4 O6 Ni1A -134(3) . .
O9 W4 O6 W1 -43(2) . .
O9 W4 O6 Ni1A -54(3) . .
O9 W5 O10 W3 69.0(6) . .
O10 W3 O4 W2 43(2) . .
O10 W3 O4 Ni2A 63.8(17) . .
O11 W5 O10 W3 -11.2(15) . .
O12 W5 O10 W3 -86.1(6) . .
O13 W7 O14 W2 -44(2) . .
O13 W7 O14 Ni2A -47(3) . .
O14 W2 O2 W1 16(2) . .
O15 W3 O4 W2 -36.0(15) . .
O15 W3 O4 Ni2A -15.7(11) . .
O15 W7 O14 W2 33.2(11) . .
O15 W7 O14 Ni2A 29.5(19) . .
O16 W7 O14 W2 -51.6(11) . .
O16 W7 O14 Ni2A -55.2(19) . .
O16 P1 O1 W1 180.000(2) . .
O16 P1 O1 W2 62.7(8) . .
O16 P1 O1 W2 -62.7(8) . 6_575
O16 P1 O1 Ni2A -50.4(6) . 6_575
O16 P1 O1 Ni2A 50.4(6) . .
O16 P1 O1 Ni1A 180.000(5) . .
O16 P1 O5 W3 -59.7(8) . .
O16 P1 O5 W4 -179.5(6) . .
O16 P1 O5 W5 61.3(8) . .
O17 W7 O14 W2 -123.4(12) . .
O17 W7 O14 Ni2A -127(2) . .
O18 W7 O14 W2 135.4(11) . .
O18 W7 O14 Ni2A 131.8(19) . .
O20 W5 O10 W3 170.8(6) . .
O21 W4 O6 W1 137.1(16) . .
O21 W4 O6 Ni1A 127(3) . .
O22 W3 O4 W2 -137.5(15) . .
O22 W3 O4 Ni2A -117.2(11) . .
O23 W2 O2 W1 -166.8(8) . .
O24 W1 O2 W2 172.1(9) . .
O25 Na1 O24 W1 122(2) . .
Ni1 O58 C8 O57 -31.6(19) 8_565 .
Ni1 O58 C8 C6 146.5(9) 8_565 .
Ni2 O61 C9 O60 -7(2) . .
Ni2 O61 C9 C11 171.2(9) . .
Ni2 N5 C23 C24 -33(2) . .
Ni2 N6 C24 C23 -40(2) . .
Ni2 N6 C24 C25 180(2) . .
Ni3 O60 C9 O61 9(2) . .
Ni3 O60 C9 C11 -169.8(9) . .
Ni4 O53 C1 O52 -12(2) . .
Ni4 O53 C1 C2 164.7(9) . .
Ni4 N3 C17 C18 -47.3(13) . .
Ni4 N4 C18 C17 -37.6(14) . .
Ni4 N4 C18 C19 -163.3(13) . .
Ni5 O52 C1 O53 11(2) . .
Ni5 O52 C1 C2 -165.6(9) . .
Ni6 O57 C8 O58 28.4(19) 8_565 .
Ni6 O57 C8 C6 -149.7(9) 8_565 .
Ni6 N1 C14 C15 -42.5(19) . .
Ni6 N2 C15 C14 -28.0(19) . .
Ni6 N2 C15 C16 -160.9(14) . .
S1 C4 C5 C6 -179.4(10) . .
O26 W8 O46 Ni3 -113.7(6) . .
O26 W8 O46 Ni4 34.0(5) . .
O26 W9 O47 Ni4 -45.9(6) . .
O26 W9 O47 Ni5 118.2(6) . .
O27 W9 O47 Ni4 -130.4(6) . .
O27 W9 O47 Ni5 33.7(6) . .
O27 W10 O48 Ni5 -30.6(5) . .
O27 W10 O48 Ni6 117.5(5) . .
O27 W11 O29 W10 -3.6(4) . .
O27 W11 O30 W9 5.2(4) . .
O27 P2 O34 W8 -62.0(6) . .
O27 P2 O34 W12 57.5(6) . .
O27 P2 O34 W13 178.4(5) . .
O27 P2 O35 W14 179.3(5) . .
O27 P2 O35 W15 -58.8(6) . .
O27 P2 O35 W16 61.0(6) . .
O27 P2 O51 Ni1 -119.1(5) . .
O27 P2 O51 Ni3 121.0(5) . .
O27 P2 O51 Ni5 0.5(7) . .
O28 W9 O47 Ni4 156.4(6) . .
O28 W9 O47 Ni5 -39.4(6) . .
O28 W10 O48 Ni5 42.4(6) . .
O28 W10 O48 Ni6 -169.5(5) . .
O29 W10 O48 Ni5 -31.7(13) . .
O29 W10 O48 Ni6 116.5(9) . .
O29 W11 O30 W9 -66.9(6) . .
O30 W9 O47 Ni4 -129.2(8) . .
O30 W9 O47 Ni5 35.0(12) . .
O30 W11 O29 W10 68.0(6) . .
O31 W11 O29 W10 -12.9(12) . .
O31 W11 O30 W9 88.9(6) . .
O31 W12 O32 W8 -87.0(6) . .
O32 W8 O46 Ni3 -32.5(13) . .
O32 W8 O46 Ni4 115.3(9) . .
O32 W12 O31 W11 126.4(12) . .
O33 W12 O31 W11 37.1(17) . .
O33 W12 O32 W8 67.8(6) . .
O33 W13 O45 Ni2 -124.7(8) . .
O33 W13 O45 Ni3 37.4(12) . .
O34 W8 O46 Ni3 -31.3(5) . .
O34 W8 O46 Ni4 116.4(5) . .
O34 W12 O31 W11 53.5(11) . .
O34 W12 O32 W8 -3.1(5) . .
O34 W13 O45 Ni2 -127.7(5) . .
O34 W13 O45 Ni3 34.4(6) . .
O34 P2 O27 W9 60.7(6) . .
O34 P2 O27 W10 179.2(5) . .
O34 P2 O27 W11 -59.9(6) . .
O34 P2 O35 W14 -62.7(6) . .
O34 P2 O35 W15 59.3(6) . .
O34 P2 O35 W16 179.0(5) . .
O34 P2 O51 Ni1 120.9(5) . .
O34 P2 O51 Ni3 1.0(7) . .
O34 P2 O51 Ni5 -119.5(5) . .
O35 W14 O44 Ni1 -31.0(6) . .
O35 W14 O44 Ni2 118.6(5) . .
O35 W15 O37 W14 -3.4(5) . .
O35 W15 O38 W12 55.9(11) . .
O35 W16 O43 Ni1 34.5(6) . .
O35 W16 O43 Ni6 -130.6(6) . .
O35 P2 O27 W9 178.7(5) . .
O35 P2 O27 W10 -62.8(6) . .
O35 P2 O27 W11 58.1(6) . .
O35 P2 O34 W8 180.0(5) . .
O35 P2 O34 W12 -60.4(6) . .
O35 P2 O34 W13 60.5(6) . .
O35 P2 O51 Ni1 1.0(7) . .
O35 P2 O51 Ni3 -118.9(5) . .
O35 P2 O51 Ni5 120.6(5) . .
O36 W13 O45 Ni2 -43.5(6) . .
O36 W13 O45 Ni3 118.6(6) . .
O36 W14 O44 Ni1 -113.9(6) . .
O36 W14 O44 Ni2 35.6(6) . .
O37 W14 O44 Ni1 -31.0(13) . .
O37 W14 O44 Ni2 118.6(9) . .
O37 W15 O38 W12 128.3(11) . .
O38 W12 O31 W11 -29.7(11) . .
O38 W12 O32 W8 -10.2(13) . .
O38 W15 O37 W14 -86.9(6) . .
O39 W11 O29 W10 -87.3(5) . .
O39 W11 O30 W9 20.6(12) . .
O39 W15 O37 W14 -9.9(14) . .
O39 W15 O38 W12 -28.8(11) . .
O40 W15 O37 W14 68.6(6) . .
O40 W15 O38 W12 41.0(18) . .
O40 W16 O43 Ni1 38.0(12) . .
O40 W16 O43 Ni6 -127.2(7) . .
O41 W10 O48 Ni5 -113.9(6) . .
O41 W10 O48 Ni6 34.3(6) . .
O41 W16 O43 Ni1 118.4(6) . .
O41 W16 O43 Ni6 -46.7(6) . .
O42 W14 O44 Ni1 42.2(6) . .
O42 W14 O44 Ni2 -168.3(5) . .
O42 W16 O43 Ni1 -37.5(6) . .
O42 W16 O43 Ni6 157.4(6) . .
O51 P2 O27 W9 -60.0(6) . .
O51 P2 O27 W10 58.5(6) . .
O51 P2 O27 W11 179.4(5) . .
O51 P2 O34 W8 59.0(6) . .
O51 P2 O34 W12 178.6(5) . .
O51 P2 O34 W13 -60.5(6) . .
O51 P2 O35 W14 58.0(6) . .
O51 P2 O35 W15 180.0(4) . .
O51 P2 O35 W16 -60.3(6) . .
O52 C1 C2 C3 -15(2) . .
O52 C1 C2 C7 158.5(12) . .
O53 C1 C2 C3 167.8(13) . .
O53 C1 C2 C7 -18.7(19) . .
O54 S1 C4 C3 -167.2(11) . .
O54 S1 C4 C5 14.2(14) . .
O55 S1 C4 C3 68.1(14) . .
O55 S1 C4 C5 -110.5(14) . .
O56 S1 C4 C3 -50.1(13) . .
O56 S1 C4 C5 131.3(12) . .
O60 C9 C11 C10 149.6(14) . .
O60 C9 C11 C12 -28.8(19) . .
O61 C9 C11 C10 -29(2) . .
O61 C9 C11 C12 152.7(13) . .
O62 S2 C13 C12 91.1(15) . 6_565
O62 S2 C13 C12 -91.1(15) . .
O63 S2 C13 C12 29.6(19) . .
O63 S2 C13 C12 -29.6(19) 6_565 6_565
O63 S2 C13 C12 148.1(15) 6_565 .
O63 S2 C13 C12 -148.1(15) . 6_565
O64 W16 O43 Ni1 -140.4(6) . .
O64 W16 O43 Ni6 54.5(6) . .
O65 W15 O37 W14 168.9(6) . .
O65 W15 O38 W12 -129.4(11) . .
O66 W14 O44 Ni1 143.6(6) . .
O66 W14 O44 Ni2 -66.9(6) . .
O67 W8 O46 Ni3 41.2(6) . .
O67 W8 O46 Ni4 -171.1(5) . .
O67 W13 O45 Ni2 159.0(6) . .
O67 W13 O45 Ni3 -38.9(6) . .
O68 W13 O45 Ni2 57.8(6) . .
O68 W13 O45 Ni3 -140.1(6) . .
O69 W12 O31 W11 -131.5(11) . .
O69 W12 O32 W8 170.0(6) . .
O70 W11 O29 W10 170.4(5) . .
O70 W11 O30 W9 -169.0(6) . .
O71 W10 O48 Ni5 144.5(6) . .
O71 W10 O48 Ni6 -67.3(6) . .
O72 W9 O47 Ni4 55.2(6) . .
O72 W9 O47 Ni5 -140.7(6) . .
O73 W8 O46 Ni3 143.6(6) . .
O73 W8 O46 Ni4 -68.6(6) . .
N1 C14 C15 N2 48(2) . .
N1 C14 C15 C16 -179.5(16) . .
N3 C17 C18 N4 57.2(16) . .
N3 C17 C18 C19 -175.5(15) . .
N5 C23 C24 N6 49(3) . .
N5 C23 C24 C25 -170(2) . .
C1 C2 C3 C4 174.9(13) . .
C1 C2 C7 C6 -173.5(12) . .
C2 C3 C4 S1 178.8(11) . .
C2 C3 C4 C5 -3(2) . .
C3 C2 C7 C6 0(2) . .
C3 C4 C5 C6 2(2) . .
C4 C5 C6 C7 0(2) . .
C4 C5 C6 C8 -174.8(12) . .
C5 C6 C7 C2 -1(2) . .
C5 C6 C8 O57 -141.5(13) . .
C5 C6 C8 O58 40.2(19) . .
C7 C2 C3 C4 1(2) . .
C7 C6 C8 O57 44.0(17) . .
C7 C6 C8 O58 -134.3(13) . .
C8 C6 C7 C2 174.0(12) . .
C9 C11 C12 C13 -180.0(15) . .
C10 C11 C12 C13 2(2) . .
C11 C10 C11 C9 -175.2(11) 6_565 .
C11 C10 C11 C12 3(3) 6_565 .
C11 C12 C13 S2 175.7(12) . .
C11 C12 C13 C12 -7(3) . 6_565
Ni7 N7 C45 C46 26(4) . .
Ni7 N8 C49 C50 -155(4) . .
Ni7 N8 C49 C48 -10(6) . .
Ni7 N74 C46 C47 -108(4) . .
Ni7 N74 C46 C45 39(3) . .
Ni7 N75 C48 C49 -42(5) . .
N74 C46 C45 N7 -45(4) . .
N75 C48 C49 N8 36(7) . .
N75 C48 C49 C50 -177(5) . .
C47 C46 C45 N7 104(5) . .
Ni8 N9 C26 C27 40.4(15) . .
Ni8 N10 C27 C26 37.9(15) . .
Ni8 N10 C27 C28 161.8(10) . .
Ni8 N11 C20 C21 -38.1(15) . .
Ni8 N12 C21 C20 -43.5(14) . .
Ni8 N12 C21 C22 -167.4(10) . .
N9 C26 C27 N10 -52.3(17) . .
N9 C26 C27 C28 -176.0(14) . .
N11 C20 C21 N12 54.6(16) . .
N11 C20 C21 C22 179.5(14) . .
Ni9 N13 C32 C33 19(2) . .
Ni9 N14 C33 C32 32(2) . .
Ni9 N14 C33 C34 164.7(17) . .
Ni9 N15 C29 C30 8(2) . .
Ni9 N16 C30 C29 24(2) . .
Ni9 N16 C30 C31 177.1(15) . .
N13 Ni9 N14 C33 -18.3(15) . .
N13 C32 C33 N14 -32(2) . .
N13 C32 C33 C34 -162(2) . .
N14 Ni9 N13 C32 -0.5(12) . .
N14 Ni9 N16 C30 165.7(14) . .
N15 Ni9 N13 C32 -179.1(11) . .
N15 Ni9 N16 C30 -15.6(13) . .
N15 C29 C30 N16 -21(3) . .
N15 C29 C30 C31 -172.2(19) . .
N16 Ni9 N14 C33 165.6(15) . .
Ni10 N17 C35 C36 41.4(16) . .
Ni10 N17 C35 C37 -87.3(19) . .
Ni10 N18 C36 C35 47(2) . .
Ni10 N19 C39 C38 23(3) . .
Ni10 N19 C39 C40 159(2) . .
Ni10 N20 C38 C39 34(4) . .
N17 C35 C36 N18 -58(2) . .
N20 C38 C39 N19 -39(4) . .
N20 C38 C39 C40 -174(3) . .
C37 C35 C36 N18 71(3) . .
O25A Na1 O24 Ni1A 170(2) . .
loop_
_smtbx_masks_void_nr
_smtbx_masks_void_average_x
_smtbx_masks_void_average_y
_smtbx_masks_void_average_z
_smtbx_masks_void_volume
_smtbx_masks_void_count_electrons
1 -0.500 0.000 0.000 1928.9 439.5
2 -0.232 0.000 0.500 873.3 198.5
3 0.000 0.500 0.000 1928.9 439.5
4 -0.848 0.500 0.500 873.3 198.5
