#------------------------------------------------------------------------------
#$Date: 2020-03-05 01:36:17 +0200 (Thu, 05 Mar 2020) $
#$Revision: 248822 $
#$URL: file:///home/coder/svn-repositories/cod/cif/7/12/58/7125853.cif $
#------------------------------------------------------------------------------
#
# This file is available in the Crystallography Open Database (COD),
# http://www.crystallography.net/
#
# All data on this site have been placed in the public domain by the
# contributors.
#
data_7125853
loop_
_publ_author_name
'Wang, Sa-Sa'
'Yang, Wen-Bin'
'Yang, Mingxue'
'Wu, Xiao-Yuan'
'Wu, Weiming'
'Wang, Song-Xia'
'Lin, Lang'
'Lu, Can-Zhong'
_publ_section_title
;
 A bi-polyoxometallate-based host-guest metal-organic framework.
;
_journal_issue                   16
_journal_name_full
'Chemical communications (Cambridge, England)'
_journal_page_first              2503
_journal_page_last               2506
_journal_paper_doi               10.1039/c9cc09008h
_journal_volume                  56
_journal_year                    2020
_chemical_absolute_configuration ad
_chemical_formula_moiety         'C17 H38 N6 Ni6 O43 P W9, C6 H20 N4 Ni, H2 O'
_chemical_formula_sum            'C23 H58 N10 Ni7 O43 P W9'
_chemical_formula_weight         3259.38
_chemical_name_systematic        orthorhombic
_space_group_crystal_system      orthorhombic
_space_group_IT_number           19
_space_group_name_Hall           'P 2ac 2ab'
_space_group_name_H-M_alt        'P 21 21 21'
_atom_sites_solution_hydrogens   mixed
_atom_sites_solution_primary     dual
_audit_creation_date             2019-08-21
_audit_creation_method
;
Olex2 1.2
(compiled 2018.05.29 svn.r3508 for OlexSys, GUI svn.r5506)
;
_audit_update_record
;
2019-08-22 deposited with the CCDC.	2020-01-22 downloaded from the CCDC.
;
_cell_angle_alpha                90
_cell_angle_beta                 90
_cell_angle_gamma                90
_cell_formula_units_Z            4
_cell_length_a                   13.4578(4)
_cell_length_b                   14.1507(6)
_cell_length_c                   36.0116(11)
_cell_measurement_reflns_used    22544
_cell_measurement_temperature    100.0(2)
_cell_measurement_theta_max      29.0400
_cell_measurement_theta_min      3.4570
_cell_volume                     6858.0(4)
_computing_cell_refinement       'CrysAlisPro 1.171.39.46e (Rigaku OD, 2018)'
_computing_data_collection       'CrysAlisPro 1.171.39.46e (Rigaku OD, 2018)'
_computing_data_reduction        'CrysAlisPro 1.171.39.46e (Rigaku OD, 2018)'
_computing_molecular_graphics    'Olex2 (Dolomanov et al., 2009)'
_computing_publication_material  'Olex2 (Dolomanov et al., 2009)'
_computing_structure_refinement  'ShelXL (Sheldrick, 2015)'
_computing_structure_solution    'ShelXT (Sheldrick, 2015)'
_diffrn_ambient_environment      N~2~
_diffrn_ambient_temperature      100.0(2)
_diffrn_detector                 'CCD plate'
_diffrn_detector_area_resol_mean 10.3468
_diffrn_detector_type            Atlas
_diffrn_measured_fraction_theta_full 0.996
_diffrn_measured_fraction_theta_max 0.997
_diffrn_measurement_details
;
List of Runs (angles in degrees, time in seconds):

  # Type    Start    End  Width  t~exp~   \w     \q     \k     \f   Frames
#--------------------------------------------------------------------------
  1  \w    -22.00  89.00   0.60    8.25    --   11.43  77.00-180.00  185
  2  \w     73.00 100.00   0.60    8.25    --   11.43 178.00-150.00   45
  3  \w    -11.00  57.40   0.60    8.25    --   11.43  19.00 150.00  114
  4  \w    -23.00   4.00   0.60    8.25    --   11.43 -38.00   0.00   45
  5  \w    -31.00  43.40   0.60    8.25    --   11.43 -77.00  30.00  124
  6  \w    -81.00  -9.00   0.60    8.25    --  -12.22 -57.00 -90.00  120
;
_diffrn_measurement_device       'four-circle diffractometer'
_diffrn_measurement_device_type  'SuperNova, Dual, Cu at home/near, Atlas'
_diffrn_measurement_method       '\w scans'
_diffrn_orient_matrix_type
'CrysAlisPro convention (1999,Acta A55,543-557)'
_diffrn_orient_matrix_UB_11      0.0371005000
_diffrn_orient_matrix_UB_12      0.0350206000
_diffrn_orient_matrix_UB_13      0.0025872000
_diffrn_orient_matrix_UB_21      -0.0267155000
_diffrn_orient_matrix_UB_22      0.0311057000
_diffrn_orient_matrix_UB_23      -0.0117064000
_diffrn_orient_matrix_UB_31      -0.0262469000
_diffrn_orient_matrix_UB_32      0.0178108000
_diffrn_orient_matrix_UB_33      0.0155941000
_diffrn_radiation_monochromator  mirror
_diffrn_radiation_probe          x-ray
_diffrn_radiation_type           MoK\a
_diffrn_radiation_wavelength     0.71073
_diffrn_reflns_av_R_equivalents  0.0611
_diffrn_reflns_av_unetI/netI     0.0571
_diffrn_reflns_Laue_measured_fraction_full 0.996
_diffrn_reflns_Laue_measured_fraction_max 0.997
_diffrn_reflns_limit_h_max       17
_diffrn_reflns_limit_h_min       -17
_diffrn_reflns_limit_k_max       18
_diffrn_reflns_limit_k_min       -18
_diffrn_reflns_limit_l_max       42
_diffrn_reflns_limit_l_min       -46
_diffrn_reflns_number            62795
_diffrn_reflns_point_group_measured_fraction_full 0.998
_diffrn_reflns_point_group_measured_fraction_max 0.998
_diffrn_reflns_theta_full        25.242
_diffrn_reflns_theta_max         27.101
_diffrn_reflns_theta_min         3.302
_diffrn_source                   'micro-focus sealed X-ray tube'
_diffrn_source_type              'SuperNova (Mo) X-ray Source'
_exptl_absorpt_coefficient_mu    17.013
_exptl_absorpt_correction_T_max  1.00000
_exptl_absorpt_correction_T_min  0.14528
_exptl_absorpt_correction_type   multi-scan
_exptl_absorpt_process_details
;
CrysAlisPro 1.171.39.46e (Rigaku Oxford Diffraction, 2018)
Empirical absorption correction using spherical harmonics,
 implemented in SCALE3 ABSPACK scaling algorithm.
;
_exptl_crystal_colour            'clear light green'
_exptl_crystal_colour_lustre     clear
_exptl_crystal_colour_modifier   light
_exptl_crystal_colour_primary    green
_exptl_crystal_density_diffrn    3.157
_exptl_crystal_density_method    'not measured'
_exptl_crystal_description       block
_exptl_crystal_F_000             5948
_exptl_crystal_size_max          0.2
_exptl_crystal_size_mid          0.15
_exptl_crystal_size_min          0.1
_refine_diff_density_max         1.244
_refine_diff_density_min         -1.203
_refine_diff_density_rms         0.242
_refine_ls_abs_structure_details
;
 Refined as an inversion twin.
;
_refine_ls_abs_structure_Flack   0.479(11)
_refine_ls_extinction_method     none
_refine_ls_goodness_of_fit_ref   1.014
_refine_ls_hydrogen_treatment    constr
_refine_ls_matrix_type           full
_refine_ls_number_parameters     935
_refine_ls_number_reflns         15049
_refine_ls_number_restraints     705
_refine_ls_restrained_S_all      1.000
_refine_ls_R_factor_all          0.0440
_refine_ls_R_factor_gt           0.0376
_refine_ls_shift/su_max          0.001
_refine_ls_shift/su_mean         0.000
_refine_ls_structure_factor_coef Fsqd
_refine_ls_weighting_details
'w=1/[\s^2^(Fo^2^)+(0.0295P)^2^+42.6613P] where P=(Fo^2^+2Fc^2^)/3'
_refine_ls_weighting_scheme      calc
_refine_ls_wR_factor_gt          0.0764
_refine_ls_wR_factor_ref         0.0793
_reflns_Friedel_coverage         0.822
_reflns_Friedel_fraction_full    0.999
_reflns_Friedel_fraction_max     0.999
_reflns_number_gt                13681
_reflns_number_total             15049
_reflns_threshold_expression     'I > 2\s(I)'
_cod_data_source_file            c9cc09008h2.cif
_cod_data_source_block           hchain
_cod_depositor_comments
'Adding full bibliography for 7125851--7125854.cif.'
_cod_database_code               7125853
_shelx_shelxl_version_number     2017/1
_chemical_oxdiff_formula         'C N O H P W Ni'
_shelx_space_group_comment
;
The symmetry employed for this shelxl refinement is uniquely defined
by the following loop, which should always be used as a source of
symmetry information in preference to the above space-group names.
They are only intended as comments.
;
_shelx_estimated_absorpt_t_max   0.281
_shelx_estimated_absorpt_t_min   0.132
_reflns_odcompleteness_completeness 99.63
_reflns_odcompleteness_iscentric 1
_reflns_odcompleteness_theta     26.32
_olex2_refinement_description
;
1. Twinned data refinement
 Scales: 0.521(11)
 0.479(11)
2. Fixed Uiso
 At 1.2 times of:
  All C(H) groups, All C(H,H) groups, All C(H,H,H,H) groups, All N(H,H)
  groups, All N(H,H,H,H) groups
 At 1.5 times of:
  All C(H,H,H) groups, All O(H,H) groups
3. Restrained distances
 C89B-N23
 1.5 with sigma of 0.02
 C89B-C88
 1.5 with sigma of 0.02
 C90A-C89B
 1.5 with sigma of 0.02
 C91A-C92A
 1.5 with sigma of 0.02
 C93A-C92A
 1.5 with sigma of 0.02
 C93A-C91A
 2.3 with sigma of 0.02
 C92B-C91B
 1.5 with sigma of 0.02
 C93B-C92B
 1.5 with sigma of 0.02
 C93B-C91B
 2.3 with sigma of 0.02
 C83-C82
 1.5 with sigma of 0.02
 C83-C84
 1.5 with sigma of 0.02
 C79-C80
 1.5 with sigma of 0.02
 C88-N24
 1.5 with sigma of 0.02
 N22-C83 = C83-C82 = C83-C84
 1.5 with sigma of 0.02
4. Uiso/Uaniso restraints and constraints
C90A \\sim C89A \\sim N23: within 2A with sigma of 0.04 and sigma for terminal
atoms of 0.08
C72 \\sim C71 \\sim C73 \\sim C82 \\sim C84 \\sim C83 \\sim C79 \\sim C86A
\\sim C75 \\sim C77 \\sim C74 \\sim C81 \\sim C80 \\sim C78 \\sim C76 \\sim
C90A \\sim C88 \\sim C89B \\sim C90B \\sim C89A \\sim C86B \\sim C85B \\sim
C85A \\sim C91A \\sim C92A \\sim C93A \\sim C92B \\sim C93B \\sim C91B \\sim
C87A \\sim C87B: within 2A with sigma of 0.01 and sigma for terminal atoms of
0.02
C82 \\sim N21 \\sim C83: within 3.8A with sigma of 0.01 and sigma for terminal
atoms of 0.02
Ni7 \\sim N25 \\sim N26 \\sim N23 \\sim N24: within 3.8A with sigma of 0.01 and
sigma for terminal atoms of 0.02
Ni16 \\sim N21 \\sim N22 \\sim O53 \\sim O65 \\sim O62 \\sim O68: within 3.8A
with sigma of 0.01 and sigma for terminal atoms of 0.02
Uanis(O61) \\sim Ueq, Uanis(O38) \\sim Ueq, Uanis(O35) \\sim Ueq, Uanis(O56)
\\sim Ueq, Uanis(O47) \\sim Ueq, Uanis(O57) \\sim Ueq, Uanis(O50) \\sim Ueq,
Uanis(O62) \\sim Ueq, Uanis(O67) \\sim Ueq: with sigma of 0.005 and sigma for
terminal atoms of 0.01
Uanis(C85A) \\sim Ueq: with sigma of 0.002 and sigma for terminal atoms of 0.004
Uanis(O53) \\sim Ueq: with sigma of 0.005 and sigma for terminal atoms of 0.01
Uanis(C86B) \\sim Ueq, Uanis(C85B) \\sim Ueq, Uanis(N20) \\sim Ueq, Uanis(C90B)
\\sim Ueq, Uanis(C89A) \\sim Ueq, Uanis(C88) \\sim Ueq, Uanis(C73) \\sim Ueq,
Uanis(C74) \\sim Ueq, Uanis(C92A) \\sim Ueq, Uanis(C93A) \\sim Ueq, Uanis(C91B)
\\sim Ueq, Uanis(C92B) \\sim Ueq, Uanis(C91A) \\sim Ueq, Uanis(C93B) \\sim Ueq,
Uanis(C83) \\sim Ueq, Uanis(C79) \\sim Ueq, Uanis(C80) \\sim Ueq, Uanis(C81)
\\sim Ueq, Uanis(C86A) \\sim Ueq, Uanis(C86A) \\sim Ueq, Uanis(C90A) \\sim Ueq,
Uanis(C89B) \\sim Ueq, Uanis(C77) \\sim Ueq, Uanis(C75) \\sim Ueq, Uanis(C87A)
\\sim Ueq, Uanis(C87B) \\sim Ueq: with sigma of 0.005 and sigma for terminal
atoms of 0.01
5. Rigid body (RIGU) restrains
 N22, N21, C82, C83, C84
 with sigma for 1-2 distances of 0.004 and sigma for 1-3 distances of 0.004
 N18, N17, C79, C80, C81
 with sigma for 1-2 distances of 0.004 and sigma for 1-3 distances of 0.004
6. Others
 Sof(H20C)=Sof(H20D)=Sof(H23C)=Sof(H23D)=Sof(H19C)=Sof(H19D)=Sof(H88C)=
 Sof(H88D)=Sof(C90B)=Sof(H90D)=Sof(H90E)=Sof(H90F)=Sof(C89A)=Sof(H89A)=
 Sof(C86B)=Sof(H86B)=Sof(C85B)=Sof(H85A)=Sof(H85B)=Sof(C87B)=Sof(H87D)=
 Sof(H87E)=Sof(H87F)=1-FVAR(1)
 Sof(H20A)=Sof(H20B)=Sof(H23A)=Sof(H23B)=Sof(H19A)=Sof(H19B)=Sof(C86A)=
 Sof(H86A)=Sof(C90A)=Sof(H90A)=Sof(H90B)=Sof(H90C)=Sof(H88A)=Sof(H88B)=
 Sof(C89B)=Sof(H89B)=Sof(C85A)=Sof(H85C)=Sof(H85D)=Sof(C87A)=Sof(H87A)=
 Sof(H87B)=Sof(H87C)=FVAR(1)
 Sof(H26C)=Sof(H26D)=Sof(H25C)=Sof(H25D)=Sof(C92B)=Sof(H92B)=Sof(C93B)=
 Sof(H93D)=Sof(H93E)=Sof(H93F)=Sof(C91B)=Sof(H91C)=Sof(H91D)=1-FVAR(2)
 Sof(H26A)=Sof(H26B)=Sof(H25A)=Sof(H25B)=Sof(C91A)=Sof(H91A)=Sof(H91B)=
 Sof(C92A)=Sof(H92A)=Sof(C93A)=Sof(H93A)=Sof(H93B)=Sof(H93C)=FVAR(2)
7.a Free rotating group:
 O1(H1A,H1B)
7.b Rotating group:
 O59(H59A,H59B), O55(H55A,H55B)
7.c Ternary CH refined with riding coordinates:
 C83(H83), C86A(H86A), C80(H80), C89B(H89B), C89A(H89A), C86B(H86B),
 C92A(H92A), C92B(H92B)
7.d Secondary CH2 refined with riding coordinates:
 N22(H22A,H22B), N21(H21A,H21B), N17(H17A,H17B), N20(H20C,H20D), N20(H20A,
 H20B), N18(H18A,H18B), N23(H23A,H23B), N23(H23C,H23D), N24(H24A,H24B),
 N19(H19A,H19B), N19(H19C,H19D), N26(H26A,H26B), N26(H26C,H26D), C82(H82A,H82B),
  N25(H25A,H25B), N25(H25C,H25D), C79(H79A,H79B), C88(H88A,H88B), C88(H88C,
 H88D), C85B(H85A,H85B), C85A(H85C,H85D), C91A(H91A,H91B), C91B(H91C,H91D)
7.e Aromatic/amide H refined with riding coordinates:
 C73(H73), C75(H75), C77(H77), C74(H74)
7.f Idealised Me refined as rotating group:
 C84(H84A,H84B,H84C), C81(H81A,H81B,H81C), C90A(H90A,H90B,H90C), C90B(H90D,
 H90E,H90F), C93A(H93A,H93B,H93C), C93B(H93D,H93E,H93F), C87A(H87A,H87B,H87C),
 C87B(H87D,H87E,H87F)
;
_shelx_res_file
;
TITL hchain_a.res in P2(1)2(1)2(1)
    hchain.res
    created by SHELXL-2017/1 at 14:19:32 on 21-Aug-2019
REM Old TITL CF solution in P212121
REM SHELXT solution in P2(1)2(1)2(1)
REM R1 0.103, Rweak 0.026, Alpha 0.005, Orientation as input
REM Flack x = 0.479 ( 0.005 ) from Parsons' quotients
REM Formula found by SHELXT: C93A N22 Ni8 O64 P4 W7
CELL 0.71073 13.4578 14.1507 36.0116 90 90 90
ZERR 4 0.0004 0.0006 0.0011 0 0 0
LATT -1
SYMM 0.5-X,-Y,0.5+Z
SYMM -X,0.5+Y,0.5-Z
SYMM 0.5+X,0.5-Y,-Z
SFAC C H N Ni O P W
UNIT 92 232 40 28 172 4 36
DFIX 1.5 C89B N23
DFIX 1.5 C89B C88
DFIX 1.5 C90A C89B
DFIX 1.5 C91A C92A
DFIX 1.5 C93A C92A
DFIX 2.3 C93A C91A
DFIX 1.5 C92B C91B
DFIX 1.5 C93B C92B
DFIX 2.3 C93B C91B
DFIX 1.5 C83 C82
DFIX 1.5 C83 C84
DFIX 1.5 C79 C80
DFIX 1.5 C88 N24
DFIX 1.5 N22 C83 C83 C82 C83 C84
SIMU C90A C89A N23
SIMU 0.01 0.02 2 C72 C71 C73 C82 C84 C83 C79 C86A C75 C77 C74 C81 C80 C78 =
 C76 C90A C88 C89B C90B C89A C86B C85B C85A C91A C92A C93A C92B C93B C91B =
 C87A C87B
SIMU 0.01 0.02 3.8 C82 N21 C83
SIMU 0.01 0.02 3.8 Ni7 N25 N26 N23 N24
SIMU 0.01 0.02 3.8 Ni16 N21 N22 O53 O65 O62 O68
RIGU N22 N21 C82 C83 C84
RIGU N18 N17 C79 C80 C81
ISOR 0.005 0.01 O61 O38 O35 O56 O47 O57 O50 O62 O67
ISOR 0.002 0.004 C85A
ISOR 0.005 0.01 O53
ISOR 0.005 0.01 C86B C85B N20 C90B C89A C88 C73 C74 C92A C93A C91B C92B =
 C91A C93B C83 C79 C80 C81 C86A C86A C90A C89B C77 C75 C87A C87B

L.S. 20 0 0
PLAN  1
SIZE 0.1 0.2 0.15
BOND $H
list 4
ABIN
fmap 2 53
acta
SHEL 999 0.78
TWIN -1 0 0 0 -1 0 0 0 -1 2
REM <olex2.extras>
REM <HklSrc "%.\\hchain.hkl">
REM </olex2.extras>

WGHT    0.029500   42.661301
BASF   0.47914
FVAR       0.06871   0.57203   0.50862
W5    7    0.457048    0.222671    0.296717    11.00000    0.01470    0.01533 =
         0.01907   -0.00073   -0.00111    0.00075
W6    7    0.709630    0.235505    0.286938    11.00000    0.01502    0.01825 =
         0.02131    0.00116    0.00206    0.00298
W7    7    0.857408    0.363933    0.356274    11.00000    0.01109    0.02774 =
         0.02127    0.00432   -0.00131    0.00150
W10   7    0.333836    0.336363    0.376341    11.00000    0.01258    0.02667 =
         0.01948   -0.00217    0.00038   -0.00029
W4    7    0.607502    0.097647    0.356552    11.00000    0.01710    0.02285 =
         0.02571    0.00641   -0.00108    0.00109
W2    7    0.483501    0.214654    0.436791    11.00000    0.01701    0.04053 =
         0.01916    0.00661   -0.00010   -0.00372
W8    7    0.743401    0.473418    0.428957    11.00000    0.01578    0.03995 =
         0.01864   -0.00246   -0.00300   -0.00270
W3    7    0.756381    0.228867    0.426012    11.00000    0.01593    0.03993 =
         0.02131    0.00931   -0.00342   -0.00085
W9    7    0.471026    0.458601    0.439518    11.00000    0.01694    0.04141 =
         0.01866   -0.00659    0.00225   -0.00346
NI15  4    0.568926    0.446392    0.278731    11.00000    0.01103    0.01660 =
         0.01796   -0.00009   -0.00107    0.00086
NI13  4    0.457929    0.544262    0.345429    11.00000    0.01121    0.02049 =
         0.02337   -0.00488    0.00031    0.00100
NI12  4    0.689590    0.557530    0.338842    11.00000    0.01213    0.02253 =
         0.02109   -0.00309    0.00006    0.00064
NI16  4    0.338118    0.442838    0.288907    11.00000    0.01226    0.01877 =
         0.02245   -0.00250   -0.00215    0.00033
NI14  4    0.798334    0.479153    0.273845    11.00000    0.01443    0.02199 =
         0.02039    0.00040    0.00063    0.00114
NI11  4    0.579412    0.662303    0.401282    11.00000    0.02092    0.03366 =
         0.02788   -0.01413    0.00186   -0.00186
NI7   4    0.613820    0.225631    0.539021    11.00000    0.01746    0.05111 =
         0.02307    0.00515    0.00001    0.00404
P1    6    0.593859    0.352567    0.362749    11.00000    0.00987    0.01068 =
         0.01682   -0.00011   -0.00236    0.00074
O51   5    0.378371    0.247907    0.339172    11.00000    0.01203    0.01250 =
         0.02234    0.00030   -0.00202    0.00284
O36   5    0.519564    0.137796    0.394710    11.00000    0.01192    0.02996 =
         0.02771    0.00694    0.00202   -0.00094
O34   5    0.500393    0.104432    0.323106    11.00000    0.01220    0.02820 =
         0.01924    0.00043    0.00049   -0.00229
O31   5    0.806662    0.267819    0.323598    11.00000    0.01464    0.02154 =
         0.02231    0.00449    0.00010    0.00231
O70   5    0.795010    0.455780    0.330009    11.00000    0.01081    0.02350 =
         0.01833   -0.00062    0.00036   -0.00475
O40   5    0.577915    0.200626    0.268491    11.00000    0.01654    0.01152 =
         0.02417    0.00032   -0.00438   -0.00460
O69   5    0.580966    0.443700    0.339671    11.00000    0.00415    0.02271 =
         0.01975   -0.01281   -0.00131    0.00029
O47   5    0.862529    0.262807    0.394612    11.00000    0.01097    0.02464 =
         0.02043    0.00584   -0.00369    0.00207
O43   5    0.856393    0.446397    0.399609    11.00000    0.01095    0.03603 =
         0.02230    0.00865    0.00024   -0.00628
O35   5    0.709480    0.145373    0.388373    11.00000    0.01703    0.02737 =
         0.02059    0.00662   -0.00417    0.00555
O32   5    0.696035    0.117611    0.316637    11.00000    0.01149    0.01780 =
         0.03011   -0.00144    0.00149    0.00141
O67   5    0.694951    0.556790    0.395661    11.00000    0.01780    0.03088 =
         0.01786   -0.00949    0.00111   -0.00492
O42   5    0.691050    0.354377    0.384357    11.00000    0.01943    0.02372 =
         0.01653    0.00168   -0.00591   -0.00074
O37   5    0.769755    0.347572    0.450945    11.00000    0.02194    0.02996 =
         0.01683    0.00728    0.00090   -0.00542
O68   5    0.458855    0.346293    0.283279    11.00000    0.01443    0.01678 =
         0.02143    0.00223   -0.00139    0.00602
O61   5    0.688941    0.358077    0.274134    11.00000    0.01812    0.00746 =
         0.01600   -0.00304    0.00499    0.00012
O49   5    0.482965    0.545229    0.402578    11.00000    0.01853    0.03223 =
         0.01642   -0.00626    0.00752    0.00257
O44   5    0.360633    0.233407    0.412545    11.00000    0.02158    0.02341 =
         0.01688   -0.00489   -0.00240   -0.00560
O38   5    0.623214    0.222111    0.444179    11.00000    0.01424    0.03761 =
         0.02451    0.00528   -0.00519   -0.00306
O63   5    0.507833    0.342225    0.391144    11.00000    0.01809    0.03695 =
         0.02010    0.00395   -0.00135    0.00302
O41   5    0.592409    0.265644    0.336570    11.00000    0.01574    0.03494 =
         0.00865   -0.00231    0.00665   -0.00249
O48   5    0.610693    0.452954    0.447501    11.00000    0.01301    0.05026 =
         0.01625   -0.01230    0.00401   -0.00949
O62   5    0.454715    0.532697    0.289083    11.00000    0.01379    0.01712 =
         0.02051   -0.00241   -0.00368    0.00522
O66   5    0.568697    0.639288    0.346569    11.00000    0.01185    0.02980 =
         0.02314   -0.01593    0.00124   -0.00014
O54   5    0.333848    0.629992    0.346164    11.00000    0.01529    0.02037 =
         0.03249   -0.00354   -0.00091    0.00761
O65   5    0.366072    0.430793    0.344885    11.00000    0.01723    0.01996 =
         0.02562   -0.00142    0.00139    0.00619
O45   5    0.466727    0.329590    0.461561    11.00000    0.01702    0.03698 =
         0.02245   -0.00165    0.00145   -0.00125
O60   5    0.672073    0.545878    0.283896    11.00000    0.01247    0.01533 =
         0.02547    0.00297   -0.00179    0.00824
O29   5    0.785872    0.193931    0.252295    11.00000    0.03098    0.01484 =
         0.02544   -0.00136    0.00057    0.00089
O52   5    0.368792    0.176616    0.267819    11.00000    0.03169    0.02155 =
         0.02002    0.00224   -0.00650   -0.00629
O46   5    0.431006    0.524682    0.476798    11.00000    0.04679    0.05160 =
         0.02263   -0.01914    0.00292   -0.02112
O64   5    0.343479    0.416377    0.418934    11.00000    0.01656    0.04104 =
         0.02430   -0.00697   -0.00006    0.00404
O59   5    0.561561    0.453583    0.221093    11.00000    0.01513    0.02355 =
         0.03143   -0.01109   -0.00667    0.00075
AFIX   7
H59A  2    0.503852    0.485710    0.211835    11.00000   -1.50000
H59B  2    0.551330    0.394175    0.208348    11.00000   -1.50000
AFIX   0
O53   5    0.242017    0.545701    0.305149    11.00000    0.01914    0.01726 =
         0.02737   -0.00079   -0.00121    0.00662
O57   5    0.802995    0.652596    0.336722    11.00000    0.01637    0.02123 =
         0.02585   -0.00987    0.00330    0.00455
O27   5    0.814896    0.153521    0.456666    11.00000    0.01779    0.05458 =
         0.03257    0.00964   -0.00813   -0.00574
O30   5    0.979805    0.369763    0.342430    11.00000    0.01319    0.03874 =
         0.03011   -0.00286    0.00866   -0.00004
O50   5    0.205654    0.325718    0.371893    11.00000    0.01623    0.01655 =
         0.03172   -0.00392   -0.00245    0.00838
O28   5    0.613273   -0.021487    0.363101    11.00000    0.01855    0.02437 =
         0.04524    0.01025   -0.00121    0.00303
N22   3    0.313554    0.449560    0.232165    11.00000    0.02196    0.01977 =
         0.02977   -0.00254   -0.00644    0.00519
AFIX  23
H22A  2    0.309338    0.509574    0.224940    11.00000   -1.20000
H22B  2    0.363721    0.422533    0.220060    11.00000   -1.20000
AFIX   0
N21   3    0.219780    0.350696    0.288138    11.00000    0.02643    0.02587 =
         0.03075    0.00153   -0.00599    0.00503
AFIX  23
H21A  2    0.238908    0.295748    0.297807    11.00000   -1.20000
H21B  2    0.171556    0.373735    0.302423    11.00000   -1.20000
AFIX   0
N17   3    0.599649    0.683806    0.457752    11.00000    0.05288    0.05715 =
         0.02532   -0.02144    0.00690   -0.01201
AFIX  23
H17A  2    0.541340    0.689565    0.469191    11.00000   -1.20000
H17B  2    0.632576    0.635623    0.467796    11.00000   -1.20000
AFIX   0
O39   5    0.446810    0.135265    0.469973    11.00000    0.02414    0.06413 =
         0.03055    0.02000    0.00884    0.00057
O56   5    0.790719    0.542772    0.463484    11.00000    0.01971    0.05603 =
         0.03127   -0.00690   -0.00709   -0.00254
O58   5    0.889996    0.594878    0.288843    11.00000    0.01351    0.02738 =
         0.02847   -0.00383   -0.00016   -0.00009
N20   3    0.919575    0.395817    0.260478    11.00000    0.02226    0.03289 =
         0.03272    0.00020    0.00601   -0.00053
PART 2
AFIX  23
H20C  2    0.975630    0.426054    0.266027   -21.00000   -1.20000
H20D  2    0.917769    0.342248    0.273410   -21.00000   -1.20000
AFIX  23
PART 0
PART 1
H20A  2    0.969519    0.409888    0.275705    21.00000   -1.20000
H20B  2    0.903779    0.335442    0.264097    21.00000   -1.20000
AFIX   0
PART 0
N18   3    0.681762    0.769042    0.393979    11.00000    0.02720    0.02289 =
         0.05254   -0.00882    0.00590   -0.00911
AFIX  23
H18A  2    0.728480    0.751151    0.377962    11.00000   -1.20000
H18B  2    0.652113    0.820559    0.385134    11.00000   -1.20000
AFIX   0
C72   1    0.977853    0.658710    0.340232    11.00000    0.01676    0.02737 =
         0.02907    0.00236   -0.00073    0.00219
O55   5    0.448121    0.745287    0.400901    11.00000    0.04634    0.05884 =
         0.04844   -0.02208    0.00544    0.01731
AFIX   7
H55A  2    0.457928    0.799731    0.412321    11.00000   -1.50000
H55B  2    0.400670    0.719005    0.414349    11.00000   -1.50000
AFIX   0

N23   3    0.531613    0.326704    0.554372    11.00000    0.03405    0.06494 =
         0.03673    0.00309   -0.00151    0.00392
PART 1
AFIX  23
H23A  2    0.494013    0.345567    0.535440    21.00000   -1.20000
H23B  2    0.491624    0.307333    0.572525    21.00000   -1.20000
AFIX  23
PART 0
PART 2
H23C  2    0.471606    0.322707    0.544104   -21.00000   -1.20000
H23D  2    0.525258    0.327882    0.578968   -21.00000   -1.20000
AFIX   0
PART 0
N24   3    0.713089    0.316925    0.530836    11.00000    0.02792    0.05970 =
         0.02912    0.01134   -0.00815   -0.00027
AFIX  23
H24A  2    0.766519    0.302149    0.544192    11.00000   -1.20000
H24B  2    0.730411    0.316056    0.506986    11.00000   -1.20000
AFIX   0

N19   3    0.793875    0.501804    0.217397    11.00000    0.02625    0.04375 =
         0.03008    0.01681    0.00249   -0.00414
PART 1
AFIX  23
H19A  2    0.736369    0.480741    0.208428    21.00000   -1.20000
H19B  2    0.797401    0.563550    0.212886    21.00000   -1.20000
AFIX  23
PART 0
PART 2
H19C  2    0.731999    0.510857    0.209432   -21.00000   -1.20000
H19D  2    0.831338    0.550852    0.210814   -21.00000   -1.20000
AFIX   0

PART 0
N26   3    0.698118    0.123782    0.524946    11.00000    0.02794    0.05627 =
         0.02469    0.00789   -0.00532    0.01119
PART 1
AFIX  23
H26A  2    0.731624    0.141650    0.504828    31.00000   -1.20000
H26B  2    0.742369    0.115509    0.543022    31.00000   -1.20000
AFIX  23
PART 0
PART 2
H26C  2    0.726795    0.134811    0.503101   -31.00000   -1.20000
H26D  2    0.745023    0.113719    0.541913   -31.00000   -1.20000
AFIX   0

PART 0
C71   1    0.881691    0.635163    0.321273    11.00000    0.01513    0.02052 =
         0.02785   -0.00137   -0.00511    0.00573
C73   1    0.978909    0.707526    0.372857    11.00000    0.03244    0.03831 =
         0.03594   -0.00639   -0.00343   -0.00118
AFIX  43
H73   2    0.918551    0.726923    0.382860    11.00000   -1.20000
AFIX   0
C82   1    0.180625    0.334287    0.251153    11.00000    0.04518    0.05790 =
         0.03956    0.01059   -0.00841   -0.00984
AFIX  23
H82A  2    0.108849    0.340367    0.251735    11.00000   -1.20000
H82B  2    0.196378    0.270218    0.243600    11.00000   -1.20000
AFIX   0

N25   3    0.514564    0.130744    0.546745    11.00000    0.03537    0.06091 =
         0.03376    0.01399   -0.00430    0.00080
PART 1
AFIX  23
H25A  2    0.491425    0.134719    0.569845    31.00000   -1.20000
H25B  2    0.464109    0.140193    0.531205    31.00000   -1.20000
AFIX  23
PART 0
PART 2
H25C  2    0.475414    0.147390    0.565559   -31.00000   -1.20000
H25D  2    0.477152    0.125146    0.526485   -31.00000   -1.20000
AFIX   0

PART 0
C84   1    0.190645    0.393607    0.184620    11.00000    0.05458    0.05103 =
         0.02703   -0.00383   -0.00400   -0.01081
AFIX 137
H84A  2    0.202787    0.452936    0.172513    11.00000   -1.50000
H84B  2    0.121145    0.378752    0.183212    11.00000   -1.50000
H84C  2    0.228322    0.344846    0.172567    11.00000   -1.50000
AFIX   0
C83   1    0.220867    0.400191    0.223876    11.00000    0.04519    0.04843 =
         0.03886    0.00382   -0.00687   -0.01217
AFIX  13
H83   2    0.176808    0.452911    0.230225    11.00000   -1.20000
AFIX   0
C79   1    0.656023    0.769510    0.460958    11.00000    0.07071    0.06166 =
         0.06322   -0.00138   -0.00269   -0.00763
AFIX  23
H79A  2    0.692715    0.767479    0.484128    11.00000   -1.20000
H79B  2    0.609862    0.822005    0.462524    11.00000   -1.20000
AFIX   0
PART 1
C86A  1    0.872850    0.455490    0.199236    21.00000    0.04325    0.04543 =
         0.04141   -0.00080    0.00156    0.00039
AFIX  13
H86A  2    0.911832    0.513710    0.197008    21.00000   -1.20000
AFIX   0
PART 0
C75   1    1.155947    0.696933    0.378819    11.00000    0.03502    0.03681 =
         0.04086   -0.00916   -0.00834    0.00436
AFIX  43
H75   2    1.214517    0.709085    0.391666    11.00000   -1.20000
AFIX   0
C77   1    1.069137    0.624576    0.327666    11.00000    0.02152    0.01909 =
         0.02563    0.00080   -0.00292    0.00325
AFIX  43
H77   2    1.070317    0.587024    0.306477    11.00000   -1.20000
AFIX   0
C74   1    1.066656    0.730085    0.392185    11.00000    0.03817    0.04772 =
         0.04259   -0.01244   -0.00001    0.00324
AFIX  43
H74   2    1.064367    0.766734    0.413604    11.00000   -1.20000
AFIX   0
C81   1    0.784085    0.884006    0.430936    11.00000    0.07825    0.06794 =
         0.07795   -0.01330   -0.01141   -0.01829
AFIX 137
H81A  2    0.817693    0.891942    0.407629    11.00000   -1.50000
H81B  2    0.831910    0.883694    0.450714    11.00000   -1.50000
H81C  2    0.738255    0.935169    0.434560    11.00000   -1.50000
AFIX   0
C80   1    0.726520    0.788956    0.430779    11.00000    0.06900    0.06348 =
         0.06229   -0.00244   -0.00601   -0.00973
AFIX  13
H80   2    0.778166    0.740680    0.433642    11.00000   -1.20000
AFIX   0
C78   1    0.252620    0.603774    0.330799    11.00000    0.01156    0.01835 =
         0.01860   -0.00399    0.01001   -0.00479
C76   1    1.158099    0.644268    0.345426    11.00000    0.02713    0.02482 =
         0.03403   -0.00073    0.00194    0.00782

PART 2
C90A  1    0.549636    0.510030    0.560582    21.00000    0.05731    0.06335 =
         0.05533    0.00491   -0.00161   -0.00140
AFIX 137
H90A  2    0.484573    0.524560    0.551261    21.00000   -1.50000
H90B  2    0.592579    0.563422    0.556985    21.00000   -1.50000
H90C  2    0.545483    0.495664    0.586589    21.00000   -1.50000
AFIX   0
PART 0
C88   1    0.679802    0.413803    0.540939    11.00000    0.06136    0.06048 =
         0.05484    0.00334    0.00686   -0.00226
PART 1
AFIX  23
H88A  2    0.660255    0.448189    0.518812    21.00000   -1.20000
H88B  2    0.733533    0.447965    0.552861    21.00000   -1.20000
AFIX  23
PART 0
PART 2
H88C  2    0.701153    0.427965    0.566057   -21.00000   -1.20000
H88D  2    0.710921    0.459127    0.524414   -21.00000   -1.20000
AFIX   0
PART 0
PART 1
C89B  1    0.591776    0.405056    0.567387    21.00000    0.05358    0.05504 =
         0.05021    0.00092    0.00166   -0.00114
AFIX  13
H89B  2    0.617248    0.389242    0.592112    21.00000   -1.20000
AFIX   0
C90B  1    0.515825    0.480524    0.571500   -21.00000    0.05797    0.05697 =
         0.05666   -0.00279   -0.00068   -0.00043
AFIX 137
H90D  2    0.475590    0.483121    0.549510   -21.00000   -1.50000
H90E  2    0.548269    0.540255    0.575071   -21.00000   -1.50000
H90F  2    0.474538    0.466963    0.592575   -21.00000   -1.50000
AFIX   0
PART 0
PART 2
C89A  1    0.592918    0.421801    0.539017   -21.00000    0.05786    0.05741 =
         0.05286    0.00073    0.00081    0.00037
AFIX  13
H89A  2    0.576057    0.429790    0.512729   -21.00000   -1.20000
AFIX   0

C86B  1    0.841186    0.399076    0.201516   -21.00000    0.04531    0.04603 =
         0.04337    0.00035    0.00115    0.00076
AFIX  13
H86B  2    0.790928    0.352008    0.208280   -21.00000   -1.20000
AFIX   0
C85B  1    0.916085    0.374544    0.219368   -21.00000    0.04374    0.04349 =
         0.04404   -0.00134    0.00140    0.00027
AFIX  23
H85A  2    0.973414    0.404234    0.207949   -21.00000   -1.20000
H85B  2    0.923858    0.306839    0.216319   -21.00000   -1.20000
AFIX   0
PART 0
PART 1
C85A  1    0.951382    0.407461    0.223789    21.00000    0.04579    0.04631 =
         0.04541   -0.00005    0.00063    0.00039
AFIX  23
H85C  2    0.967342    0.346064    0.213401    21.00000   -1.20000
H85D  2    1.011535    0.445221    0.223610    21.00000   -1.20000
AFIX   0

C91A  1    0.648876    0.023523    0.516285    31.00000    0.05711    0.05638 =
         0.05746    0.00202   -0.00075    0.00040
AFIX  23
H91A  2    0.631690    0.016989    0.490252    31.00000   -1.20000
H91B  2    0.691627   -0.028345    0.523693    31.00000   -1.20000
AFIX   0
C92A  1    0.559421    0.030429    0.540122    31.00000    0.05661    0.05600 =
         0.05676    0.00035   -0.00071    0.00056
AFIX  13
H92A  2    0.508067   -0.014120    0.532009    31.00000   -1.20000
AFIX   0
C93A  1    0.599822    0.003262    0.577640    31.00000    0.05829    0.05936 =
         0.06297   -0.00068    0.00196   -0.00262
AFIX 137
H93A  2    0.662453    0.034147    0.581581    31.00000   -1.50000
H93B  2    0.608939   -0.063973    0.578659    31.00000   -1.50000
H93C  2    0.553822    0.022296    0.596593    31.00000   -1.50000
AFIX   0
PART 0
PART 2
C92B  1    0.627692    0.041642    0.522672   -31.00000    0.05643    0.05493 =
         0.05738    0.00105   -0.00102    0.00165
AFIX  13
H92B  2    0.594639    0.036075    0.498523   -31.00000   -1.20000
AFIX   0
C93B  1    0.687064   -0.043561    0.532898   -31.00000    0.05722    0.05660 =
         0.06149    0.00095    0.00163   -0.00664
AFIX 137
H93D  2    0.750602   -0.040894    0.520825   -31.00000   -1.50000
H93E  2    0.652388   -0.099451    0.525126   -31.00000   -1.50000
H93F  2    0.696390   -0.045141    0.559320   -31.00000   -1.50000
AFIX   0
C91B  1    0.557638    0.049551    0.554150   -31.00000    0.05483    0.05482 =
         0.05640    0.00111   -0.00045   -0.00087
AFIX  23
H91C  2    0.510113   -0.001984    0.554289   -31.00000   -1.20000
H91D  2    0.592281    0.051306    0.577760   -31.00000   -1.20000
AFIX   0

PART 0
PART 1
C87A  1    0.877751    0.437254    0.161487    21.00000    0.05064    0.05737 =
         0.03956    0.00004   -0.00384    0.00153
AFIX 137
H87A  2    0.938528    0.462460    0.151654    21.00000   -1.50000
H87B  2    0.822292    0.466423    0.149250    21.00000   -1.50000
H87C  2    0.875831    0.370241    0.157395    21.00000   -1.50000
AFIX   0
PART 0
PART 2
C87B  1    0.830581    0.408200    0.153194   -21.00000    0.05516    0.05568 =
         0.05538    0.00126    0.00458   -0.00415
AFIX 137
H87D  2    0.859318    0.466759    0.145080   -21.00000   -1.50000
H87E  2    0.761690    0.406405    0.146312   -21.00000   -1.50000
H87F  2    0.864920    0.356440    0.141692   -21.00000   -1.50000
AFIX   6

PART 0
O1    5    0.551162    0.275454    0.196410    11.00000    0.05042    0.03533 =
         0.03990    0.00408   -0.00544   -0.00280
H1A   2    0.567645    0.252110    0.175569    11.00000   -1.50000
H1B   2    0.575287    0.237477    0.212318    11.00000   -1.50000
AFIX   0
HKLF 4




REM  hchain_a.res in P2(1)2(1)2(1)
REM R1 =  0.0376 for   13681 Fo > 4sig(Fo)  and  0.0440 for all   15049 data
REM    935 parameters refined using    705 restraints

END

WGHT      0.0295     42.6478

REM Highest difference peak  1.244,  deepest hole -1.203,  1-sigma level  0.242
Q1    1   0.9006  0.1977  0.2767  11.00000  0.05    1.24
;
_shelx_res_checksum              66156
_shelx_fab_file
;
-17 -3 -1 -4.9493 -5.4180
-17 -2 -6 6.0813 4.2994
-17 -2 -5 0.5659 -3.1966
-17 -2 -4 8.0720 -0.5881
-17 -2 -3 0.9939 -10.3136
-17 -2 -2 8.7072 0.6514
-17 -2 -1 -8.1577 1.6507
-17 -1 -7 7.5803 4.4140
-17 -1 -6 7.8721 1.9998
-17 -1 -5 4.1861 3.8063
-17 -1 -4 5.3691 -2.9623
-17 -1 -3 0.3263 -1.5617
-17 -1 -2 6.4491 -7.8803
-17 -1 -1 1.3344 -1.7427
-16 -6 -8 3.2092 -0.0700
-16 -6 -7 1.6665 0.4168
-16 -6 -6 -6.7342 6.2769
-16 -6 -5 -3.0197 -1.8849
-16 -6 -4 -2.2675 -0.4361
-16 -6 -3 -5.3467 -2.5484
-16 -6 -2 -2.5195 1.8399
-16 -6 -1 -2.2271 -7.8700
-16 -5 -11 5.3314 1.2670
-16 -5 -10 2.0067 2.5463
-16 -5 -9 -3.1943 -0.5474
-16 -5 -8 -1.3943 -3.8293
-16 -5 -7 -7.4277 -4.4989
-16 -5 -6 6.5278 -2.6968
-16 -5 -5 0.5163 -2.6234
-16 -5 -4 3.1344 -0.6333
-16 -5 -3 -3.3522 -6.2995
-16 -5 -2 2.9890 -5.1757
-16 -5 -1 6.1468 -3.2388
-16 -4 -13 0.3233 -0.7914
-16 -4 -12 -5.3294 4.1333
-16 -4 -11 -1.1702 -0.3205
-16 -4 -10 3.0984 -5.4660
-16 -4 -9 2.2657 -1.8099
-16 -4 -8 0.5368 1.8836
-16 -4 -7 -2.6210 4.1448
-16 -4 -6 0.9694 -8.8747
-16 -4 -5 6.2992 2.2297
-16 -4 -4 4.3974 -4.0172
-16 -4 -3 1.3564 3.5222
-16 -4 -2 1.4345 -3.9426
-16 -4 -1 5.5792 -2.3117
-16 -3 -15 -4.1128 -3.3287
-16 -3 -14 0.6417 -5.7740
-16 -3 -13 -7.7522 -1.9676
-16 -3 -12 10.0917 5.6706
-16 -3 -11 -2.2714 -4.6501
-16 -3 -10 1.0321 -0.4181
-16 -3 -9 2.7457 -3.6419
-16 -3 -8 1.9953 4.7172
-16 -3 -7 5.5998 4.3325
-16 -3 -6 2.6454 1.3428
-16 -3 -5 3.2453 0.3548
-16 -3 -4 -3.0058 2.6926
-16 -3 -3 9.6298 1.5141
-16 -3 -2 2.2080 4.7294
-16 -3 -1 1.0330 -1.1912
-16 -2 -16 0.6589 -9.9401
-16 -2 -15 -2.2475 2.5173
-16 -2 -14 -1.2129 0.8066
-16 -2 -13 5.2052 4.8898
-16 -2 -12 -4.5255 0.2879
-16 -2 -11 1.5691 4.8247
-16 -2 -10 -4.9415 -3.9026
-16 -2 -9 -7.4745 8.6059
-16 -2 -8 -0.4912 2.5817
-16 -2 -7 -0.1514 -0.7491
-16 -2 -6 8.5688 4.5062
-16 -2 -5 -4.5958 5.4330
-16 -2 -4 -3.8081 1.2248
-16 -2 -3 -0.4065 -1.4337
-16 -2 -2 4.4637 -0.8903
-16 -2 -1 -4.2488 -3.1948
-16 -1 -17 -2.2066 0.0420
-16 -1 -16 -4.7174 -1.8448
-16 -1 -15 1.7009 -4.8232
-16 -1 -14 -9.6524 -1.3821
-16 -1 -13 6.0923 -1.5498
-16 -1 -12 -1.5260 -7.9708
-16 -1 -11 -3.7202 -15.2334
-16 -1 -10 -1.6255 7.9996
-16 -1 -9 -1.3809 0.9517
-16 -1 -8 -5.0242 8.5802
-16 -1 -7 2.1490 -1.6302
-16 -1 -6 -0.7095 -2.2312
-16 -1 -5 2.6890 4.6504
-16 -1 -4 2.8542 -7.4235
-16 -1 -3 4.1215 2.9062
-16 -1 -2 -2.7707 -1.3003
-16 -1 -1 1.6798 5.5940
-15 -8 -10 6.8062 -0.4503
-15 -8 -9 8.0571 4.1848
-15 -8 -8 -0.6873 -1.9247
-15 -8 -7 4.6221 -5.4545
-15 -8 -6 -1.5755 9.0594
-15 -8 -5 2.3735 3.1659
-15 -8 -4 -2.3296 -4.1937
-15 -8 -3 -0.9005 1.3389
-15 -8 -2 5.7234 -0.1111
-15 -8 -1 -6.4780 -11.1125
-15 -7 -14 -0.4946 2.0283
-15 -7 -13 4.3990 0.4625
-15 -7 -12 -9.1155 9.6112
-15 -7 -11 -1.5836 -2.1443
-15 -7 -10 -0.3670 4.8266
-15 -7 -9 -1.9919 -6.3403
-15 -7 -8 -2.6312 3.8994
-15 -7 -7 -2.3176 5.7753
-15 -7 -6 -1.3521 -0.3845
-15 -7 -5 -4.7278 1.7704
-15 -7 -4 10.6244 -2.3679
-15 -7 -3 -4.3420 -0.6882
-15 -7 -2 -11.4338 -3.8358
-15 -7 -1 0.7444 -10.2674
-15 -6 -16 7.4077 17.2031
-15 -6 -15 -2.3706 -14.2150
-15 -6 -14 -4.4088 -2.8649
-15 -6 -13 1.9836 -3.4452
-15 -6 -12 2.1359 -2.6848
-15 -6 -11 0.7868 -0.2662
-15 -6 -10 -5.8156 -0.3389
-15 -6 -9 -5.9283 -6.1317
-15 -6 -8 2.0733 -3.8301
-15 -6 -7 -0.6161 2.8419
-15 -6 -6 -1.3642 2.7526
-15 -6 -5 1.1247 -2.6744
-15 -6 -4 -0.2080 -4.9137
-15 -6 -3 12.2696 7.4512
-15 -6 -2 -2.4536 -3.9665
-15 -6 -1 -2.7730 9.4756
-15 -5 -18 1.6094 0.9582
-15 -5 -17 4.2869 3.2401
-15 -5 -16 4.8266 -5.8030
-15 -5 -15 -2.8429 4.9377
-15 -5 -14 9.7719 -6.9567
-15 -5 -13 -9.8606 2.1328
-15 -5 -12 7.5070 -4.5862
-15 -5 -11 4.7267 -5.3573
-15 -5 -10 1.0910 2.5157
-15 -5 -9 -0.4882 -0.8283
-15 -5 -8 -0.4373 3.0802
-15 -5 -7 -0.3724 -6.6421
-15 -5 -6 -0.2295 -0.4937
-15 -5 -5 -4.2316 2.9434
-15 -5 -4 -2.7984 5.1876
-15 -5 -3 -8.2269 -5.9183
-15 -5 -2 -2.6279 -7.5741
-15 -5 -1 9.7997 -6.4478
-15 -4 -20 -4.5163 0.4733
-15 -4 -19 2.1490 0.4817
-15 -4 -18 2.4893 -0.8850
-15 -4 -17 6.8448 1.7883
-15 -4 -16 3.1247 -4.6802
-15 -4 -15 0.8398 -1.8623
-15 -4 -14 0.4793 4.7533
-15 -4 -13 8.7991 3.5933
-15 -4 -12 -7.2786 0.7639
-15 -4 -11 0.1338 6.0780
-15 -4 -10 -1.1279 -4.3266
-15 -4 -9 3.7712 3.8991
-15 -4 -8 5.3068 0.5426
-15 -4 -7 -9.4501 -1.2243
-15 -4 -6 1.0890 -10.7087
-15 -4 -5 2.2120 -3.2986
-15 -4 -4 9.2735 3.2803
-15 -4 -3 -0.9879 9.2019
-15 -4 -2 -1.6992 -3.6218
-15 -4 -1 -2.7391 5.7243
-15 -3 -21 5.4144 6.1791
-15 -3 -20 2.1673 0.7055
-15 -3 -19 5.3862 9.6829
-15 -3 -18 4.0868 5.6851
-15 -3 -17 4.3295 -4.8585
-15 -3 -16 -2.1015 4.3409
-15 -3 -15 -4.8941 1.4703
-15 -3 -14 -5.7651 -2.5354
-15 -3 -13 -3.3711 -1.1928
-15 -3 -12 0.5830 -3.0163
-15 -3 -11 -11.2954 -0.3386
-15 -3 -10 -0.4638 2.8180
-15 -3 -9 5.4625 -7.8275
-15 -3 -8 3.7392 -1.4270
-15 -3 -7 4.1115 2.1485
-15 -3 -6 -9.3168 1.2219
-15 -3 -5 0.7685 4.4391
-15 -3 -4 -6.1488 -9.5786
-15 -3 -3 2.9917 -5.9072
-15 -3 -2 2.8594 -2.2616
-15 -3 -1 8.8038 5.0441
-15 -2 -22 -3.5318 0.1721
-15 -2 -21 -7.9047 3.1864
-15 -2 -20 -4.4953 13.9660
-15 -2 -19 9.1959 1.2591
-15 -2 -18 -7.7362 -2.8647
-15 -2 -17 5.8267 -6.7066
-15 -2 -16 -1.7846 -2.3747
-15 -2 -15 -0.8866 -5.9973
-15 -2 -14 7.7561 -6.2490
-15 -2 -13 -0.1436 -4.8969
-15 -2 -12 0.7354 -1.3063
-15 -2 -11 6.5739 2.8467
-15 -2 -10 0.6443 0.4623
-15 -2 -9 2.5206 8.2833
-15 -2 -8 -2.3384 -9.5909
-15 -2 -7 1.4250 -4.6352
-15 -2 -6 12.1563 2.6870
-15 -2 -5 6.4804 2.5520
-15 -2 -4 1.1938 9.4839
-15 -2 -3 2.9293 -5.7320
-15 -2 -2 0.2116 6.0292
-15 -2 -1 2.8172 -0.8326
-15 -1 -22 -16.3757 5.6550
-15 -1 -21 9.2659 -0.9390
-15 -1 -20 -3.7466 1.5482
-15 -1 -19 3.5411 4.1834
-15 -1 -18 9.3507 -2.5495
-15 -1 -17 0.4058 -8.5247
-15 -1 -16 0.8609 13.0963
-15 -1 -15 2.8236 -6.6792
-15 -1 -14 4.4124 5.3196
-15 -1 -13 -5.3406 2.4337
-15 -1 -12 -6.6505 -1.8249
-15 -1 -11 -0.8403 5.2991
-15 -1 -10 6.3952 -2.9430
-15 -1 -9 -0.2788 2.0039
-15 -1 -8 -6.6296 9.7888
-15 -1 -7 1.5744 3.3863
-15 -1 -6 -5.8166 6.7278
-15 -1 -5 2.3262 3.3075
-15 -1 -4 2.8534 0.1881
-15 -1 -3 1.0436 5.0543
-15 -1 -2 9.2923 -1.9633
-15 -1 -1 -0.8331 -7.8660
-14 -10 -8 7.8888 0.4381
-14 -10 -7 -17.8794 -1.1257
-14 -10 -6 15.3679 -5.2940
-14 -10 -5 -1.2617 6.1305
-14 -10 -4 0.1398 -5.9951
-14 -10 -3 -7.1846 3.7774
-14 -10 -2 -1.7715 0.4881
-14 -10 -1 -11.8927 2.5380
-14 -9 -14 1.4163 1.3063
-14 -9 -13 -6.1108 -8.1687
-14 -9 -12 11.0700 1.1953
-14 -9 -11 -3.5179 4.6673
-14 -9 -10 4.5819 -2.9371
-14 -9 -9 -3.0917 3.7160
-14 -9 -8 -5.6466 4.2031
-14 -9 -7 5.1554 4.0217
-14 -9 -6 3.0333 -10.6501
-14 -9 -5 4.9608 10.3669
-14 -9 -4 -4.5457 -22.6158
-14 -9 -3 4.0659 6.5505
-14 -9 -2 -7.0905 8.6448
-14 -9 -1 -0.8946 4.2935
-14 -8 -17 -7.4426 -4.9107
-14 -8 -16 14.1148 -2.5519
-14 -8 -15 -2.4762 -0.4958
-14 -8 -14 -2.9943 6.0940
-14 -8 -13 -2.1174 -0.1525
-14 -8 -12 -5.3171 -6.2979
-14 -8 -11 -1.6817 -3.8761
-14 -8 -10 -3.2607 -3.7045
-14 -8 -9 3.2868 8.3814
-14 -8 -8 -6.7983 2.1598
-14 -8 -7 7.3102 2.2875
-14 -8 -6 3.4932 6.4816
-14 -8 -5 -3.2805 -4.4088
-14 -8 -4 -10.6480 2.1697
-14 -8 -3 10.0617 -11.2291
-14 -8 -2 -13.8474 0.9772
-14 -8 -1 12.7790 -2.6135
-14 -7 -20 7.8479 -5.3638
-14 -7 -19 2.7077 10.2270
-14 -7 -18 -1.6079 5.3340
-14 -7 -17 -4.0416 -5.1714
-14 -7 -16 2.3099 -0.2082
-14 -7 -15 3.4579 0.2564
-14 -7 -14 4.6884 -11.1505
-14 -7 -13 1.6293 4.8607
-14 -7 -12 5.0900 -1.1257
-14 -7 -11 -6.0027 -5.6547
-14 -7 -10 -5.2120 0.6487
-14 -7 -9 -1.7697 -3.1383
-14 -7 -8 0.0579 1.7121
-14 -7 -7 -0.7431 -7.4135
-14 -7 -6 -2.9118 5.9019
-14 -7 -5 -1.0264 -3.6166
-14 -7 -4 6.7218 4.6563
-14 -7 -3 -5.6732 12.3274
-14 -7 -2 -1.3655 4.8720
-14 -7 -1 -7.9684 -12.8863
-14 -6 -22 -5.8695 -0.5655
-14 -6 -21 -8.9078 2.6742
-14 -6 -20 2.4493 -11.1573
-14 -6 -19 -2.5492 8.7655
-14 -6 -18 -1.6472 -1.4380
-14 -6 -17 6.9708 0.9123
-14 -6 -16 -0.7693 3.7010
-14 -6 -15 -6.1892 4.7225
-14 -6 -14 6.6694 1.9631
-14 -6 -13 5.4329 -9.4846
-14 -6 -12 0.1607 -0.3208
-14 -6 -11 7.8146 6.1353
-14 -6 -10 -0.7244 -3.5059
-14 -6 -9 -0.7387 -1.2896
-14 -6 -8 2.7796 -4.9516
-14 -6 -7 -1.7444 -1.1216
-14 -6 -6 -7.9832 3.1499
-14 -6 -5 -12.0915 -5.5425
-14 -6 -4 5.5238 -6.8404
-14 -6 -3 1.6920 -2.1869
-14 -6 -2 4.6305 -0.1996
-14 -6 -1 10.1067 4.3126
-14 -5 -23 4.7400 -6.3119
-14 -5 -22 -1.5006 -1.6747
-14 -5 -21 1.5183 -1.4347
-14 -5 -20 -4.3531 3.3735
-14 -5 -19 3.8477 -0.5768
-14 -5 -18 -8.2201 -8.7042
-14 -5 -17 2.5635 1.7161
-14 -5 -16 0.4404 4.2988
-14 -5 -15 4.3831 2.1811
-14 -5 -14 -2.5606 5.9977
-14 -5 -13 -3.0394 5.2377
-14 -5 -12 0.3536 -6.2029
-14 -5 -11 -5.6892 3.9480
-14 -5 -10 7.4111 5.3317
-14 -5 -9 1.8244 -4.5362
-14 -5 -8 -6.2661 -3.3924
-14 -5 -7 3.6935 -3.5848
-14 -5 -6 7.5022 2.9978
-14 -5 -5 3.5092 0.4675
-14 -5 -4 3.3230 10.1567
-14 -5 -3 -10.8813 4.3028
-14 -5 -2 2.1555 -5.9581
-14 -5 -1 5.0518 -3.0871
-14 -4 -24 6.6275 6.6754
-14 -4 -23 -7.3615 -5.6372
-14 -4 -22 7.3304 -2.9150
-14 -4 -21 -2.1935 -1.1421
-14 -4 -20 8.6334 1.7923
-14 -4 -19 -0.0667 -2.6945
-14 -4 -18 -0.2009 6.2154
-14 -4 -17 -5.6688 -2.5359
-14 -4 -16 -3.8550 2.4779
-14 -4 -15 1.7347 -6.1244
-14 -4 -14 1.9577 -7.6121
-14 -4 -13 -4.8733 -4.4006
-14 -4 -12 -3.1676 6.2856
-14 -4 -11 0.4982 -4.7003
-14 -4 -10 -6.2160 -5.8608
-14 -4 -9 6.0756 5.3046
-14 -4 -8 -1.3271 3.2313
-14 -4 -7 -10.6843 4.8247
-14 -4 -6 -5.3544 -4.6408
-14 -4 -5 1.2623 -7.0654
-14 -4 -4 7.6775 -0.6594
-14 -4 -3 -7.2636 8.7848
-14 -4 -2 5.4689 -1.8460
-14 -4 -1 -1.0571 4.8611
-14 -3 -25 4.5316 0.7237
-14 -3 -24 8.5717 3.1476
-14 -3 -23 -4.2321 3.1403
-14 -3 -22 3.8147 4.1002
-14 -3 -21 -7.4548 6.0374
-14 -3 -20 0.2141 -10.0695
-14 -3 -19 1.2779 8.0958
-14 -3 -18 2.5900 -8.5496
-14 -3 -17 3.8986 4.3002
-14 -3 -16 14.1678 -0.9185
-14 -3 -15 0.3080 -0.1892
-14 -3 -14 0.4589 -8.5118
-14 -3 -13 1.6970 -2.5269
-14 -3 -12 0.9455 -2.2163
-14 -3 -11 -1.0156 4.8612
-14 -3 -10 0.6877 -5.0135
-14 -3 -9 -5.9241 -10.6705
-14 -3 -8 7.2829 5.2046
-14 -3 -7 7.2400 -2.3149
-14 -3 -6 -0.1741 2.7383
-14 -3 -5 -3.5410 1.5770
-14 -3 -4 -7.3588 -0.3927
-14 -3 -3 5.2842 -0.2796
-14 -3 -2 4.2673 -4.2340
-14 -3 -1 0.6318 7.6407
-14 -2 -26 -1.5925 8.3184
-14 -2 -25 -5.3116 -1.2895
-14 -2 -24 -3.3149 -4.5241
-14 -2 -23 1.6902 -5.5956
-14 -2 -22 -0.3452 1.6709
-14 -2 -21 -1.9520 5.7014
-14 -2 -20 6.2876 -1.1989
-14 -2 -19 -3.7808 11.1277
-14 -2 -18 -6.0703 6.5018
-14 -2 -17 16.5351 2.0295
-14 -2 -16 -4.0025 -1.6642
-14 -2 -15 7.5646 -1.5334
-14 -2 -14 -4.7194 -4.3944
-14 -2 -13 0.7722 4.3073
-14 -2 -12 -3.6122 -1.2026
-14 -2 -11 6.7509 -3.5009
-14 -2 -10 -2.0748 5.0872
-14 -2 -9 1.3229 2.4288
-14 -2 -8 -5.9525 -3.4742
-14 -2 -7 -2.9576 -0.4900
-14 -2 -6 10.5947 -4.8327
-14 -2 -5 -4.7981 8.7582
-14 -2 -4 -0.7440 3.5041
-14 -2 -3 -0.1761 -5.0448
-14 -2 -2 3.9850 -5.2041
-14 -2 -1 3.0162 -11.2162
-14 -1 -26 9.2799 -2.9558
-14 -1 -25 -0.0306 3.6695
-14 -1 -24 1.2869 0.1716
-14 -1 -23 -4.8486 0.6738
-14 -1 -22 -4.4127 0.9898
-14 -1 -21 -5.5721 -4.8780
-14 -1 -20 2.9086 4.8566
-14 -1 -19 -3.1315 8.9636
-14 -1 -18 1.1634 -4.5611
-14 -1 -17 8.1976 8.1576
-14 -1 -16 3.8326 -4.4657
-14 -1 -15 -4.2559 -15.4204
-14 -1 -14 -0.0189 8.0578
-14 -1 -13 2.7204 -4.2122
-14 -1 -12 1.0697 4.3799
-14 -1 -11 5.7576 -6.4132
-14 -1 -10 2.7784 1.7721
-14 -1 -9 -0.0008 -1.6321
-14 -1 -8 2.6001 5.2720
-14 -1 -7 -8.2655 -3.7174
-14 -1 -6 -3.6265 0.6739
-14 -1 -5 9.4521 2.9843
-14 -1 -4 6.8718 -0.0141
-14 -1 -3 11.1535 10.6648
-14 -1 -2 0.7427 2.6952
-14 -1 -1 -1.0031 8.8893
-13 -11 -11 0.7496 10.6628
-13 -11 -10 -12.9333 -0.5666
-13 -11 -9 -4.1457 5.0600
-13 -11 -8 2.7733 9.7903
-13 -11 -7 1.6533 -7.8022
-13 -11 -6 1.9975 1.0148
-13 -11 -5 -2.1055 -10.0065
-13 -11 -4 -6.3498 7.0019
-13 -11 -3 -12.4440 3.1747
-13 -11 -2 -2.1458 7.1959
-13 -11 -1 -7.3037 2.4136
-13 -10 -16 -4.0659 -9.5871
-13 -10 -15 2.3962 -1.7768
-13 -10 -14 2.1603 3.7572
-13 -10 -13 -5.7996 -12.2664
-13 -10 -12 -3.0178 1.6479
-13 -10 -11 -8.5183 -1.0467
-13 -10 -10 -9.3694 -1.8000
-13 -10 -9 10.2127 0.1789
-13 -10 -8 -3.2949 8.1528
-13 -10 -7 1.8391 -1.5086
-13 -10 -6 6.9912 -8.2797
-13 -10 -5 -13.9884 -3.9881
-13 -10 -4 3.9798 -0.6538
-13 -10 -3 -14.3918 -3.6862
-13 -10 -2 6.1282 -3.0578
-13 -10 -1 -7.9209 -2.5935
-13 -9 -19 5.6192 -5.2912
-13 -9 -18 2.8809 -3.3765
-13 -9 -17 4.9824 22.3772
-13 -9 -16 -1.2188 -12.6441
-13 -9 -15 9.0259 6.8974
-13 -9 -14 -8.4241 -3.7090
-13 -9 -13 4.5410 -2.7331
-13 -9 -12 7.8290 -2.3798
-13 -9 -11 -11.1727 5.1299
-13 -9 -10 1.5061 -0.3015
-13 -9 -9 -0.9789 7.7015
-13 -9 -8 -1.1062 0.8287
-13 -9 -7 1.0534 -9.3688
-13 -9 -6 3.1055 2.3025
-13 -9 -5 2.4816 0.2147
-13 -9 -4 3.1830 -9.1100
-13 -9 -3 7.7197 6.8452
-13 -9 -2 4.3497 -12.5093
-13 -9 -1 -0.2939 6.3043
-13 -8 -22 8.5513 0.3946
-13 -8 -21 -0.6232 6.7297
-13 -8 -20 -19.0388 3.5372
-13 -8 -19 0.8154 1.7113
-13 -8 -18 -7.4879 6.9005
-13 -8 -17 -8.1945 -3.6519
-13 -8 -16 -9.6586 2.8404
-13 -8 -15 10.0392 3.6786
-13 -8 -14 -14.2438 5.9159
-13 -8 -13 -1.1771 -8.8434
-13 -8 -12 -8.6824 3.9697
-13 -8 -11 -0.8977 -5.7971
-13 -8 -10 0.2150 -5.8340
-13 -8 -9 0.9486 9.7916
-13 -8 -8 -5.5037 -4.3581
-13 -8 -7 3.1492 4.2169
-13 -8 -6 -0.1234 8.8798
-13 -8 -5 -1.0352 4.8688
-13 -8 -4 1.6524 2.4322
-13 -8 -3 8.2758 1.8088
-13 -8 -2 1.1370 3.1934
-13 -8 -1 11.5078 -0.4532
-13 -7 -24 -10.4450 -0.4356
-13 -7 -23 -1.1964 -7.2616
-13 -7 -22 -6.1870 -3.3774
-13 -7 -21 -1.1595 -8.3322
-13 -7 -20 0.3752 -12.1369
-13 -7 -19 -2.6872 -13.4316
-13 -7 -18 -6.1577 4.2187
-13 -7 -17 -6.3463 -14.9211
-13 -7 -16 1.5262 -7.3988
-13 -7 -15 -1.3532 -5.2897
-13 -7 -14 3.7945 -3.0203
-13 -7 -13 2.6905 -9.8178
-13 -7 -12 0.4710 1.9717
-13 -7 -11 -7.5164 -1.5950
-13 -7 -10 4.1332 -2.8165
-13 -7 -9 -5.9088 -4.4732
-13 -7 -8 -9.8269 0.4913
-13 -7 -7 5.5369 3.4814
-13 -7 -6 -10.7573 2.2302
-13 -7 -5 -1.1146 -0.5415
-13 -7 -4 -0.7226 3.0472
-13 -7 -3 -4.0798 5.0772
-13 -7 -2 -2.2245 6.6321
-13 -7 -1 -2.7467 -5.9025
-13 -6 -26 -3.6062 -4.2954
-13 -6 -25 1.3200 -4.3523
-13 -6 -24 3.1625 -0.5316
-13 -6 -23 11.5413 -1.6837
-13 -6 -22 4.8093 4.7257
-13 -6 -21 2.4663 -9.8720
-13 -6 -20 9.1689 -3.0676
-13 -6 -19 6.6206 -4.7434
-13 -6 -18 6.6590 -5.3546
-13 -6 -17 -0.4825 4.8572
-13 -6 -16 17.1783 0.3804
-13 -6 -15 -0.3800 0.3397
-13 -6 -14 0.1515 -5.4505
-13 -6 -13 4.3229 -3.1050
-13 -6 -12 6.9882 -0.2775
-13 -6 -11 -0.4468 -5.5417
-13 -6 -10 -4.9129 0.6346
-13 -6 -9 -0.9016 -0.4917
-13 -6 -8 -0.1862 -9.6551
-13 -6 -7 1.7789 1.1175
-13 -6 -6 -3.4831 4.0848
-13 -6 -5 -3.6054 -12.1096
-13 -6 -4 -4.9167 7.1005
-13 -6 -3 3.0378 0.1347
-13 -6 -2 -0.2223 0.6513
-13 -6 -1 -1.0744 0.5378
-13 -5 -27 1.0118 1.8106
-13 -5 -26 0.3269 6.6735
-13 -5 -25 -1.1948 -0.0536
-13 -5 -24 -0.7390 3.2051
-13 -5 -23 5.9090 -2.7156
-13 -5 -22 2.9049 5.5349
-13 -5 -21 9.3044 -0.6849
-13 -5 -20 -0.2620 4.0568
-13 -5 -19 -3.1579 6.6854
-13 -5 -18 3.7911 4.4353
-13 -5 -17 2.1276 3.0302
-13 -5 -16 2.2550 -0.2151
-13 -5 -15 8.0558 10.0067
-13 -5 -14 -1.8267 -4.6966
-13 -5 -13 1.9554 3.0966
-13 -5 -12 0.7739 -1.6006
-13 -5 -11 1.6907 -3.9549
-13 -5 -10 6.3695 -1.3539
-13 -5 -9 -9.3725 5.0032
-13 -5 -8 6.0046 -1.0284
-13 -5 -7 0.6980 -8.4301
-13 -5 -6 -9.0505 -5.8163
-13 -5 -5 1.2371 0.6400
-13 -5 -4 2.8136 7.0729
-13 -5 -3 -6.5171 -2.3374
-13 -5 -2 7.7923 -0.5652
-13 -5 -1 3.1164 -3.5387
-13 -4 -28 -6.1924 -7.8129
-13 -4 -27 0.1331 4.5547
-13 -4 -26 1.0312 -0.2988
-13 -4 -25 6.0366 4.6198
-13 -4 -24 -0.6408 6.3159
-13 -4 -23 -2.8195 2.9871
-13 -4 -22 3.2679 0.5718
-13 -4 -21 -6.5131 -0.3379
-13 -4 -20 2.7202 4.5848
-13 -4 -19 -3.9324 -4.0174
-13 -4 -18 -0.7805 12.6535
-13 -4 -17 0.7331 -0.2617
-13 -4 -16 -0.8671 -2.1586
-13 -4 -15 -2.7750 4.2097
-13 -4 -14 1.4972 0.7604
-13 -4 -13 8.2139 -0.4349
-13 -4 -12 -6.1643 2.6153
-13 -4 -11 -1.4157 -3.2867
-13 -4 -10 3.0752 -3.0509
-13 -4 -9 8.2725 -1.7892
-13 -4 -8 1.2238 -4.6281
-13 -4 -7 0.7745 10.5544
-13 -4 -6 -6.9727 -11.0222
-13 -4 -5 3.6130 -1.1955
-13 -4 -4 3.0899 12.3117
-13 -4 -3 2.5356 0.6906
-13 -4 -2 -0.1122 -1.1429
-13 -4 -1 -6.7612 2.5590
-13 -3 -29 -4.0316 -4.6556
-13 -3 -28 -3.0447 7.0572
-13 -3 -27 -2.8557 -0.2182
-13 -3 -26 -8.3722 -2.4415
-13 -3 -25 3.4189 0.4507
-13 -3 -24 -0.6810 0.6746
-13 -3 -23 1.1659 -0.2739
-13 -3 -22 0.6985 5.1027
-13 -3 -21 -4.1403 0.4163
-13 -3 -20 -5.8175 -5.0692
-13 -3 -19 2.2241 8.4893
-13 -3 -18 -0.5453 -4.3363
-13 -3 -17 -4.6041 1.5524
-13 -3 -16 7.9626 1.8774
-13 -3 -15 -6.9092 3.0335
-13 -3 -14 -2.1933 0.0133
-13 -3 -13 7.7949 0.9649
-13 -3 -12 0.8308 -0.1020
-13 -3 -11 0.6464 2.2046
-13 -3 -10 -3.3865 3.8003
-13 -3 -9 -0.9372 -2.8705
-13 -3 -8 5.0514 -3.5698
-13 -3 -7 -0.8470 0.2858
-13 -3 -6 -5.2480 12.1187
-13 -3 -5 5.4225 -1.9654
-13 -3 -4 -7.1799 -0.6076
-13 -3 -3 -0.1006 -10.3587
-13 -3 -2 5.8146 0.8614
-13 -3 -1 -1.3638 0.5778
-13 -2 -29 2.8040 0.6241
-13 -2 -28 5.1466 -6.4059
-13 -2 -27 0.7025 7.2363
-13 -2 -26 2.9468 4.0668
-13 -2 -25 -7.6572 0.7186
-13 -2 -24 -7.3320 2.1236
-13 -2 -23 7.8708 -3.0801
-13 -2 -22 -1.8201 -1.8053
-13 -2 -21 -4.2470 -1.5025
-13 -2 -20 -0.7649 1.5887
-13 -2 -19 0.1235 1.6390
-13 -2 -18 -7.3206 3.1344
-13 -2 -17 1.1842 -9.5932
-13 -2 -16 -7.6646 5.3160
-13 -2 -15 3.0200 -0.4478
-13 -2 -14 0.0349 -2.8411
-13 -2 -13 -0.7604 2.1147
-13 -2 -12 -1.5400 -2.6896
-13 -2 -11 2.4734 -4.6807
-13 -2 -10 0.5829 7.0031
-13 -2 -9 -3.5203 2.8650
-13 -2 -8 -6.1626 1.1333
-13 -2 -7 3.5902 -2.3332
-13 -2 -6 7.0850 -4.3949
-13 -2 -5 3.1448 8.0115
-13 -2 -4 5.9387 2.7524
-13 -2 -3 -8.6707 -2.9808
-13 -2 -2 1.4519 6.9541
-13 -2 -1 -2.2075 3.1767
-13 -1 -30 2.9676 12.1288
-13 -1 -29 -7.7896 -0.2228
-13 -1 -28 -9.0322 1.5889
-13 -1 -27 1.9099 -8.0132
-13 -1 -26 -4.7438 -2.3862
-13 -1 -25 2.5143 5.1839
-13 -1 -24 1.4242 -2.1042
-13 -1 -23 -2.3038 0.7392
-13 -1 -22 -2.5342 -0.2849
-13 -1 -21 1.3409 -11.8823
-13 -1 -20 0.3629 2.3305
-13 -1 -19 2.6848 -4.1559
-13 -1 -18 3.7746 -4.1868
-13 -1 -17 0.2136 -4.5237
-13 -1 -16 6.0309 4.9211
-13 -1 -15 -5.6732 -2.6256
-13 -1 -14 12.8112 -0.0538
-13 -1 -13 -7.9899 -6.3207
-13 -1 -12 -4.0978 0.5555
-13 -1 -11 -3.9750 -0.5535
-13 -1 -10 -1.0082 -0.8685
-13 -1 -9 2.4134 4.3468
-13 -1 -8 4.5148 7.1123
-13 -1 -7 -3.7450 7.0120
-13 -1 -6 -4.1097 -0.6474
-13 -1 -5 0.5713 -9.5133
-13 -1 -4 -7.7333 -0.7581
-13 -1 -3 1.7675 3.9369
-13 -1 -2 0.1473 -3.0517
-13 -1 -1 3.3889 1.9026
-12 -13 -2 0.3168 -0.2589
-12 -13 -1 -1.9643 0.7632
-12 -12 -12 0.4892 3.8367
-12 -12 -11 1.7174 0.7274
-12 -12 -10 -6.3004 -1.6842
-12 -12 -9 -2.8146 -3.7990
-12 -12 -8 -2.6999 -0.4277
-12 -12 -7 17.7031 0.2172
-12 -12 -6 -9.5616 0.1975
-12 -12 -5 2.4895 1.7037
-12 -12 -4 -0.8337 -1.5449
-12 -12 -3 1.5287 -5.3487
-12 -12 -2 -5.3437 -2.9218
-12 -12 -1 -1.1734 1.3621
-12 -11 -17 3.7106 -2.7571
-12 -11 -16 -11.5049 -2.9346
-12 -11 -15 -7.8199 -1.8792
-12 -11 -14 -6.6722 5.6873
-12 -11 -13 4.9437 -8.3806
-12 -11 -12 -0.4067 -11.0047
-12 -11 -11 2.2376 1.2172
-12 -11 -10 -2.2006 2.4494
-12 -11 -9 -4.9596 1.7305
-12 -11 -8 1.1024 1.1244
-12 -11 -7 -2.2273 1.8994
-12 -11 -6 3.0071 1.4939
-12 -11 -5 9.4150 -10.4388
-12 -11 -4 1.9883 2.4002
-12 -11 -3 4.0165 -4.3679
-12 -11 -2 -1.5469 -3.1801
-12 -11 -1 -3.2321 2.4429
-12 -10 -20 -2.9127 14.5770
-12 -10 -19 2.2876 -19.4454
-12 -10 -18 3.3094 -0.9240
-12 -10 -17 -9.5199 -6.1781
-12 -10 -16 6.5760 2.4507
-12 -10 -15 2.4590 -0.5752
-12 -10 -14 6.8791 5.8851
-12 -10 -13 -3.3221 1.4132
-12 -10 -12 5.1916 2.0172
-12 -10 -11 -10.1421 -8.3782
-12 -10 -10 -4.2201 0.5286
-12 -10 -9 3.0646 2.9977
-12 -10 -8 3.2816 3.3528
-12 -10 -7 1.9644 12.6835
-12 -10 -6 3.4028 1.9697
-12 -10 -5 9.2028 7.6780
-12 -10 -4 1.4503 -0.4314
-12 -10 -3 -3.4082 -9.6509
-12 -10 -2 0.1994 2.1544
-12 -10 -1 0.9714 2.0632
-12 -9 -23 -4.8647 0.5214
-12 -9 -22 14.4080 4.3087
-12 -9 -21 4.6696 -7.5761
-12 -9 -20 -0.7868 5.1569
-12 -9 -19 -6.0160 -7.2205
-12 -9 -18 15.8882 2.8723
-12 -9 -17 -21.0262 1.6366
-12 -9 -16 -3.6660 -2.2806
-12 -9 -15 -0.0237 6.6901
-12 -9 -14 -1.9195 -11.9004
-12 -9 -13 4.3265 -2.0052
-12 -9 -12 -6.9237 -2.5839
-12 -9 -11 -1.5060 7.0949
-12 -9 -10 -3.0148 -2.6735
-12 -9 -9 -15.4165 6.6735
-12 -9 -8 -5.7694 8.4039
-12 -9 -7 -0.9912 2.8179
-12 -9 -6 -0.9296 4.2301
-12 -9 -5 11.5355 2.7264
-12 -9 -4 -5.1967 4.1546
-12 -9 -3 2.0441 3.3297
-12 -9 -2 -3.1896 2.8289
-12 -9 -1 -9.2622 -2.0796
-12 -8 -26 0.3334 0.5228
-12 -8 -25 -5.7456 11.3287
-12 -8 -24 3.6675 7.5522
-12 -8 -23 -4.6362 1.1427
-12 -8 -22 2.8364 -4.0713
-12 -8 -21 0.8800 16.9025
-12 -8 -20 3.5655 -13.4429
-12 -8 -19 -2.1510 -8.6574
-12 -8 -18 3.4437 0.8340
-12 -8 -17 1.9359 3.7198
-12 -8 -16 5.3618 -12.5852
-12 -8 -15 3.6018 6.0563
-12 -8 -14 -5.8943 -1.7178
-12 -8 -13 1.2836 -9.7785
-12 -8 -12 -8.3605 -1.4112
-12 -8 -11 -2.7099 -19.0349
-12 -8 -10 -4.4597 7.0838
-12 -8 -9 -5.0830 -4.4194
-12 -8 -8 -7.8976 0.0172
-12 -8 -7 -7.9300 9.6364
-12 -8 -6 -1.9798 -2.6427
-12 -8 -5 -13.3196 -2.1594
-12 -8 -4 2.0991 -2.6877
-12 -8 -3 2.9399 -9.9867
-12 -8 -2 2.0511 10.4334
-12 -8 -1 3.7330 0.8546
-12 -7 -27 -14.7896 -3.0610
-12 -7 -26 3.5901 -8.1528
-12 -7 -25 -9.8009 -3.2545
-12 -7 -24 -7.4702 3.1227
-12 -7 -23 1.2135 4.0069
-12 -7 -22 1.7057 -2.2892
-12 -7 -21 0.0355 5.5591
-12 -7 -20 -6.5414 0.2537
-12 -7 -19 12.8098 3.6366
-12 -7 -18 -8.3269 1.6128
-12 -7 -17 -4.0823 -0.0240
-12 -7 -16 9.2136 -0.8048
-12 -7 -15 5.9393 -5.3452
-12 -7 -14 0.9936 -0.0144
-12 -7 -13 6.8693 -4.4283
-12 -7 -12 5.2136 -2.3169
-12 -7 -11 -5.5873 -9.9192
-12 -7 -10 3.2617 -5.8901
-12 -7 -9 -10.9083 -5.7907
-12 -7 -8 14.8447 -10.6719
-12 -7 -7 -1.7205 -2.9907
-12 -7 -6 0.4964 1.2913
-12 -7 -5 5.1892 9.3515
-12 -7 -4 -6.7838 -3.8824
-12 -7 -3 -0.3395 6.1028
-12 -7 -2 -2.0412 -9.9867
-12 -7 -1 0.6569 -0.7954
-12 -6 -29 5.3836 -1.8715
-12 -6 -28 10.8679 -7.8287
-12 -6 -27 -3.5870 -6.2251
-12 -6 -26 1.2137 -5.4243
-12 -6 -25 -4.5968 2.3480
-12 -6 -24 -1.1991 -9.5273
-12 -6 -23 -1.9615 4.4250
-12 -6 -22 0.6371 -0.4058
-12 -6 -21 1.4629 -2.5825
-12 -6 -20 -2.8943 -6.2695
-12 -6 -19 0.9576 0.6561
-12 -6 -18 -1.0026 7.8302
-12 -6 -17 -1.1859 -7.6648
-12 -6 -16 -1.8511 5.6895
-12 -6 -15 1.3153 10.3184
-12 -6 -14 8.5761 -4.2298
-12 -6 -13 2.5437 -0.2864
-12 -6 -12 8.8769 2.5123
-12 -6 -11 4.3018 4.3017
-12 -6 -10 3.5140 4.6517
-12 -6 -9 -4.1374 3.5035
-12 -6 -8 -2.1967 -0.2149
-12 -6 -7 -1.6470 5.8071
-12 -6 -6 -4.8464 -7.9206
-12 -6 -5 2.9088 1.4604
-12 -6 -4 5.5945 -0.2887
-12 -6 -3 6.1787 1.6332
-12 -6 -2 -10.6528 12.0426
-12 -6 -1 -0.4584 0.6477
-12 -5 -30 1.9198 2.3202
-12 -5 -29 7.8394 1.6477
-12 -5 -28 1.5198 -4.6789
-12 -5 -27 2.1217 -4.6113
-12 -5 -26 -1.4769 -1.4722
-12 -5 -25 -5.8381 6.5867
-12 -5 -24 2.1103 -1.1428
-12 -5 -23 3.5773 4.2858
-12 -5 -22 -1.0024 -3.2026
-12 -5 -21 5.2480 -2.8201
-12 -5 -20 -5.0474 -2.5197
-12 -5 -19 5.7695 -9.4964
-12 -5 -18 -8.2129 -1.0438
-12 -5 -17 -0.8104 1.6074
-12 -5 -16 3.0223 3.7808
-12 -5 -15 -9.0155 5.1649
-12 -5 -14 -1.7278 5.2503
-12 -5 -13 1.3954 -0.4120
-12 -5 -12 -9.4567 -7.0203
-12 -5 -11 -3.9582 1.0420
-12 -5 -10 0.3767 -2.2001
-12 -5 -9 -4.1965 -2.6130
-12 -5 -8 0.8062 -0.6507
-12 -5 -7 -5.6914 7.1504
-12 -5 -6 4.9516 -1.5226
-12 -5 -5 -1.4906 -1.2001
-12 -5 -4 -8.3238 -3.8284
-12 -5 -3 -4.5846 1.4441
-12 -5 -2 -0.4101 2.5252
-12 -5 -1 3.3611 0.2076
-12 -4 -31 2.7589 0.9875
-12 -4 -30 3.6898 5.0748
-12 -4 -29 6.7407 -6.0606
-12 -4 -28 -7.7019 -5.1949
-12 -4 -27 -0.8738 -8.7410
-12 -4 -26 -4.8096 -2.0875
-12 -4 -25 -1.7698 2.8562
-12 -4 -24 4.2535 2.3661
-12 -4 -23 7.9028 1.9191
-12 -4 -22 5.9015 -6.1290
-12 -4 -21 7.8867 0.8760
-12 -4 -20 3.8409 -0.6827
-12 -4 -19 -2.4585 -5.5926
-12 -4 -18 2.1662 4.5146
-12 -4 -17 -10.1696 -11.0163
-12 -4 -16 4.3462 9.1214
-12 -4 -15 3.8087 -3.8914
-12 -4 -14 1.6713 -7.5203
-12 -4 -13 0.8261 5.2418
-12 -4 -12 1.6072 -5.4801
-12 -4 -11 -3.1772 -6.4660
-12 -4 -10 -6.3856 -2.9014
-12 -4 -9 5.7006 0.8079
-12 -4 -8 5.9319 0.0855
-12 -4 -7 -1.1784 2.4080
-12 -4 -6 -1.3834 -12.4480
-12 -4 -5 5.9558 0.7682
-12 -4 -4 -8.3581 -10.5237
-12 -4 -3 -4.6152 4.0285
-12 -4 -2 -5.5992 2.6945
-12 -4 -1 8.3089 -2.0989
-12 -3 -32 3.6111 2.5088
-12 -3 -31 -2.3792 4.6701
-12 -3 -30 16.0706 -7.2517
-12 -3 -29 6.1561 -3.2198
-12 -3 -28 3.1827 -0.7400
-12 -3 -27 -3.5171 -4.5859
-12 -3 -26 -4.1844 12.3607
-12 -3 -25 2.3757 4.0463
-12 -3 -24 3.3977 9.4450
-12 -3 -23 4.9251 6.4170
-12 -3 -22 2.2743 2.9628
-12 -3 -21 1.2240 1.0208
-12 -3 -20 -1.5077 -3.7468
-12 -3 -19 2.1565 0.8915
-12 -3 -18 -5.7311 -0.8605
-12 -3 -17 -4.8227 6.7433
-12 -3 -16 4.8894 -6.6540
-12 -3 -15 -5.5602 7.3611
-12 -3 -14 10.1430 -10.6504
-12 -3 -13 0.2590 -5.0609
-12 -3 -12 -3.0282 2.4894
-12 -3 -11 8.1205 6.9441
-12 -3 -10 -9.0485 5.3006
-12 -3 -9 2.8793 1.1182
-12 -3 -8 5.5737 3.2761
-12 -3 -7 11.6500 -3.0397
-12 -3 -6 5.6020 -3.9922
-12 -3 -5 -0.4020 0.7183
-12 -3 -4 -6.0428 6.1774
-12 -3 -3 11.0944 2.4778
-12 -3 -2 -2.3744 9.1983
-12 -3 -1 6.4344 -1.5312
-12 -2 -32 -0.4521 14.4023
-12 -2 -31 3.6737 3.3679
-12 -2 -30 -0.3751 -0.2020
-12 -2 -29 1.9005 2.0696
-12 -2 -28 -8.1904 -9.1642
-12 -2 -27 -5.1572 1.4441
-12 -2 -26 -5.9461 7.6133
-12 -2 -25 -9.7255 2.8236
-12 -2 -24 4.4300 3.3971
-12 -2 -23 -3.2157 -2.8455
-12 -2 -22 4.3726 3.3608
-12 -2 -21 0.3441 -3.3787
-12 -2 -20 0.2173 -9.9614
-12 -2 -19 0.1458 -4.1171
-12 -2 -18 -0.6646 2.0618
-12 -2 -17 7.0904 0.1657
-12 -2 -16 4.9292 3.7457
-12 -2 -15 8.5338 -1.8023
-12 -2 -14 -9.4792 -0.9374
-12 -2 -13 0.2362 0.4413
-12 -2 -12 -15.4233 -6.7669
-12 -2 -11 -0.7519 0.7198
-12 -2 -10 5.4034 13.4770
-12 -2 -9 -0.3257 0.4891
-12 -2 -8 -1.2963 11.0859
-12 -2 -7 -5.3555 -5.9095
-12 -2 -6 -2.0153 3.0320
-12 -2 -5 -6.9162 2.1640
-12 -2 -4 -7.0092 -0.7109
-12 -2 -3 -0.3570 6.1356
-12 -2 -2 10.0088 2.6137
-12 -2 -1 2.7713 -4.6055
-12 -1 -33 -1.5784 6.3803
-12 -1 -32 0.2112 -1.3993
-12 -1 -31 -3.3926 -2.5080
-12 -1 -30 11.4153 1.0372
-12 -1 -29 -5.6004 -3.2863
-12 -1 -28 -4.2736 -4.6376
-12 -1 -27 1.9917 -4.6239
-12 -1 -26 -3.4329 4.6103
-12 -1 -25 -0.5505 0.4560
-12 -1 -24 2.7058 5.4826
-12 -1 -23 1.6421 5.7346
-12 -1 -22 9.8117 -4.1436
-12 -1 -21 1.4528 4.7169
-12 -1 -20 3.3611 -0.3738
-12 -1 -19 -3.5558 8.2048
-12 -1 -18 -7.3312 5.4434
-12 -1 -17 4.5225 4.3878
-12 -1 -16 5.5261 -4.4563
-12 -1 -15 -0.5288 -7.3446
-12 -1 -14 4.2874 -9.1512
-12 -1 -13 -3.6479 -3.0919
-12 -1 -12 -0.5622 9.0402
-12 -1 -11 -6.6948 -4.0967
-12 -1 -10 -5.1465 5.7022
-12 -1 -9 0.0541 -7.4997
-12 -1 -8 10.0803 -3.6624
-12 -1 -7 -7.2628 1.2419
-12 -1 -6 4.0839 -4.4886
-12 -1 -5 -1.0786 4.3321
-12 -1 -4 5.1865 6.0921
-12 -1 -3 0.3549 4.1743
-12 -1 -2 -11.7131 -1.8533
-12 -1 -1 2.3924 0.0008
-11 -13 -12 -3.0670 12.9977
-11 -13 -11 -2.7169 0.5161
-11 -13 -10 -1.1447 8.2680
-11 -13 -9 -3.6881 6.2231
-11 -13 -8 -3.2362 -1.7288
-11 -13 -7 -4.6681 2.3986
-11 -13 -6 4.2875 -5.3048
-11 -13 -5 -7.5275 5.2761
-11 -13 -4 -1.1954 1.4829
-11 -13 -3 1.9794 0.6033
-11 -13 -2 -16.0459 4.6447
-11 -13 -1 -11.0793 5.2126
-11 -12 -18 1.9595 -5.5646
-11 -12 -17 -8.3627 6.2067
-11 -12 -16 -3.3501 4.1479
-11 -12 -15 -8.3945 0.3802
-11 -12 -14 -0.3929 4.0496
-11 -12 -13 -4.7876 3.4017
-11 -12 -12 1.6721 -5.6969
-11 -12 -11 -8.9657 2.0084
-11 -12 -10 4.7879 7.6388
-11 -12 -9 -4.6865 -1.7551
-11 -12 -8 -0.4041 -0.9046
-11 -12 -7 -0.4262 4.0563
-11 -12 -6 -1.3707 7.4097
-11 -12 -5 1.2288 -6.9756
-11 -12 -4 -3.2030 -12.1038
-11 -12 -3 -4.8608 -1.5816
-11 -12 -2 1.8532 2.2788
-11 -12 -1 -8.1899 -3.3465
-11 -11 -21 -5.7046 5.3755
-11 -11 -20 2.8477 -2.6148
-11 -11 -19 3.1246 7.2799
-11 -11 -18 -13.7572 -17.5380
-11 -11 -17 3.3579 5.2751
-11 -11 -16 -10.1930 5.6261
-11 -11 -15 1.6256 0.2150
-11 -11 -14 -5.8440 1.0581
-11 -11 -13 -8.0783 0.0784
-11 -11 -12 -6.9219 3.1789
-11 -11 -11 5.5126 -1.1605
-11 -11 -10 -14.6248 -4.9367
-11 -11 -9 -9.5783 2.9114
-11 -11 -8 1.5223 1.4966
-11 -11 -7 -3.5203 3.8410
-11 -11 -6 3.6953 2.1605
-11 -11 -5 0.1351 -5.3638
-11 -11 -4 2.9397 -6.7308
-11 -11 -3 -8.0941 -5.9527
-11 -11 -2 -1.7305 -6.0313
-11 -11 -1 -3.4399 -3.1995
-11 -10 -24 2.8462 3.0222
-11 -10 -23 -5.4326 7.8434
-11 -10 -22 -8.2767 2.3172
-11 -10 -21 13.9043 4.5026
-11 -10 -20 -2.9827 -9.7178
-11 -10 -19 -8.1771 3.4431
-11 -10 -18 -7.1926 -2.5327
-11 -10 -17 3.6873 -11.7522
-11 -10 -16 -12.3701 2.1912
-11 -10 -15 -3.5327 -12.4455
-11 -10 -14 4.3332 0.2774
-11 -10 -13 -7.2271 -4.8209
-11 -10 -12 3.9044 -10.8912
-11 -10 -11 -7.8223 -5.4793
-11 -10 -10 -0.2220 -4.3950
-11 -10 -9 -5.5384 -10.6314
-11 -10 -8 -5.3174 9.9767
-11 -10 -7 6.5185 2.8334
-11 -10 -6 11.8028 -9.1494
-11 -10 -5 2.4407 5.4264
-11 -10 -4 8.1378 -2.2014
-11 -10 -3 2.1195 0.3267
-11 -10 -2 6.7757 -5.8621
-11 -10 -1 3.8375 -1.0292
-11 -9 -27 0.0215 -1.4148
-11 -9 -26 -14.4413 0.3774
-11 -9 -25 -8.8786 -2.0816
-11 -9 -24 -6.5494 1.7826
-11 -9 -23 -1.3364 1.4397
-11 -9 -22 -6.2925 -7.6810
-11 -9 -21 -0.1551 0.1401
-11 -9 -20 3.2533 -1.9502
-11 -9 -19 1.7011 -15.4539
-11 -9 -18 -0.8489 -0.0668
-11 -9 -17 6.1325 5.7441
-11 -9 -16 3.3486 -6.5356
-11 -9 -15 -6.3670 -7.2282
-11 -9 -14 12.6946 0.4145
-11 -9 -13 4.2062 1.4208
-11 -9 -12 4.0351 -13.5475
-11 -9 -11 3.8364 3.0816
-11 -9 -10 -14.3613 -4.2265
-11 -9 -9 6.3534 13.7838
-11 -9 -8 -4.1580 2.6259
-11 -9 -7 -8.0664 3.4711
-11 -9 -6 2.6387 8.1195
-11 -9 -5 4.8865 2.8483
-11 -9 -4 -1.6236 1.7578
-11 -9 -3 9.6212 10.5561
-11 -9 -2 -5.3582 -3.0395
-11 -9 -1 2.2250 0.9086
-11 -8 -29 4.6624 -5.2699
-11 -8 -28 -6.8788 -15.1923
-11 -8 -27 -2.4662 -6.3687
-11 -8 -26 4.3144 -4.0519
-11 -8 -25 3.5243 -10.9306
-11 -8 -24 -2.7789 -2.5125
-11 -8 -23 2.3761 -1.9554
-11 -8 -22 11.3276 -2.2668
-11 -8 -21 2.5140 -4.6874
-11 -8 -20 -9.4193 3.2578
-11 -8 -19 6.1289 0.2475
-11 -8 -18 4.6953 -6.6109
-11 -8 -17 -4.8990 2.9627
-11 -8 -16 0.0156 4.2861
-11 -8 -15 10.4034 2.4075
-11 -8 -14 -1.1478 -1.4211
-11 -8 -13 -2.7498 1.0045
-11 -8 -12 -6.6401 -11.5945
-11 -8 -11 1.2613 -4.3050
-11 -8 -10 -12.0088 0.2939
-11 -8 -9 2.5036 -11.2054
-11 -8 -8 -6.9636 12.5530
-11 -8 -7 2.9518 -8.9984
-11 -8 -6 -10.3879 11.7551
-11 -8 -5 -7.6837 -0.3720
-11 -8 -4 2.9337 -3.7793
-11 -8 -3 4.6802 -4.8324
-11 -8 -2 6.4344 7.5592
-11 -8 -1 6.2000 3.3058
-11 -7 -30 3.4111 -13.0508
-11 -7 -29 9.7921 5.0438
-11 -7 -28 0.5435 0.6522
-11 -7 -27 4.0619 1.6703
-11 -7 -26 0.7413 3.3779
-11 -7 -25 7.1954 8.6067
-11 -7 -24 3.3392 1.1981
-11 -7 -23 -2.5867 -3.1241
-11 -7 -22 1.1402 5.9365
-11 -7 -21 3.3135 -0.2274
-11 -7 -20 0.3661 -5.9162
-11 -7 -19 -3.6035 1.8267
-11 -7 -18 1.7304 4.4141
-11 -7 -17 -1.0498 -4.3299
-11 -7 -16 -3.1487 -3.8255
-11 -7 -15 8.8569 0.7554
-11 -7 -14 7.8432 -1.5323
-11 -7 -13 1.0913 -10.7067
-11 -7 -12 0.7113 -1.3815
-11 -7 -11 2.5132 2.1934
-11 -7 -10 -2.6897 2.2469
-11 -7 -9 -5.8700 -10.9626
-11 -7 -8 1.3779 0.9070
-11 -7 -7 -3.3197 -7.7853
-11 -7 -6 14.4914 5.6688
-11 -7 -5 -8.2053 0.7899
-11 -7 -4 2.4905 10.7923
-11 -7 -3 -12.0081 5.0045
-11 -7 -2 0.1214 -3.2524
-11 -7 -1 -3.8535 -3.4612
-11 -6 -32 3.0366 -0.8150
-11 -6 -31 1.8134 6.5374
-11 -6 -30 -2.7867 -9.4667
-11 -6 -29 -0.9310 1.5283
-11 -6 -28 -14.0446 6.2528
-11 -6 -27 -0.8865 -0.6560
-11 -6 -26 -4.9119 1.0537
-11 -6 -25 -3.9258 -4.1021
-11 -6 -24 -3.3562 0.1345
-11 -6 -23 4.6363 -5.1736
-11 -6 -22 -4.6000 -1.8717
-11 -6 -21 -4.2958 0.9403
-11 -6 -20 8.6838 -3.2862
-11 -6 -19 2.5414 -2.6013
-11 -6 -18 -3.9971 0.6072
-11 -6 -17 4.3744 8.0184
-11 -6 -16 2.1038 -0.9513
-11 -6 -15 4.9440 0.7238
-11 -6 -14 -3.4137 1.8266
-11 -6 -13 2.0625 -0.6272
-11 -6 -12 5.0560 -6.8817
-11 -6 -11 -1.3879 2.6975
-11 -6 -10 1.6774 0.9025
-11 -6 -9 4.7270 4.1912
-11 -6 -8 -0.7244 0.5402
-11 -6 -7 -10.2790 4.4839
-11 -6 -6 -0.7075 -5.3372
-11 -6 -5 -7.5778 -4.1582
-11 -6 -4 5.5261 -1.9875
-11 -6 -3 -1.0561 8.9819
-11 -6 -2 1.3562 1.7235
-11 -6 -1 -1.9299 1.3248
-11 -5 -33 3.3276 -2.6764
-11 -5 -32 2.7653 1.2285
-11 -5 -31 1.1565 -4.8658
-11 -5 -30 -5.6579 -7.2670
-11 -5 -29 4.1686 -7.2326
-11 -5 -28 -3.3583 -5.2466
-11 -5 -27 8.9705 -7.3164
-11 -5 -26 8.5657 2.6738
-11 -5 -25 2.4667 -5.6098
-11 -5 -24 4.1506 -3.3784
-11 -5 -23 1.1128 0.6106
-11 -5 -22 6.6708 5.0797
-11 -5 -21 1.2122 -3.8589
-11 -5 -20 -0.3362 4.5726
-11 -5 -19 2.0988 -0.7625
-11 -5 -18 -3.5248 -3.1160
-11 -5 -17 3.2406 1.7728
-11 -5 -16 -5.4443 6.7931
-11 -5 -15 5.5474 -2.0675
-11 -5 -14 -5.8746 5.8139
-11 -5 -13 -2.6165 -2.7468
-11 -5 -12 -2.7648 8.7724
-11 -5 -11 1.1572 0.4821
-11 -5 -10 -10.4139 -4.9844
-11 -5 -9 5.6435 1.4117
-11 -5 -8 0.9355 -1.2635
-11 -5 -7 2.4496 -7.4596
-11 -5 -6 -7.9713 0.4604
-11 -5 -5 -2.0802 2.0063
-11 -5 -4 0.0156 -4.8091
-11 -5 -3 2.6196 0.3130
-11 -5 -2 8.1451 -5.7648
-11 -5 -1 1.8080 2.5540
-11 -4 -34 -0.7766 6.7626
-11 -4 -33 -1.6424 -7.7168
-11 -4 -32 6.7790 -1.0860
-11 -4 -31 0.0799 -2.6261
-11 -4 -30 10.1795 6.3061
-11 -4 -29 4.0817 7.3899
-11 -4 -28 2.0356 7.1835
-11 -4 -27 1.8863 1.1486
-11 -4 -26 2.6458 6.4870
-11 -4 -25 -3.1306 1.6362
-11 -4 -24 0.2646 3.2750
-11 -4 -23 -2.9496 8.0779
-11 -4 -22 0.9699 -0.1065
-11 -4 -21 3.7384 2.7342
-11 -4 -20 2.5814 -3.4242
-11 -4 -19 -10.8036 -0.1330
-11 -4 -18 3.5788 -1.6232
-11 -4 -17 -5.4881 -9.0675
-11 -4 -16 -2.6937 -0.7103
-11 -4 -15 -4.6947 -11.1991
-11 -4 -14 -0.6552 6.9207
-11 -4 -13 -5.9783 -13.2501
-11 -4 -12 0.9892 4.9559
-11 -4 -11 -5.3557 3.4185
-11 -4 -10 7.4540 -3.4625
-11 -4 -9 2.9896 -6.7500
-11 -4 -8 -3.3410 7.7442
-11 -4 -7 4.7748 -4.3471
-11 -4 -6 5.4701 4.8726
-11 -4 -5 -1.9544 4.5769
-11 -4 -4 3.2018 12.4433
-11 -4 -3 -2.7958 5.7725
-11 -4 -2 -4.5982 -6.1296
-11 -4 -1 -1.3084 -0.7956
-11 -3 -34 -0.3782 -5.3643
-11 -3 -33 0.0439 -0.2124
-11 -3 -32 -3.6182 7.0031
-11 -3 -31 -11.4633 7.5404
-11 -3 -30 2.1431 -0.5830
-11 -3 -29 -5.1862 5.2063
-11 -3 -28 1.6073 -4.3093
-11 -3 -27 -2.9629 -2.8774
-11 -3 -26 -5.2592 -2.2153
-11 -3 -25 -5.7769 -0.2334
-11 -3 -24 -1.1063 2.0585
-11 -3 -23 1.8836 4.2865
-11 -3 -22 -0.5062 -3.5822
-11 -3 -21 8.6648 -4.5795
-11 -3 -20 0.0744 -3.2607
-11 -3 -19 12.0194 -3.3767
-11 -3 -18 3.5262 -2.6108
-11 -3 -17 3.5467 5.2491
-11 -3 -16 2.6463 -12.2169
-11 -3 -15 -3.1093 1.5878
-11 -3 -14 1.7977 -2.1939
-11 -3 -13 -9.7526 1.0363
-11 -3 -12 16.1417 0.1361
-11 -3 -11 -11.9147 1.9816
-11 -3 -10 3.3651 2.1445
-11 -3 -9 -0.0719 4.9526
-11 -3 -8 -12.4931 -1.8917
-11 -3 -7 -6.2316 1.9357
-11 -3 -6 -3.4931 6.0620
-11 -3 -5 -8.0267 -6.1585
-11 -3 -4 2.8854 -10.4967
-11 -3 -3 -3.2518 -1.7173
-11 -3 -2 -4.2254 -4.7409
-11 -3 -1 0.8721 -2.6359
-11 -2 -35 1.2570 0.3562
-11 -2 -34 -3.4595 -11.0033
-11 -2 -33 -8.1459 -8.0947
-11 -2 -32 -4.0487 7.8948
-11 -2 -31 -1.8712 -2.9994
-11 -2 -30 5.2253 1.5070
-11 -2 -29 4.1908 1.9902
-11 -2 -28 -0.9080 -8.7631
-11 -2 -27 1.2446 3.4039
-11 -2 -26 -4.6253 -2.4328
-11 -2 -25 -3.8469 3.4792
-11 -2 -24 3.4892 4.8076
-11 -2 -23 6.3278 5.1052
-11 -2 -22 5.2692 6.6968
-11 -2 -21 -0.0271 4.5730
-11 -2 -20 -4.3432 8.4457
-11 -2 -19 2.3818 -7.4966
-11 -2 -18 2.9985 3.2865
-11 -2 -17 -5.8789 -10.4573
-11 -2 -16 -1.2248 -1.9102
-11 -2 -15 4.9895 -2.7194
-11 -2 -14 -6.3580 1.5389
-11 -2 -13 1.3414 2.7324
-11 -2 -12 -3.6321 -4.4933
-11 -2 -11 -0.6501 2.4976
-11 -2 -10 -0.1428 -17.5140
-11 -2 -9 -7.4982 11.3606
-11 -2 -8 1.9674 -7.7284
-11 -2 -7 9.2486 -8.2515
-11 -2 -6 5.7639 9.3490
-11 -2 -5 5.2753 -5.9810
-11 -2 -4 7.6411 -1.4271
-11 -2 -3 2.1259 -3.7214
-11 -2 -2 -2.1369 -4.8088
-11 -2 -1 -2.1504 6.0108
-11 -1 -35 -3.0708 -3.9945
-11 -1 -34 -1.7987 -5.2625
-11 -1 -33 0.6982 -0.0342
-11 -1 -32 -6.0206 3.4264
-11 -1 -31 -1.4231 3.2270
-11 -1 -30 8.1765 -2.6229
-11 -1 -29 -10.1857 -0.2967
-11 -1 -28 -0.0408 -6.5822
-11 -1 -27 -1.9287 -2.4173
-11 -1 -26 -8.6027 4.5381
-11 -1 -25 -1.1350 4.2990
-11 -1 -24 -7.7209 3.3960
-11 -1 -23 -4.9690 -0.6369
-11 -1 -22 -0.4052 -2.3521
-11 -1 -21 5.3650 -0.1272
-11 -1 -20 9.9062 -4.0606
-11 -1 -19 7.8148 -3.8915
-11 -1 -18 9.2232 0.0740
-11 -1 -17 -2.9936 -4.9906
-11 -1 -16 3.7079 0.8646
-11 -1 -15 -6.7313 7.5522
-11 -1 -14 3.1703 -7.3893
-11 -1 -13 0.0950 -4.1122
-11 -1 -12 4.0188 -0.2790
-11 -1 -11 -3.2688 -0.9698
-11 -1 -10 -5.2631 3.2507
-11 -1 -9 4.2114 5.2331
-11 -1 -8 -11.4703 6.6003
-11 -1 -7 7.6911 14.9132
-11 -1 -6 -2.8041 -0.8825
-11 -1 -5 1.4638 -5.6971
-11 -1 -4 13.2185 3.5713
-11 -1 -3 -6.9747 0.4609
-11 -1 -2 4.9666 -5.8860
-11 -1 -1 6.0193 -1.4326
-10 -14 -12 -12.8963 0.6787
-10 -14 -11 0.9294 13.1229
-10 -14 -10 0.2129 -10.1227
-10 -14 -9 12.0422 -1.1285
-10 -14 -8 1.5417 -4.2828
-10 -14 -7 -3.1013 -7.0515
-10 -14 -6 10.2324 -0.2343
-10 -14 -5 -7.1571 6.1019
-10 -14 -4 -13.4153 -5.6773
-10 -14 -3 -4.7093 7.5982
-10 -14 -2 -0.4170 -12.9740
-10 -14 -1 -2.9631 -0.7902
-10 -13 -17 -9.8042 -5.0526
-10 -13 -16 -9.4354 5.4275
-10 -13 -15 -5.3448 -8.7939
-10 -13 -14 -7.9304 -2.0252
-10 -13 -13 1.4736 0.2897
-10 -13 -12 0.1807 9.9938
-10 -13 -11 8.0168 2.1327
-10 -13 -10 -5.2868 8.0691
-10 -13 -9 7.4095 4.4089
-10 -13 -8 -13.0166 2.0064
-10 -13 -7 5.0368 -7.4413
-10 -13 -6 1.7536 -5.3846
-10 -13 -5 2.2277 -1.8115
-10 -13 -4 -1.7796 -11.2547
-10 -13 -3 7.0471 8.8450
-10 -13 -2 -7.5608 -0.6745
-10 -13 -1 1.6861 -7.8340
-10 -12 -20 -11.9503 -8.7111
-10 -12 -19 -8.7881 -3.7612
-10 -12 -18 2.8786 -12.8651
-10 -12 -17 -8.8541 -2.0961
-10 -12 -16 9.0883 -9.1657
-10 -12 -15 -13.2700 6.0668
-10 -12 -14 -2.8702 0.5044
-10 -12 -13 -12.6952 4.5442
-10 -12 -12 -4.0794 -2.9517
-10 -12 -11 -4.3201 -4.2334
-10 -12 -10 3.5272 -2.8268
-10 -12 -9 -5.2722 -2.9528
-10 -12 -8 6.5817 9.6038
-10 -12 -7 8.6017 -3.7570
-10 -12 -6 -5.2968 2.2760
-10 -12 -5 -4.6250 -3.8503
-10 -12 -4 7.4422 -4.9271
-10 -12 -3 13.7299 -9.8469
-10 -12 -2 -1.4306 -2.9313
-10 -12 -1 9.2733 -6.5103
-10 -11 -23 7.8908 -13.0090
-10 -11 -22 8.6776 -0.9480
-10 -11 -21 3.5494 -15.6341
-10 -11 -20 13.4716 3.0295
-10 -11 -19 -4.0827 -0.9498
-10 -11 -18 1.5475 -3.4835
-10 -11 -17 9.7327 -6.9072
-10 -11 -16 -10.5309 -12.4192
-10 -11 -15 -0.5713 -1.9721
-10 -11 -14 -1.3851 -5.1264
-10 -11 -13 8.1201 -1.5124
-10 -11 -12 -1.3529 -3.7138
-10 -11 -11 0.8278 5.1235
-10 -11 -10 -6.8662 3.5661
-10 -11 -9 3.3606 1.8601
-10 -11 -8 2.0113 -9.2897
-10 -11 -7 1.8508 8.9883
-10 -11 -6 11.7674 9.8153
-10 -11 -5 5.9389 8.1541
-10 -11 -4 1.9416 14.1357
-10 -11 -3 7.2948 2.2672
-10 -11 -2 -4.6597 -8.7244
-10 -11 -1 -4.7880 -4.4547
-10 -10 -27 -1.6107 -4.0883
-10 -10 -26 8.1838 -2.7073
-10 -10 -25 -0.6642 6.4621
-10 -10 -24 5.3103 9.2829
-10 -10 -23 1.6361 7.5842
-10 -10 -22 -3.9475 1.0284
-10 -10 -21 -3.7410 -4.2747
-10 -10 -20 12.7410 10.3654
-10 -10 -19 -1.3686 5.1785
-10 -10 -18 8.6196 -12.2836
-10 -10 -17 1.5059 4.7006
-10 -10 -16 -0.3450 4.7681
-10 -10 -15 2.7587 -7.9393
-10 -10 -14 -2.7571 6.0573
-10 -10 -13 -4.1765 -1.3843
-10 -10 -12 0.9602 0.4179
-10 -10 -11 -5.8138 0.7396
-10 -10 -10 0.6753 2.1268
-10 -10 -9 -6.4112 6.2072
-10 -10 -8 -13.6767 9.1269
-10 -10 -7 -14.0516 -0.0630
-10 -10 -6 -16.2802 9.6677
-10 -10 -5 6.2721 7.6661
-10 -10 -4 3.9141 -5.4226
-10 -10 -3 -2.5112 -2.1018
-10 -10 -2 1.1112 5.4613
-10 -10 -1 -1.2780 -2.7501
-10 -9 -29 1.5124 -6.2897
-10 -9 -28 -3.7985 -1.0861
-10 -9 -27 -7.1134 1.3535
-10 -9 -26 -5.2258 -2.6379
-10 -9 -25 -6.3508 -6.5426
-10 -9 -24 -1.1623 -7.5964
-10 -9 -23 -1.2078 7.0399
-10 -9 -22 -3.4293 1.3817
-10 -9 -21 -0.5835 1.6229
-10 -9 -20 -5.8093 3.3826
-10 -9 -19 -2.8012 4.6894
-10 -9 -18 6.3780 -12.2345
-10 -9 -17 -0.9210 6.4303
-10 -9 -16 -11.5273 -0.7670
-10 -9 -15 4.7513 -3.8070
-10 -9 -14 2.2093 -3.0608
-10 -9 -13 -11.7507 -7.7641
-10 -9 -12 -0.9626 -1.6046
-10 -9 -11 -3.6822 -6.3664
-10 -9 -10 -1.2729 -21.6093
-10 -9 -9 -5.3205 -6.4012
-10 -9 -8 -13.3354 -8.0040
-10 -9 -7 -0.1709 3.8298
-10 -9 -6 -1.0505 2.1060
-10 -9 -5 -4.8235 -3.0716
-10 -9 -4 3.8502 3.6349
-10 -9 -3 1.4816 -6.0061
-10 -9 -2 -8.7113 -4.6433
-10 -9 -1 2.6779 -2.2325
-10 -8 -31 5.2188 -12.1344
-10 -8 -30 1.7665 -4.6390
-10 -8 -29 -4.9932 -5.7383
-10 -8 -28 13.7555 -1.9411
-10 -8 -27 2.4282 -8.9539
-10 -8 -26 1.2918 1.5472
-10 -8 -25 -4.1786 0.3058
-10 -8 -24 -1.7326 -1.3660
-10 -8 -23 -3.9619 -11.7328
-10 -8 -22 -7.5994 -2.3148
-10 -8 -21 8.2995 2.7106
-10 -8 -20 0.8283 -1.3485
-10 -8 -19 -5.7659 -10.9065
-10 -8 -18 -1.2232 5.1843
-10 -8 -17 6.6845 -1.7832
-10 -8 -16 -4.4918 -6.7449
-10 -8 -15 11.1054 -6.3095
-10 -8 -14 5.4280 4.0469
-10 -8 -13 6.1672 -2.7916
-10 -8 -12 13.0671 -6.4800
-10 -8 -11 1.6331 0.4111
-10 -8 -10 2.9137 -6.9851
-10 -8 -9 -3.0214 -2.6466
-10 -8 -8 -8.1261 -5.6758
-10 -8 -7 5.0113 2.5574
-10 -8 -6 -2.3549 7.8955
-10 -8 -5 0.4528 -8.8162
-10 -8 -4 2.5520 -2.5386
-10 -8 -3 0.3377 -3.2988
-10 -8 -2 6.3909 -4.4258
-10 -8 -1 -1.7042 -10.2429
-10 -7 -33 14.0497 -2.5967
-10 -7 -32 6.0123 0.9379
-10 -7 -31 -0.0355 1.7909
-10 -7 -30 8.6922 3.7301
-10 -7 -29 -4.4889 0.6006
-10 -7 -28 -1.1363 -0.4769
-10 -7 -27 -0.1715 -1.7003
-10 -7 -26 8.5766 -11.3178
-10 -7 -25 4.2057 -1.7038
-10 -7 -24 5.1331 -1.2783
-10 -7 -23 -0.1869 0.9256
-10 -7 -22 6.4096 -4.1168
-10 -7 -21 -6.6765 -5.1914
-10 -7 -20 6.2937 3.1455
-10 -7 -19 2.8024 -8.8635
-10 -7 -18 1.0301 2.8773
-10 -7 -17 -6.5690 10.6838
-10 -7 -16 7.6189 0.5904
-10 -7 -15 -3.4377 1.6136
-10 -7 -14 -0.8672 11.1500
-10 -7 -13 -0.8483 -1.3352
-10 -7 -12 6.6362 -1.5737
-10 -7 -11 4.3419 -3.3389
-10 -7 -10 -7.2991 -3.7210
-10 -7 -9 -1.0364 3.7825
-10 -7 -8 -0.2515 -5.9932
-10 -7 -7 2.1726 -0.8690
-10 -7 -6 2.0226 2.2910
-10 -7 -5 7.0358 2.1420
-10 -7 -4 8.9527 2.6018
-10 -7 -3 0.0986 -1.1962
-10 -7 -2 10.8197 -4.2938
-10 -7 -1 5.4247 8.8195
-10 -6 -34 -3.0550 4.0683
-10 -6 -33 6.0447 2.9136
-10 -6 -32 -5.1660 2.7358
-10 -6 -31 -2.3587 -8.8752
-10 -6 -30 1.7338 -3.2375
-10 -6 -29 8.0327 5.5209
-10 -6 -28 3.6315 1.0903
-10 -6 -27 -1.3545 10.7901
-10 -6 -26 3.6087 3.1409
-10 -6 -25 1.5776 2.2575
-10 -6 -24 0.5846 -5.6124
-10 -6 -23 4.0574 3.5127
-10 -6 -22 5.2304 1.6250
-10 -6 -21 1.9581 -1.1929
-10 -6 -20 -3.6068 -7.4545
-10 -6 -19 -4.4560 6.1214
-10 -6 -18 6.3242 -9.2306
-10 -6 -17 -9.4675 -4.1869
-10 -6 -16 -3.6911 -2.6852
-10 -6 -15 4.1230 4.0404
-10 -6 -14 -6.1857 -1.2531
-10 -6 -13 -1.6315 1.1430
-10 -6 -12 1.4985 -3.2442
-10 -6 -11 0.7497 -0.4737
-10 -6 -10 1.3513 -2.9075
-10 -6 -9 -2.8843 -1.3361
-10 -6 -8 0.0456 10.4233
-10 -6 -7 0.2250 5.1608
-10 -6 -6 -4.0845 -2.5673
-10 -6 -5 6.0985 7.4298
-10 -6 -4 2.8939 4.3695
-10 -6 -3 1.2428 9.8440
-10 -6 -2 -9.9319 7.1216
-10 -6 -1 -8.2665 6.1569
-10 -5 -35 -1.8364 -1.9956
-10 -5 -34 -1.6787 -3.7062
-10 -5 -33 5.9686 -5.0849
-10 -5 -32 2.7298 6.0078
-10 -5 -31 -2.4433 -3.0758
-10 -5 -30 -6.1443 5.4125
-10 -5 -29 -6.9182 -1.9402
-10 -5 -28 -5.0695 1.1083
-10 -5 -27 5.0696 -3.6703
-10 -5 -26 -2.4971 2.6830
-10 -5 -25 2.1470 4.0563
-10 -5 -24 -2.2887 -3.1932
-10 -5 -23 5.1825 0.1128
-10 -5 -22 -1.8376 -1.2723
-10 -5 -21 6.7545 -0.9968
-10 -5 -20 7.6890 0.3116
-10 -5 -19 1.3788 -3.4659
-10 -5 -18 3.1697 -3.1546
-10 -5 -17 4.7517 -2.4116
-10 -5 -16 -6.9279 -12.0788
-10 -5 -15 -0.6408 0.9510
-10 -5 -14 2.6843 -0.3863
-10 -5 -13 3.6531 -4.6330
-10 -5 -12 2.9991 3.1241
-10 -5 -11 -5.5740 -0.7458
-10 -5 -10 -4.6796 -2.1199
-10 -5 -9 -0.5835 -5.3586
-10 -5 -8 -3.7468 4.1418
-10 -5 -7 -1.8337 10.0195
-10 -5 -6 -1.1602 1.2737
-10 -5 -5 -4.5934 -0.7070
-10 -5 -4 -15.6441 -6.1163
-10 -5 -3 2.3396 -8.4866
-10 -5 -2 -3.6971 2.9346
-10 -5 -1 1.9440 -0.3151
-10 -4 -36 8.1427 -3.3891
-10 -4 -35 4.4856 3.3680
-10 -4 -34 3.0102 -2.4832
-10 -4 -33 -5.6935 -2.3569
-10 -4 -32 -0.5291 -6.9525
-10 -4 -31 1.0176 -3.8271
-10 -4 -30 1.2185 -3.2204
-10 -4 -29 -3.7430 2.3710
-10 -4 -28 2.3562 3.1173
-10 -4 -27 2.2839 -4.2802
-10 -4 -26 4.9016 2.2961
-10 -4 -25 -0.3540 -2.0068
-10 -4 -24 4.3894 5.1261
-10 -4 -23 1.7949 3.0408
-10 -4 -22 -3.6524 4.0948
-10 -4 -21 6.3340 3.0800
-10 -4 -20 8.5715 6.1109
-10 -4 -19 2.2254 -2.1926
-10 -4 -18 8.0443 -8.9591
-10 -4 -17 -2.6616 8.2155
-10 -4 -16 1.3857 -2.7105
-10 -4 -15 -0.6588 4.8648
-10 -4 -14 -10.1298 3.8525
-10 -4 -13 4.1365 -2.5776
-10 -4 -12 5.7989 -2.6284
-10 -4 -11 -3.6653 -4.1147
-10 -4 -10 -6.7083 -3.4061
-10 -4 -9 -1.6872 8.3366
-10 -4 -8 -1.3074 -3.0131
-10 -4 -7 -4.5652 -8.5612
-10 -4 -6 10.1230 -2.9239
-10 -4 -5 10.1011 -4.4126
-10 -4 -4 0.8368 0.5677
-10 -4 -3 -1.7449 -2.3831
-10 -4 -2 -2.8896 6.5607
-10 -4 -1 6.0110 1.9333
-10 -3 -36 0.6416 -7.2933
-10 -3 -35 2.9939 1.4059
-10 -3 -34 6.0771 -4.9869
-10 -3 -33 5.8319 -1.6148
-10 -3 -32 -2.3323 -9.5326
-10 -3 -31 -1.0410 1.3120
-10 -3 -30 -5.6839 -1.4891
-10 -3 -29 5.1321 2.8677
-10 -3 -28 -0.7862 7.2972
-10 -3 -27 1.2233 1.1938
-10 -3 -26 0.4640 2.5346
-10 -3 -25 -6.8385 -3.0546
-10 -3 -24 -0.4233 2.6361
-10 -3 -23 -5.4108 10.0757
-10 -3 -22 -1.2685 6.8184
-10 -3 -21 5.8010 2.5931
-10 -3 -20 -2.2027 1.7553
-10 -3 -19 1.5681 -9.6878
-10 -3 -18 -4.3803 -8.5494
-10 -3 -17 -5.2460 -2.1837
-10 -3 -16 -10.8075 -15.7306
-10 -3 -15 13.5142 6.6475
-10 -3 -14 -6.7150 -3.7399
-10 -3 -13 4.4337 -3.5355
-10 -3 -12 -2.2524 2.3632
-10 -3 -11 -6.7681 -7.6001
-10 -3 -10 5.6860 -2.0614
-10 -3 -9 -1.2117 5.4900
-10 -3 -8 4.5810 13.4327
-10 -3 -7 13.6645 5.2514
-10 -3 -6 -4.5388 7.3121
-10 -3 -5 -5.6227 7.9279
-10 -3 -4 -3.9415 -1.4138
-10 -3 -3 -7.9096 7.0743
-10 -3 -2 -10.2222 4.1747
-10 -3 -1 -9.6692 0.9855
-10 -2 -37 0.0711 4.3240
-10 -2 -36 9.2456 7.2754
-10 -2 -35 7.3262 -0.3175
-10 -2 -34 3.9058 0.0401
-10 -2 -33 10.4746 -2.6213
-10 -2 -32 1.6280 -8.8754
-10 -2 -31 -3.9134 2.2119
-10 -2 -30 -9.7962 4.5525
-10 -2 -29 7.3690 2.3781
-10 -2 -28 -1.2725 3.9399
-10 -2 -27 1.8705 -7.7431
-10 -2 -26 -1.9329 -0.7406
-10 -2 -25 -13.5256 -3.7911
-10 -2 -24 -3.9882 -2.0893
-10 -2 -23 -5.3027 5.6105
-10 -2 -22 11.5894 0.2677
-10 -2 -21 14.4766 -0.0694
-10 -2 -20 11.3473 -6.1139
-10 -2 -19 8.9559 -13.2745
-10 -2 -18 12.0623 7.8210
-10 -2 -17 -2.7524 -1.7402
-10 -2 -16 0.6155 -0.7470
-10 -2 -15 4.9484 -3.3464
-10 -2 -14 -6.0229 4.4455
-10 -2 -13 14.9818 -14.0975
-10 -2 -12 -11.7345 6.8862
-10 -2 -11 -6.0940 0.2038
-10 -2 -10 -4.7115 10.0811
-10 -2 -9 -18.9526 14.7346
-10 -2 -8 -9.6392 -12.0204
-10 -2 -7 -6.8973 1.7813
-10 -2 -6 2.3310 -4.8643
-10 -2 -5 -8.2704 -18.3902
-10 -2 -4 -4.4044 -6.8841
-10 -2 -3 2.4198 -11.3018
-10 -2 -2 0.3964 0.6680
-10 -2 -1 3.4825 -4.6486
-10 -1 -37 -2.3687 8.3399
-10 -1 -36 -2.1944 4.5774
-10 -1 -35 11.8546 14.2228
-10 -1 -34 4.6593 -5.3610
-10 -1 -33 -0.0373 -2.2955
-10 -1 -32 -6.9223 -1.1620
-10 -1 -31 -4.9487 2.5749
-10 -1 -30 -9.2273 3.8356
-10 -1 -29 7.5083 4.0702
-10 -1 -28 1.8650 -2.1389
-10 -1 -27 2.7594 -15.0387
-10 -1 -26 2.2298 0.5300
-10 -1 -25 -8.7225 -1.6791
-10 -1 -24 -1.3180 12.6217
-10 -1 -23 1.5229 18.4833
-10 -1 -22 5.0211 8.4319
-10 -1 -21 5.6545 13.1268
-10 -1 -20 -2.7068 -0.2540
-10 -1 -19 0.2916 0.8779
-10 -1 -18 0.0068 -2.3570
-10 -1 -17 -2.2460 -0.7279
-10 -1 -16 10.6882 -1.3796
-10 -1 -15 0.3439 7.8294
-10 -1 -14 -5.3481 -7.2559
-10 -1 -13 -3.9682 -8.7200
-10 -1 -12 -2.5911 -3.4983
-10 -1 -11 -15.2067 -24.7578
-10 -1 -10 3.7549 5.6559
-10 -1 -9 2.1905 -9.3059
-10 -1 -8 9.4528 -1.8783
-10 -1 -7 13.6008 5.4708
-10 -1 -6 -7.7145 -8.1425
-10 -1 -5 11.4981 2.4255
-10 -1 -4 8.9964 -1.3751
-10 -1 -3 -7.4780 2.4481
-10 -1 -2 10.9269 0.9831
-10 -1 -1 9.8781 0.4021
-9 -15 -9 5.3878 9.7439
-9 -15 -8 6.9345 13.1226
-9 -15 -7 8.0771 5.6769
-9 -15 -6 -3.1913 -5.1733
-9 -15 -5 -2.1801 3.4692
-9 -15 -4 -7.1252 4.2389
-9 -15 -3 -9.7964 2.4566
-9 -15 -2 4.5100 2.8848
-9 -15 -1 -4.7536 -2.7476
-9 -14 -16 -13.5173 -2.0560
-9 -14 -15 9.7104 3.6213
-9 -14 -14 -1.3450 5.4205
-9 -14 -13 1.7955 2.8607
-9 -14 -12 -11.6559 8.8907
-9 -14 -11 -8.5728 6.8090
-9 -14 -10 -10.6359 5.4098
-9 -14 -9 0.0826 11.7504
-9 -14 -8 0.6286 0.2530
-9 -14 -7 1.2186 -8.3216
-9 -14 -6 -4.0966 0.4177
-9 -14 -5 -2.8485 -1.9646
-9 -14 -4 -6.4373 5.5088
-9 -14 -3 -5.7542 -5.6752
-9 -14 -2 -1.4455 -0.6120
-9 -14 -1 -8.0187 1.8051
-9 -13 -20 -1.8929 -5.2806
-9 -13 -19 2.0371 -11.5324
-9 -13 -18 1.5283 8.0684
-9 -13 -17 -10.4270 -8.9463
-9 -13 -16 0.2633 19.6533
-9 -13 -15 -8.9091 -11.2923
-9 -13 -14 -6.1175 7.7791
-9 -13 -13 -10.3134 -13.3896
-9 -13 -12 -6.8950 3.9574
-9 -13 -11 -8.3671 -5.7088
-9 -13 -10 3.4667 12.0970
-9 -13 -9 -0.3113 2.5239
-9 -13 -8 -4.1333 1.7600
-9 -13 -7 -3.9758 -5.2001
-9 -13 -6 -0.6504 -1.3798
-9 -13 -5 -6.0589 -7.7444
-9 -13 -4 8.4563 1.6638
-9 -13 -3 -6.1175 -8.8339
-9 -13 -2 0.5109 -3.8755
-9 -13 -1 -7.4328 2.4840
-9 -12 -23 9.9050 -4.2886
-9 -12 -22 10.8141 10.7637
-9 -12 -21 3.0709 1.3131
-9 -12 -20 1.4637 -6.1388
-9 -12 -19 -1.3418 8.1861
-9 -12 -18 -5.5627 -3.6692
-9 -12 -17 -10.0282 -3.5361
-9 -12 -16 7.2095 -8.8252
-9 -12 -15 -8.8879 -1.4337
-9 -12 -14 5.4474 -13.2978
-9 -12 -13 -14.8135 2.3662
-9 -12 -12 -3.6800 -6.7422
-9 -12 -11 -15.0016 4.5338
-9 -12 -10 2.3956 -5.8591
-9 -12 -9 -11.5097 -6.3627
-9 -12 -8 8.0817 -6.5272
-9 -12 -7 -6.2400 3.2524
-9 -12 -6 1.5613 6.8923
-9 -12 -5 -0.2264 -0.6425
-9 -12 -4 1.2062 -13.1995
-9 -12 -3 -6.3151 0.4205
-9 -12 -2 12.3917 -8.9855
-9 -12 -1 -0.4336 0.8456
-9 -11 -26 -6.2191 12.1299
-9 -11 -25 -10.3992 18.2859
-9 -11 -24 -7.5977 6.9650
-9 -11 -23 0.3858 4.7536
-9 -11 -22 -9.2814 -4.8729
-9 -11 -21 -11.0526 3.1710
-9 -11 -20 4.9936 -2.7130
-9 -11 -19 -4.4287 -4.3090
-9 -11 -18 -3.5169 -2.2123
-9 -11 -17 8.1173 -4.2570
-9 -11 -16 6.2586 -2.1942
-9 -11 -15 4.2099 -8.2236
-9 -11 -14 -3.5837 -16.2850
-9 -11 -13 0.1269 -5.1590
-9 -11 -12 0.2706 -5.9964
-9 -11 -11 13.1043 -5.0179
-9 -11 -10 -7.3610 -7.8817
-9 -11 -9 -1.2334 -3.0018
-9 -11 -8 -8.1878 -9.3831
-9 -11 -7 0.7512 2.6035
-9 -11 -6 6.0422 -13.8694
-9 -11 -5 4.0368 5.4661
-9 -11 -4 5.7695 -2.8569
-9 -11 -3 2.0834 -0.3757
-9 -11 -2 -3.3024 2.1578
-9 -11 -1 3.2523 -0.7928
-9 -10 -30 5.8261 -2.9252
-9 -10 -29 -2.4758 -3.0923
-9 -10 -28 -13.9021 -6.6601
-9 -10 -27 -17.0141 -16.6549
-9 -10 -26 -3.2649 -0.2580
-9 -10 -25 3.5982 -13.9988
-9 -10 -24 -0.1534 -6.9957
-9 -10 -23 -4.9538 -6.5325
-9 -10 -22 -6.0336 -4.7711
-9 -10 -21 6.1798 -10.2963
-9 -10 -20 -1.5540 -1.1408
-9 -10 -19 -4.2555 8.7545
-9 -10 -18 6.8779 -0.6902
-9 -10 -17 6.0762 7.5673
-9 -10 -16 9.1257 -4.0062
-9 -10 -15 -0.7569 -1.1388
-9 -10 -14 4.8035 -1.4329
-9 -10 -13 5.9153 3.5066
-9 -10 -12 4.8104 -2.2127
-9 -10 -11 5.7103 -6.5322
-9 -10 -10 13.0822 -5.0659
-9 -10 -9 3.2677 -4.1273
-9 -10 -8 4.0909 9.7601
-9 -10 -7 2.9642 1.0227
-9 -10 -6 3.9627 3.0285
-9 -10 -5 3.5823 -1.6444
-9 -10 -4 -4.9959 0.4695
-9 -10 -3 12.9830 2.3009
-9 -10 -2 2.0576 -3.2510
-9 -10 -1 -6.1203 1.2367
-9 -9 -32 10.9206 1.6245
-9 -9 -31 -0.0943 2.8012
-9 -9 -30 9.2978 -14.9496
-9 -9 -29 4.7001 -1.4674
-9 -9 -28 12.6211 1.2829
-9 -9 -27 4.6503 3.0962
-9 -9 -26 5.4971 0.3919
-9 -9 -25 3.3753 -5.7330
-9 -9 -24 13.0412 -9.8132
-9 -9 -23 -0.4889 -2.1369
-9 -9 -22 0.5403 -4.9946
-9 -9 -21 -1.8918 0.6396
-9 -9 -20 -4.2900 -0.2567
-9 -9 -19 -6.4463 -3.9050
-9 -9 -18 -1.8598 0.9364
-9 -9 -17 11.1212 6.3409
-9 -9 -16 -6.9358 -10.2716
-9 -9 -15 1.0768 4.3323
-9 -9 -14 -3.0501 4.7606
-9 -9 -13 11.5248 10.9055
-9 -9 -12 -0.6051 6.6745
-9 -9 -11 -1.2303 -1.1862
-9 -9 -10 -6.3539 5.1718
-9 -9 -9 -2.3437 7.3474
-9 -9 -8 -0.3449 -5.8912
-9 -9 -7 -1.5405 6.3595
-9 -9 -6 -3.2931 4.8042
-9 -9 -5 0.1604 6.5426
-9 -9 -4 1.6165 -3.0404
-9 -9 -3 -3.0095 -0.3070
-9 -9 -2 5.2929 -3.7595
-9 -9 -1 8.3711 -11.5787
-9 -8 -33 0.1619 12.0533
-9 -8 -32 3.6029 -13.7716
-9 -8 -31 -8.7463 20.1121
-9 -8 -30 -5.5091 -1.1174
-9 -8 -29 -4.2484 5.0847
-9 -8 -28 -5.0155 -4.3944
-9 -8 -27 8.5559 13.9576
-9 -8 -26 10.9428 -3.6494
-9 -8 -25 1.9227 4.8896
-9 -8 -24 -0.9108 -0.9038
-9 -8 -23 5.1312 0.5630
-9 -8 -22 5.7939 -7.9976
-9 -8 -21 7.0451 -4.0574
-9 -8 -20 -4.9361 3.9178
-9 -8 -19 10.5811 -0.1665
-9 -8 -18 4.0201 -3.3258
-9 -8 -17 -5.7205 -7.1628
-9 -8 -16 -7.2606 4.8792
-9 -8 -15 -0.1876 -6.5436
-9 -8 -14 -8.5783 7.6777
-9 -8 -13 0.8308 -6.2856
-9 -8 -12 -1.9063 -3.8298
-9 -8 -11 0.4071 -9.3426
-9 -8 -10 4.1643 2.3781
-9 -8 -9 -11.4840 -1.9543
-9 -8 -8 0.9442 -0.8415
-9 -8 -7 2.8136 -0.4263
-9 -8 -6 -9.7630 1.0772
-9 -8 -5 6.5792 -1.1897
-9 -8 -4 6.5690 10.4916
-9 -8 -3 9.3503 2.0618
-9 -8 -2 -0.2393 8.8516
-9 -8 -1 4.2307 8.5960
-9 -7 -35 0.0502 -1.6786
-9 -7 -34 1.5633 -6.1057
-9 -7 -33 -6.9405 -10.0129
-9 -7 -32 -5.7121 -9.2860
-9 -7 -31 8.8234 -6.8649
-9 -7 -30 -13.0582 -4.4882
-9 -7 -29 8.9532 6.8104
-9 -7 -28 -9.3869 0.8945
-9 -7 -27 -0.7229 -1.9323
-9 -7 -26 -9.4206 -0.7053
-9 -7 -25 9.1855 4.6416
-9 -7 -24 -7.1362 3.6423
-9 -7 -23 3.6071 5.0843
-9 -7 -22 -1.8186 6.4366
-9 -7 -21 0.8607 0.7831
-9 -7 -20 2.8816 -0.2922
-9 -7 -19 3.6309 -4.2034
-9 -7 -18 10.2203 2.1791
-9 -7 -17 -3.8167 -11.7050
-9 -7 -16 -2.9196 -0.1500
-9 -7 -15 -0.9408 5.2767
-9 -7 -14 15.4327 -1.0578
-9 -7 -13 -4.0125 0.3940
-9 -7 -12 6.0645 -1.3920
-9 -7 -11 -1.8200 1.4943
-9 -7 -10 -3.5310 1.0011
-9 -7 -9 -5.7998 0.2158
-9 -7 -8 -1.3129 -5.7255
-9 -7 -7 -2.9325 12.8416
-9 -7 -6 -2.4125 1.2136
-9 -7 -5 -5.8136 3.2468
-9 -7 -4 -7.5563 15.2960
-9 -7 -3 -7.3150 -0.9236
-9 -7 -2 13.0858 2.5608
-9 -7 -1 0.5831 1.0759
-9 -6 -36 8.4829 -0.7652
-9 -6 -35 5.0977 -6.9528
-9 -6 -34 12.1977 -6.1714
-9 -6 -33 5.2930 0.7269
-9 -6 -32 -1.2906 -0.0147
-9 -6 -31 5.5843 -2.7584
-9 -6 -30 2.6694 -4.4554
-9 -6 -29 6.2360 -11.5215
-9 -6 -28 2.1672 2.6652
-9 -6 -27 -0.7294 -13.0509
-9 -6 -26 -5.0421 -0.7039
-9 -6 -25 -2.4123 -2.8315
-9 -6 -24 -0.8251 1.8166
-9 -6 -23 4.8257 -9.0933
-9 -6 -22 -2.7336 5.7370
-9 -6 -21 0.0532 4.4088
-9 -6 -20 5.3507 0.4070
-9 -6 -19 -0.1700 -3.0926
-9 -6 -18 -5.5307 -5.2781
-9 -6 -17 -0.5923 3.0893
-9 -6 -16 2.0860 -0.5935
-9 -6 -15 -4.9516 5.4490
-9 -6 -14 -0.3688 4.5623
-9 -6 -13 1.4627 -1.0112
-9 -6 -12 -7.3873 -17.0926
-9 -6 -11 3.2907 2.6185
-9 -6 -10 -10.0223 -4.7201
-9 -6 -9 3.1848 -3.0155
-9 -6 -8 -5.9306 0.3592
-9 -6 -7 -7.8251 -5.0007
-9 -6 -6 -11.9768 -6.3752
-9 -6 -5 3.7006 -3.8570
-9 -6 -4 -3.5849 -0.4654
-9 -6 -3 -2.4935 5.4653
-9 -6 -2 4.2321 4.7989
-9 -6 -1 -5.1109 -3.6176
-9 -5 -37 9.6447 -0.9891
-9 -5 -36 5.6032 9.6916
-9 -5 -35 -0.3730 0.9395
-9 -5 -34 4.0636 0.4670
-9 -5 -33 3.2349 5.8336
-9 -5 -32 4.7125 4.5565
-9 -5 -31 3.4530 6.0285
-9 -5 -30 9.8213 7.7727
-9 -5 -29 1.8136 -7.9398
-9 -5 -28 7.4554 2.4194
-9 -5 -27 -1.4722 0.6098
-9 -5 -26 8.1837 5.1184
-9 -5 -25 -2.2388 3.2881
-9 -5 -24 2.7977 -0.3401
-9 -5 -23 3.0867 -3.3907
-9 -5 -22 4.6495 -0.5896
-9 -5 -21 3.2014 -8.3393
-9 -5 -20 7.2830 1.0402
-9 -5 -19 4.2368 -3.6832
-9 -5 -18 -5.4806 -2.6847
-9 -5 -17 -2.7292 -1.8116
-9 -5 -16 -4.5986 3.6661
-9 -5 -15 4.5860 -9.3001
-9 -5 -14 3.7117 -1.2646
-9 -5 -13 -1.5075 -1.9069
-9 -5 -12 4.5117 -0.3976
-9 -5 -11 -2.8508 -3.4285
-9 -5 -10 -9.7145 0.6860
-9 -5 -9 12.1792 -12.8463
-9 -5 -8 6.5251 5.2756
-9 -5 -7 1.8472 -12.0270
-9 -5 -6 4.4176 5.4512
-9 -5 -5 -4.1671 1.8710
-9 -5 -4 -0.4010 3.2902
-9 -5 -3 4.5964 -4.5780
-9 -5 -2 1.2034 4.0604
-9 -5 -1 -1.3023 3.4034
-9 -4 -38 -6.2320 0.5321
-9 -4 -37 -2.6182 4.4166
-9 -4 -36 5.6952 2.3898
-9 -4 -35 -6.2633 -1.0926
-9 -4 -34 -0.8109 7.7139
-9 -4 -33 -7.1599 -1.3232
-9 -4 -32 -1.7770 -3.8338
-9 -4 -31 1.4739 2.2379
-9 -4 -30 -0.7856 4.0262
-9 -4 -29 -5.2611 3.1110
-9 -4 -28 -2.1702 -6.7967
-9 -4 -27 -9.9519 8.4452
-9 -4 -26 8.3685 -0.9789
-9 -4 -25 2.5382 9.7111
-9 -4 -24 5.2442 2.2417
-9 -4 -23 3.4211 13.3299
-9 -4 -22 3.9694 2.7124
-9 -4 -21 1.3738 -1.8006
-9 -4 -20 2.4279 -1.8967
-9 -4 -19 -3.4248 -1.6163
-9 -4 -18 9.6718 -5.9749
-9 -4 -17 0.4542 -4.6917
-9 -4 -16 1.7233 0.9210
-9 -4 -15 -4.5758 -2.9680
-9 -4 -14 5.2162 -4.4818
-9 -4 -13 -8.6985 -12.6642
-9 -4 -12 4.3331 -1.0508
-9 -4 -11 0.2128 13.2720
-9 -4 -10 5.7806 -2.3423
-9 -4 -9 1.3473 6.9257
-9 -4 -8 -2.6613 10.4856
-9 -4 -7 -9.4442 -5.0778
-9 -4 -6 8.8023 -0.8133
-9 -4 -5 -13.2000 4.8193
-9 -4 -4 -1.1754 0.6469
-9 -4 -3 -9.4564 1.6711
-9 -4 -2 -0.8684 -6.5030
-9 -4 -1 -3.4255 -6.0707
-9 -3 -38 -6.2467 -0.9902
-9 -3 -37 2.9918 -0.1604
-9 -3 -36 -7.3566 2.9256
-9 -3 -35 13.4007 -5.2959
-9 -3 -34 9.7124 -3.9093
-9 -3 -33 -5.9855 -0.6903
-9 -3 -32 8.2139 -0.2999
-9 -3 -31 -3.3717 -2.4413
-9 -3 -30 0.8642 -5.3687
-9 -3 -29 -1.7779 -0.7758
-9 -3 -28 -0.1888 3.4499
-9 -3 -27 -7.0318 4.1861
-9 -3 -26 -11.6281 0.1053
-9 -3 -25 -0.6089 6.0749
-9 -3 -24 -3.6592 -4.4406
-9 -3 -23 6.5291 3.1716
-9 -3 -22 -2.0986 0.1067
-9 -3 -21 10.8430 3.4187
-9 -3 -20 0.2175 3.0809
-9 -3 -19 7.5992 1.0807
-9 -3 -18 3.4589 -1.1424
-9 -3 -17 5.6126 -3.0784
-9 -3 -16 3.9167 -9.6446
-9 -3 -15 8.0058 -0.4195
-9 -3 -14 -1.7737 -2.6172
-9 -3 -13 -4.9249 7.6783
-9 -3 -12 -5.9783 -5.7178
-9 -3 -11 -15.9329 7.3070
-9 -3 -10 1.9866 -4.1706
-9 -3 -9 4.8206 -3.0428
-9 -3 -8 -9.3991 -5.6673
-9 -3 -7 2.0666 -7.0787
-9 -3 -6 2.4341 -2.6805
-9 -3 -5 0.2155 -3.6995
-9 -3 -4 6.2730 -15.2748
-9 -3 -3 5.7591 8.6298
-9 -3 -2 -1.1101 -0.2674
-9 -3 -1 2.0946 -2.6679
-9 -2 -39 -1.0631 -0.8992
-9 -2 -38 -1.3926 4.3781
-9 -2 -37 5.7840 5.2513
-9 -2 -36 1.6262 13.0195
-9 -2 -35 2.7837 -1.1652
-9 -2 -34 4.4946 8.4456
-9 -2 -33 -5.7787 -10.0413
-9 -2 -32 5.4293 0.0913
-9 -2 -31 -4.4382 7.9104
-9 -2 -30 2.3098 -15.2709
-9 -2 -29 -3.6643 -0.5483
-9 -2 -28 -0.8861 -5.6038
-9 -2 -27 4.0027 2.4400
-9 -2 -26 2.2904 -1.8834
-9 -2 -25 -1.3695 8.9245
-9 -2 -24 -2.4644 3.0256
-9 -2 -23 0.2022 3.7415
-9 -2 -22 -4.2789 3.2669
-9 -2 -21 -0.6578 5.4307
-9 -2 -20 3.3473 8.1083
-9 -2 -19 10.4531 -9.2464
-9 -2 -18 7.1617 7.5360
-9 -2 -17 -1.6382 -4.7270
-9 -2 -16 1.8569 0.0842
-9 -2 -15 -3.6498 -11.1887
-9 -2 -14 -0.7091 -9.6712
-9 -2 -13 -4.1260 -9.3129
-9 -2 -12 -3.5975 3.5728
-9 -2 -11 15.0776 -4.4465
-9 -2 -10 -4.2218 -2.3204
-9 -2 -9 6.6153 15.2651
-9 -2 -8 2.2667 -10.8752
-9 -2 -7 4.2169 5.4113
-9 -2 -6 6.8568 13.9505
-9 -2 -5 -9.4054 5.2052
-9 -2 -4 0.8775 2.9715
-9 -2 -3 8.5167 -0.4655
-9 -2 -2 -6.1857 1.7961
-9 -2 -1 1.7112 -1.2375
-9 -1 -39 -1.9746 -4.5885
-9 -1 -38 -9.7892 6.7651
-9 -1 -37 -0.4357 5.2429
-9 -1 -36 3.6980 -2.9019
-9 -1 -35 0.7427 -3.4561
-9 -1 -34 1.5657 1.8026
-9 -1 -33 0.7553 -1.2099
-9 -1 -32 14.8843 -2.7662
-9 -1 -31 -4.7949 4.2366
-9 -1 -30 2.6429 -5.7805
-9 -1 -29 1.6275 10.4425
-9 -1 -28 -12.7980 -2.9456
-9 -1 -27 0.8663 3.9603
-9 -1 -26 -4.9621 -1.1658
-9 -1 -25 -1.8312 -3.4770
-9 -1 -24 -6.0148 -1.5798
-9 -1 -23 -0.4485 0.4556
-9 -1 -22 -5.6607 6.0657
-9 -1 -21 9.5694 8.5900
-9 -1 -20 1.9184 5.0274
-9 -1 -19 7.2719 3.4391
-9 -1 -18 9.0828 -1.7212
-9 -1 -17 1.0980 -6.4023
-9 -1 -16 17.3849 -1.8187
-9 -1 -15 -1.9932 1.4337
-9 -1 -14 3.9093 -4.6530
-9 -1 -13 -3.3923 8.0614
-9 -1 -12 -3.9667 -2.9684
-9 -1 -11 -2.6901 7.5520
-9 -1 -10 3.6573 3.6555
-9 -1 -9 -11.4127 -13.1290
-9 -1 -8 -14.9238 14.3174
-9 -1 -7 6.1410 -4.4287
-9 -1 -6 -17.7768 -3.4594
-9 -1 -5 7.9695 -0.9762
-9 -1 -4 -0.0161 -6.8963
-9 -1 -3 0.7353 10.7549
-9 -1 -2 7.0003 -9.0141
-9 -1 -1 2.3755 -12.6129
-8 -16 -3 -3.4255 -6.6139
-8 -16 -2 2.9536 -4.0541
-8 -16 -1 2.1158 3.1729
-8 -15 -14 1.9633 -7.7971
-8 -15 -13 5.8983 1.9534
-8 -15 -12 -0.5292 -9.7471
-8 -15 -11 -2.3283 -1.8671
-8 -15 -10 8.0785 -6.3331
-8 -15 -9 -2.3134 -0.1996
-8 -15 -8 10.3757 5.1053
-8 -15 -7 5.8383 3.6411
-8 -15 -6 3.4564 -0.5123
-8 -15 -5 9.1485 5.8249
-8 -15 -4 -0.1507 -5.9594
-8 -15 -3 -7.3692 9.6034
-8 -15 -2 -5.7655 0.6373
-8 -15 -1 1.6867 10.0044
-8 -14 -20 -9.1873 -5.8165
-8 -14 -19 10.0250 -3.2079
-8 -14 -18 -1.8350 1.8441
-8 -14 -17 7.4593 1.4517
-8 -14 -16 -10.7877 2.1767
-8 -14 -15 7.6797 1.3584
-8 -14 -14 -2.7726 -3.1827
-8 -14 -13 8.2992 3.6242
-8 -14 -12 -4.5562 3.1808
-8 -14 -11 7.6309 3.8320
-8 -14 -10 -8.6278 8.4614
-8 -14 -9 -3.2556 10.9417
-8 -14 -8 -8.7942 2.7110
-8 -14 -7 -1.3047 9.4785
-8 -14 -6 -0.7202 -6.4958
-8 -14 -5 0.8633 -5.3591
-8 -14 -4 -16.8793 -3.4579
-8 -14 -3 1.2324 -5.1321
-8 -14 -2 -10.0399 1.0243
-8 -14 -1 2.9583 -2.3653
-8 -13 -22 -3.9677 7.5718
-8 -13 -21 8.1931 10.6316
-8 -13 -20 -3.2078 -2.0601
-8 -13 -19 -2.5520 -1.1409
-8 -13 -18 -1.0286 5.0142
-8 -13 -17 -0.4038 -8.4591
-8 -13 -16 0.5220 2.4403
-8 -13 -15 -3.6745 -6.8340
-8 -13 -14 -1.0046 11.6078
-8 -13 -13 -7.0297 -4.9845
-8 -13 -12 -10.3244 0.9244
-8 -13 -11 -5.1579 -17.3110
-8 -13 -10 -9.3858 -1.0316
-8 -13 -9 -2.7300 -12.1784
-8 -13 -8 -0.9221 3.9769
-8 -13 -7 7.0015 -3.5893
-8 -13 -6 1.3377 -5.9647
-8 -13 -5 5.3527 -6.0083
-8 -13 -4 -6.4010 -0.9205
-8 -13 -3 -0.1751 -9.2086
-8 -13 -2 3.4507 2.7074
-8 -13 -1 0.2276 -10.6957
-8 -12 -26 6.6427 5.9291
-8 -12 -25 -1.6171 -3.5573
-8 -12 -24 -14.3483 -0.3315
-8 -12 -23 -0.6486 3.0552
-8 -12 -22 -6.0572 -0.2497
-8 -12 -21 -7.3426 -8.7118
-8 -12 -20 4.0454 1.0702
-8 -12 -19 9.2382 -4.0791
-8 -12 -18 -4.8798 0.8698
-8 -12 -17 2.6605 -1.3978
-8 -12 -16 -0.1098 -4.9770
-8 -12 -15 -4.0443 -3.4969
-8 -12 -14 6.7500 -3.8293
-8 -12 -13 6.2051 -4.2284
-8 -12 -12 16.1039 -11.0946
-8 -12 -11 0.7941 -0.0162
-8 -12 -10 2.3812 0.5184
-8 -12 -9 -8.4674 -0.6174
-8 -12 -8 11.4636 6.2477
-8 -12 -7 -1.6360 -2.5328
-8 -12 -6 5.8173 -2.7841
-8 -12 -5 0.9335 -4.7808
-8 -12 -4 -1.2523 1.2658
-8 -12 -3 6.3348 -2.7508
-8 -12 -2 0.3488 2.6187
-8 -12 -1 -4.6626 -1.2681
-8 -11 -29 -5.3908 -1.1420
-8 -11 -28 -0.7005 0.1363
-8 -11 -27 4.6730 -5.5861
-8 -11 -26 2.1818 -5.2399
-8 -11 -25 2.4409 -9.0504
-8 -11 -24 -0.6648 -10.4447
-8 -11 -23 3.1243 3.1623
-8 -11 -22 5.8668 8.3268
-8 -11 -21 5.4853 -5.2733
-8 -11 -20 -2.8799 1.9323
-8 -11 -19 -1.4774 4.8995
-8 -11 -18 2.6741 0.2700
-8 -11 -17 -0.3423 -8.1268
-8 -11 -16 -1.6449 11.3987
-8 -11 -15 0.5003 8.3168
-8 -11 -14 6.0122 9.2411
-8 -11 -13 2.0909 -1.6990
-8 -11 -12 -0.1766 -6.4742
-8 -11 -11 -1.5306 -0.5102
-8 -11 -10 -8.6557 2.6473
-8 -11 -9 7.3309 5.3778
-8 -11 -8 0.1042 -0.7606
-8 -11 -7 1.4282 2.4690
-8 -11 -6 4.4437 -2.6547
-8 -11 -5 -0.0014 6.8575
-8 -11 -4 -4.1167 -4.0583
-8 -11 -3 2.3734 -0.7434
-8 -11 -2 -0.3337 0.9474
-8 -11 -1 -1.8632 -8.0758
-8 -10 -32 -11.9666 -3.6499
-8 -10 -31 -3.5167 -3.9243
-8 -10 -30 6.6437 1.3343
-8 -10 -29 -3.0518 5.9192
-8 -10 -28 8.6997 7.0253
-8 -10 -27 4.8582 -0.7876
-8 -10 -26 0.5777 -4.3054
-8 -10 -25 -7.2084 3.5636
-8 -10 -24 -0.4302 13.5062
-8 -10 -23 -2.6631 -2.0458
-8 -10 -22 -3.7227 -2.2454
-8 -10 -21 0.9863 -4.9873
-8 -10 -20 0.9369 0.1868
-8 -10 -19 -3.8098 -6.2900
-8 -10 -18 -7.4720 -5.8367
-8 -10 -17 -8.8484 -2.1483
-8 -10 -16 -2.3120 5.0750
-8 -10 -15 0.2416 1.7027
-8 -10 -14 11.1863 -4.2454
-8 -10 -13 1.4103 -0.5062
-8 -10 -12 -8.4263 -6.4558
-8 -10 -11 -8.2797 2.3727
-8 -10 -10 -0.3623 -0.1324
-8 -10 -9 0.8568 -0.4651
-8 -10 -8 0.9839 8.2927
-8 -10 -7 -5.7820 -12.1442
-8 -10 -6 -4.0419 3.5361
-8 -10 -5 -3.4706 -2.2143
-8 -10 -4 5.1241 -2.9184
-8 -10 -3 9.1000 -6.3991
-8 -10 -2 -0.4473 6.5070
-8 -10 -1 10.8773 -8.3689
-8 -9 -33 4.2066 -5.4496
-8 -9 -32 -5.2091 7.4600
-8 -9 -31 -1.7753 -5.6089
-8 -9 -30 -5.6507 2.6456
-8 -9 -29 3.0444 -5.2970
-8 -9 -28 1.9795 -7.1566
-8 -9 -27 -7.6838 -2.0935
-8 -9 -26 -6.1047 -7.1462
-8 -9 -25 -3.6523 -4.0819
-8 -9 -24 3.7849 3.0353
-8 -9 -23 4.4507 1.9585
-8 -9 -22 10.3112 -6.5299
-8 -9 -21 -1.8814 -1.9426
-8 -9 -20 7.0216 -4.7265
-8 -9 -19 2.3206 -9.0004
-8 -9 -18 0.0105 -3.6279
-8 -9 -17 -2.7364 2.8614
-8 -9 -16 -1.3568 12.6284
-8 -9 -15 6.8786 -2.1678
-8 -9 -14 3.2944 -15.6996
-8 -9 -13 -0.6109 -8.6516
-8 -9 -12 -7.1294 -0.2974
-8 -9 -11 5.9210 -1.3666
-8 -9 -10 -1.8178 5.9435
-8 -9 -9 3.8872 -8.3647
-8 -9 -8 0.1216 -7.2057
-8 -9 -7 0.1222 0.9761
-8 -9 -6 10.6056 -1.6687
-8 -9 -5 -10.0584 8.5958
-8 -9 -4 11.4491 5.5670
-8 -9 -3 3.5657 7.1688
-8 -9 -2 7.8401 -9.0887
-8 -9 -1 4.5065 -10.4115
-8 -8 -35 11.0062 -4.6160
-8 -8 -34 -10.9642 6.9369
-8 -8 -33 8.3192 -8.4638
-8 -8 -32 3.4725 4.3875
-8 -8 -31 12.7038 -0.8719
-8 -8 -30 7.9702 -0.7775
-8 -8 -29 2.8711 -7.3749
-8 -8 -28 6.7067 -6.7534
-8 -8 -27 -3.5151 -5.3278
-8 -8 -26 -3.8394 1.9058
-8 -8 -25 0.6217 9.0786
-8 -8 -24 3.9464 -2.9141
-8 -8 -23 -1.7317 -1.2515
-8 -8 -22 4.2839 1.7607
-8 -8 -21 5.9086 6.0677
-8 -8 -20 1.1269 -6.9313
-8 -8 -19 -3.8293 0.4512
-8 -8 -18 -7.5621 2.4926
-8 -8 -17 4.2816 2.9883
-8 -8 -16 12.9637 0.2877
-8 -8 -15 6.5645 -5.8270
-8 -8 -14 7.4044 3.0791
-8 -8 -13 -6.3766 -3.7583
-8 -8 -12 -8.6435 3.5568
-8 -8 -11 5.2826 -3.3084
-8 -8 -10 7.0825 6.2503
-8 -8 -9 -7.5459 -6.8714
-8 -8 -8 8.2469 -1.4749
-8 -8 -7 -16.1698 1.1203
-8 -8 -6 -3.2364 5.8746
-8 -8 -5 2.1847 7.8951
-8 -8 -4 -2.5214 0.7457
-8 -8 -3 7.8682 20.4590
-8 -8 -2 2.6759 1.3347
-8 -8 -1 -1.2875 6.2395
-8 -7 -36 -1.9186 -5.2758
-8 -7 -35 0.8556 -1.5925
-8 -7 -34 -1.6595 16.5268
-8 -7 -33 -2.1533 2.2819
-8 -7 -32 9.0271 14.6899
-8 -7 -31 0.7631 -2.2777
-8 -7 -30 9.9557 1.5666
-8 -7 -29 3.4845 -8.5946
-8 -7 -28 -2.8560 -0.5034
-8 -7 -27 2.9805 -2.1219
-8 -7 -26 4.7434 0.1521
-8 -7 -25 5.9190 1.2309
-8 -7 -24 -1.0308 -1.8387
-8 -7 -23 3.4083 1.0255
-8 -7 -22 -1.6542 -3.7167
-8 -7 -21 -1.1213 0.0032
-8 -7 -20 -0.3378 -6.8996
-8 -7 -19 0.8792 -0.2002
-8 -7 -18 -3.5472 7.7162
-8 -7 -17 2.1220 8.3384
-8 -7 -16 4.8055 2.1541
-8 -7 -15 -4.0609 -14.3417
-8 -7 -14 -0.0819 -5.1217
-8 -7 -13 -2.8086 3.7455
-8 -7 -12 9.4202 -3.3032
-8 -7 -11 1.9303 -0.0732
-8 -7 -10 7.9880 2.4732
-8 -7 -9 -4.2911 -10.7782
-8 -7 -8 3.1404 -6.9174
-8 -7 -7 -8.9718 8.5912
-8 -7 -6 -8.6362 -17.5565
-8 -7 -5 -2.4616 19.1834
-8 -7 -4 -2.5191 -8.1444
-8 -7 -3 -1.6648 -1.7795
-8 -7 -2 -4.8930 8.8360
-8 -7 -1 6.2233 6.6327
-8 -6 -37 -1.7647 0.7961
-8 -6 -36 -11.0312 -1.7987
-8 -6 -35 -3.9682 -0.2324
-8 -6 -34 -3.6948 6.5006
-8 -6 -33 -3.0616 2.1943
-8 -6 -32 7.7795 5.9251
-8 -6 -31 -2.0628 1.1226
-8 -6 -30 6.9650 -0.4626
-8 -6 -29 -0.3714 8.2992
-8 -6 -28 -2.7664 6.1272
-8 -6 -27 -1.8875 4.1048
-8 -6 -26 6.4672 5.2365
-8 -6 -25 2.1266 -4.9630
-8 -6 -24 1.0827 2.9738
-8 -6 -23 6.6583 -2.2576
-8 -6 -22 5.4077 2.5170
-8 -6 -21 4.1390 -6.0275
-8 -6 -20 -6.6937 -0.7988
-8 -6 -19 -0.3167 4.1631
-8 -6 -18 3.9186 -5.3435
-8 -6 -17 8.1399 -3.8536
-8 -6 -16 5.4513 0.2333
-8 -6 -15 0.7085 3.2489
-8 -6 -14 0.1730 1.3998
-8 -6 -13 -14.4526 8.2576
-8 -6 -12 6.1515 3.3082
-8 -6 -11 7.9109 5.8402
-8 -6 -10 -2.7548 -5.0348
-8 -6 -9 0.6600 -2.2391
-8 -6 -8 5.7103 -3.2759
-8 -6 -7 -3.4169 5.1334
-8 -6 -6 -1.3287 -3.0903
-8 -6 -5 9.3305 2.9915
-8 -6 -4 -23.6337 5.6782
-8 -6 -3 16.0566 1.1698
-8 -6 -2 -20.3557 -0.6139
-8 -6 -1 0.9299 -1.0081
-8 -5 -38 6.8395 -5.4613
-8 -5 -37 -7.6929 -1.6136
-8 -5 -36 0.8316 -0.6146
-8 -5 -35 -4.5337 -1.3269
-8 -5 -34 -1.8879 -3.1364
-8 -5 -33 -2.6026 1.1742
-8 -5 -32 1.4761 -4.3152
-8 -5 -31 -7.3869 0.6961
-8 -5 -30 -3.3075 -7.0766
-8 -5 -29 -4.3015 1.0256
-8 -5 -28 1.5321 1.4195
-8 -5 -27 1.4371 1.4816
-8 -5 -26 -1.1589 7.0500
-8 -5 -25 -3.3710 4.9047
-8 -5 -24 4.5677 5.7549
-8 -5 -23 -1.7500 1.3950
-8 -5 -22 7.4474 3.7844
-8 -5 -21 -3.2403 -5.5343
-8 -5 -20 8.5526 5.5473
-8 -5 -19 -1.8579 5.0492
-8 -5 -18 1.4367 3.2831
-8 -5 -17 1.7511 -3.3829
-8 -5 -16 -8.1595 -13.8791
-8 -5 -15 -0.7074 -7.5285
-8 -5 -14 -1.9695 -1.0456
-8 -5 -13 -2.6035 0.6909
-8 -5 -12 -2.0198 -3.8663
-8 -5 -11 0.2409 12.5761
-8 -5 -10 -0.6691 -9.2232
-8 -5 -9 -1.9362 -3.6494
-8 -5 -8 -6.0468 8.2612
-8 -5 -7 -4.9954 -2.4248
-8 -5 -6 -3.1457 -2.1851
-8 -5 -5 -2.6890 -1.6149
-8 -5 -4 -6.9192 -2.9835
-8 -5 -3 -0.0952 -6.0438
-8 -5 -2 3.3366 19.3258
-8 -5 -1 -1.4827 -18.1142
-8 -4 -39 1.0733 1.2624
-8 -4 -38 -0.1375 -7.1084
-8 -4 -37 0.4955 2.1323
-8 -4 -36 9.7091 -12.5520
-8 -4 -35 7.5313 8.6001
-8 -4 -34 7.6354 -5.6890
-8 -4 -33 1.9938 1.3928
-8 -4 -32 0.9238 -4.4726
-8 -4 -31 13.1670 0.8996
-8 -4 -30 -10.5829 -1.0786
-8 -4 -29 -0.2992 0.9024
-8 -4 -28 -7.6510 -3.2632
-8 -4 -27 -1.6852 -3.0584
-8 -4 -26 -6.6682 -1.4202
-8 -4 -25 -2.5365 6.3763
-8 -4 -24 3.4655 1.2369
-8 -4 -23 1.6505 1.1514
-8 -4 -22 -2.1221 -1.9283
-8 -4 -21 -3.7063 6.0695
-8 -4 -20 10.9005 -7.0347
-8 -4 -19 0.3633 3.8754
-8 -4 -18 14.3752 -9.3570
-8 -4 -17 10.7964 9.2897
-8 -4 -16 2.1595 -4.2148
-8 -4 -15 2.1610 -4.4758
-8 -4 -14 -14.6678 -1.3714
-8 -4 -13 1.9042 -1.5529
-8 -4 -12 6.6856 0.7740
-8 -4 -11 -4.4240 -2.7171
-8 -4 -10 -8.6624 -5.5935
-8 -4 -9 11.9984 0.3674
-8 -4 -8 -9.8717 -5.5791
-8 -4 -7 -2.5941 -2.9465
-8 -4 -6 10.0331 -4.6718
-8 -4 -5 -3.0604 4.1003
-8 -4 -4 2.7213 2.6381
-8 -4 -3 -4.2967 -2.4891
-8 -4 -2 -2.4416 -0.2190
-8 -4 -1 7.3357 3.1222
-8 -3 -39 1.5752 0.6476
-8 -3 -38 4.6034 10.6250
-8 -3 -37 3.1575 13.0788
-8 -3 -36 -6.7304 1.0153
-8 -3 -35 4.9308 6.0774
-8 -3 -34 -6.1929 3.6358
-8 -3 -33 12.3193 6.8434
-8 -3 -32 -3.3055 -10.2858
-8 -3 -31 5.9213 -3.3236
-8 -3 -30 1.7941 -0.6970
-8 -3 -29 5.9719 -14.9730
-8 -3 -28 -1.2913 10.1003
-8 -3 -27 -4.2315 -5.1374
-8 -3 -26 2.6469 7.3848
-8 -3 -25 0.0468 -4.5526
-8 -3 -24 0.9376 6.2453
-8 -3 -23 4.8590 -1.5038
-8 -3 -22 -0.8389 9.3133
-8 -3 -21 1.0703 2.9516
-8 -3 -20 -0.2245 11.2263
-8 -3 -19 3.6579 6.6175
-8 -3 -18 -5.2744 -7.3262
-8 -3 -17 10.8204 0.7037
-8 -3 -16 -5.1564 -14.3437
-8 -3 -15 9.7643 -6.5736
-8 -3 -14 -10.9589 0.4434
-8 -3 -13 1.8771 -9.2748
-8 -3 -12 -1.3713 7.4249
-8 -3 -11 5.2787 -7.4065
-8 -3 -10 1.7917 -10.2559
-8 -3 -9 -3.2990 9.8261
-8 -3 -8 -1.0367 12.3738
-8 -3 -7 2.3724 -8.4094
-8 -3 -6 -9.6528 10.9321
-8 -3 -5 -0.8872 -5.0847
-8 -3 -4 -5.4408 -8.7916
-8 -3 -3 3.6208 1.6531
-8 -3 -2 -6.1768 -15.0116
-8 -3 -1 -13.6894 -9.6328
-8 -2 -40 2.3511 -0.5600
-8 -2 -39 -13.3645 2.0515
-8 -2 -38 4.2256 -7.1132
-8 -2 -37 -6.1763 1.2993
-8 -2 -36 -2.1072 3.2412
-8 -2 -35 3.0797 3.4524
-8 -2 -34 -2.4397 10.2409
-8 -2 -33 12.7713 0.4968
-8 -2 -32 3.8868 6.3158
-8 -2 -31 4.8601 -2.9367
-8 -2 -30 -13.1801 4.5018
-8 -2 -29 1.6970 -1.5627
-8 -2 -28 -0.5219 3.1558
-8 -2 -27 -10.1919 0.2232
-8 -2 -26 8.4898 6.7964
-8 -2 -25 -6.9857 2.8056
-8 -2 -24 0.3488 -8.1198
-8 -2 -23 -12.0929 3.9838
-8 -2 -22 7.4314 2.8361
-8 -2 -21 -6.5157 1.7271
-8 -2 -20 13.1550 2.5262
-8 -2 -19 0.4029 5.0510
-8 -2 -18 18.1248 1.9376
-8 -2 -17 10.8131 -4.6545
-8 -2 -16 -1.9520 -4.0769
-8 -2 -15 8.1002 -10.8163
-8 -2 -14 1.1028 11.4910
-8 -2 -13 6.8902 -4.7278
-8 -2 -12 -0.8165 6.1875
-8 -2 -11 -11.7316 -11.3911
-8 -2 -10 -2.7992 6.3471
-8 -2 -9 -11.1540 -7.5490
-8 -2 -8 -13.1509 -8.9100
-8 -2 -7 14.4825 -1.9639
-8 -2 -6 15.6599 -2.4178
-8 -2 -5 -8.7489 -3.9746
-8 -2 -4 20.7603 -5.3417
-8 -2 -3 5.6097 -10.6643
-8 -2 -2 10.2990 11.3160
-8 -2 -1 5.1669 3.9281
-8 -1 -40 3.0535 1.4919
-8 -1 -39 2.2349 3.3349
-8 -1 -38 -3.2317 -3.9282
-8 -1 -37 -3.8754 2.6608
-8 -1 -36 -10.7683 -0.6090
-8 -1 -35 1.6170 12.8189
-8 -1 -34 1.4870 1.7369
-8 -1 -33 -1.9582 -8.1883
-8 -1 -32 -0.4815 -1.1265
-8 -1 -31 -2.7535 -10.2890
-8 -1 -30 -2.3621 -2.8114
-8 -1 -29 -4.3671 -7.7076
-8 -1 -28 -2.7949 7.7795
-8 -1 -27 2.8068 -4.9277
-8 -1 -26 6.0378 -1.2389
-8 -1 -25 -4.2390 2.7849
-8 -1 -24 0.6310 -2.0001
-8 -1 -23 -7.9360 6.9465
-8 -1 -22 -10.7879 4.0850
-8 -1 -21 3.0202 12.8022
-8 -1 -20 0.1664 1.1126
-8 -1 -19 7.8497 17.5245
-8 -1 -18 3.8674 -7.7835
-8 -1 -17 5.2012 10.6650
-8 -1 -16 -5.2551 -0.9854
-8 -1 -15 -4.6488 -1.1002
-8 -1 -14 -1.4721 4.5161
-8 -1 -13 -1.5347 -11.1688
-8 -1 -12 12.9962 -12.1537
-8 -1 -11 -4.4044 -15.3981
-8 -1 -10 8.6404 3.1564
-8 -1 -9 -2.5102 11.0705
-8 -1 -8 13.7437 6.1814
-8 -1 -7 -3.0291 1.0327
-8 -1 -6 -1.8842 13.5870
-8 -1 -5 8.3152 1.8145
-8 -1 -4 1.2914 -2.2415
-8 -1 -3 -7.9748 17.8360
-8 -1 -2 -9.2334 -8.3344
-8 -1 -1 4.9182 27.2781
-7 -16 -11 1.5387 -7.2513
-7 -16 -10 11.0878 4.3361
-7 -16 -9 -3.0492 4.7604
-7 -16 -8 -2.5369 -0.8628
-7 -16 -7 0.2972 11.1757
-7 -16 -6 -6.6506 -8.2781
-7 -16 -5 -7.3413 1.8344
-7 -16 -4 5.8901 8.1504
-7 -16 -3 -4.8980 -4.9029
-7 -16 -2 1.8411 3.3461
-7 -16 -1 -19.2791 -2.7953
-7 -15 -17 0.6699 7.3953
-7 -15 -16 -3.7990 -1.2406
-7 -15 -15 -4.1120 5.8611
-7 -15 -14 2.4892 -0.0728
-7 -15 -13 8.9014 11.0547
-7 -15 -12 -14.4401 -1.5486
-7 -15 -11 0.0748 3.1564
-7 -15 -10 -9.7386 -6.0411
-7 -15 -9 -9.5314 0.1641
-7 -15 -8 -0.8809 -5.4816
-7 -15 -7 -3.8370 3.5325
-7 -15 -6 -5.7352 -2.0265
-7 -15 -5 5.3244 -6.1576
-7 -15 -4 -5.3862 -4.0909
-7 -15 -3 2.8317 -3.7520
-7 -15 -2 4.0432 -16.3225
-7 -15 -1 -5.8706 -2.9291
-7 -14 -22 4.7953 6.1429
-7 -14 -21 -3.5902 1.9644
-7 -14 -20 3.5517 -3.3099
-7 -14 -19 -5.4580 -5.3843
-7 -14 -18 -2.4733 1.5125
-7 -14 -17 1.1070 -1.8485
-7 -14 -16 -10.1096 8.5645
-7 -14 -15 -0.8860 -7.4001
-7 -14 -14 -1.7779 -0.3278
-7 -14 -13 0.5030 -3.9170
-7 -14 -12 -2.3841 -12.6656
-7 -14 -11 4.4603 -13.8292
-7 -14 -10 -3.9207 -0.3887
-7 -14 -9 2.3877 -5.5811
-7 -14 -8 2.4773 2.3704
-7 -14 -7 5.4183 -1.4221
-7 -14 -6 1.5854 1.9234
-7 -14 -5 3.8567 -0.1503
-7 -14 -4 0.2218 0.0907
-7 -14 -3 -2.3562 -8.6191
-7 -14 -2 1.9781 0.7343
-7 -14 -1 3.9682 -1.3320
-7 -13 -25 -12.7821 9.3229
-7 -13 -24 -2.6318 -2.3842
-7 -13 -23 -3.6519 2.0936
-7 -13 -22 13.5074 -2.7019
-7 -13 -21 -10.6454 -9.3546
-7 -13 -20 -0.9690 -1.7164
-7 -13 -19 -3.1303 -1.0802
-7 -13 -18 4.0776 -9.3356
-7 -13 -17 -7.5599 3.5559
-7 -13 -16 4.8947 -3.4960
-7 -13 -15 3.3404 -3.0589
-7 -13 -14 16.2559 -1.9006
-7 -13 -13 -1.0093 -1.5860
-7 -13 -12 5.7855 -2.4066
-7 -13 -11 -1.6200 3.0590
-7 -13 -10 -3.4549 6.8951
-7 -13 -9 -4.0668 2.0600
-7 -13 -8 -3.9494 0.8307
-7 -13 -7 -4.5244 -5.5937
-7 -13 -6 4.8578 -7.3343
-7 -13 -5 0.0929 -1.0853
-7 -13 -4 6.4304 -0.7015
-7 -13 -3 -3.9927 -1.7216
-7 -13 -2 3.0612 -1.1876
-7 -13 -1 -1.6442 0.3053
-7 -12 -29 4.2692 4.6190
-7 -12 -28 -3.7564 -9.3383
-7 -12 -27 1.1755 -10.0756
-7 -12 -26 -4.3064 -1.1542
-7 -12 -25 1.2308 6.2047
-7 -12 -24 10.7264 -2.9013
-7 -12 -23 9.3229 0.4669
-7 -12 -22 -0.9351 -6.2435
-7 -12 -21 4.6192 3.2136
-7 -12 -20 2.7256 -9.7071
-7 -12 -19 -3.3992 9.2884
-7 -12 -18 3.7747 -1.5708
-7 -12 -17 0.8535 8.3896
-7 -12 -16 2.0473 -1.0312
-7 -12 -15 10.2548 8.7752
-7 -12 -14 -4.8198 -8.4541
-7 -12 -13 -3.7588 -2.4792
-7 -12 -12 -6.8117 -10.4072
-7 -12 -11 1.4028 3.0820
-7 -12 -10 2.3260 -14.5884
-7 -12 -9 5.7393 -6.1650
-7 -12 -8 7.9872 -5.8130
-7 -12 -7 -0.4344 2.4686
-7 -12 -6 -1.7856 4.8513
-7 -12 -5 1.0914 3.9809
-7 -12 -4 2.5324 -4.9329
-7 -12 -3 6.0060 1.8636
-7 -12 -2 1.6473 0.3403
-7 -12 -1 -1.4224 1.2845
-7 -11 -31 7.4454 -3.8597
-7 -11 -30 4.5823 5.2188
-7 -11 -29 7.1639 -2.9082
-7 -11 -28 0.7714 1.1726
-7 -11 -27 0.6758 2.3298
-7 -11 -26 -6.6952 12.6406
-7 -11 -25 -2.8171 4.9453
-7 -11 -24 6.7811 4.8652
-7 -11 -23 2.8652 -1.1367
-7 -11 -22 -8.1545 -6.2583
-7 -11 -21 -4.3465 3.0544
-7 -11 -20 -0.7359 0.9663
-7 -11 -19 -1.2762 -3.3835
-7 -11 -18 -10.7098 3.9513
-7 -11 -17 6.1225 7.3654
-7 -11 -16 6.6208 -4.7349
-7 -11 -15 8.6669 -2.5253
-7 -11 -14 -3.1283 -4.3308
-7 -11 -13 5.3760 1.0310
-7 -11 -12 8.6726 7.7995
-7 -11 -11 16.4473 2.3655
-7 -11 -10 2.1760 1.7749
-7 -11 -9 5.3512 -3.9442
-7 -11 -8 -14.4390 -3.3580
-7 -11 -7 3.4224 2.0758
-7 -11 -6 -0.7313 0.0132
-7 -11 -5 3.9594 5.3122
-7 -11 -4 2.6330 0.5344
-7 -11 -3 6.2424 -3.7820
-7 -11 -2 -3.2223 -4.6002
-7 -11 -1 -6.6024 -0.6936
-7 -10 -33 -2.5556 10.7383
-7 -10 -32 -0.8443 1.8004
-7 -10 -31 -2.7582 11.2200
-7 -10 -30 6.5949 -1.3838
-7 -10 -29 -10.0698 -2.6657
-7 -10 -28 -4.9143 -5.6590
-7 -10 -27 -10.1080 0.7810
-7 -10 -26 0.5749 0.1703
-7 -10 -25 7.8988 -3.3609
-7 -10 -24 2.2976 -6.3023
-7 -10 -23 -7.0887 -3.5897
-7 -10 -22 3.2511 -4.0666
-7 -10 -21 3.1669 -3.8819
-7 -10 -20 -5.3100 -2.2726
-7 -10 -19 0.2595 4.8862
-7 -10 -18 -0.8263 1.5485
-7 -10 -17 3.3390 5.3219
-7 -10 -16 -0.0754 -2.1991
-7 -10 -15 -5.1258 -2.4538
-7 -10 -14 -7.5726 5.0383
-7 -10 -13 3.1555 13.4918
-7 -10 -12 0.5642 4.8657
-7 -10 -11 6.0844 -2.1007
-7 -10 -10 -0.1642 -9.6322
-7 -10 -9 0.4026 0.9477
-7 -10 -8 -5.0575 8.3377
-7 -10 -7 -1.9527 3.0387
-7 -10 -6 2.1772 15.4039
-7 -10 -5 6.0805 -5.8552
-7 -10 -4 1.1825 3.3005
-7 -10 -3 3.7750 -3.1716
-7 -10 -2 3.3845 -3.8803
-7 -10 -1 2.8322 -4.2422
-7 -9 -35 -17.6429 2.5923
-7 -9 -34 -3.3050 -6.7601
-7 -9 -33 -6.9924 11.9558
-7 -9 -32 3.1484 -8.3976
-7 -9 -31 -0.2581 1.2711
-7 -9 -30 -4.1233 -6.8486
-7 -9 -29 6.6713 -0.8664
-7 -9 -28 -1.0404 -3.0889
-7 -9 -27 1.6561 10.4971
-7 -9 -26 3.5878 -6.3769
-7 -9 -25 9.4265 -3.6412
-7 -9 -24 -2.0366 -2.5811
-7 -9 -23 0.8641 -1.7091
-7 -9 -22 -0.5338 2.3464
-7 -9 -21 1.6272 1.5762
-7 -9 -20 -2.1096 -5.0918
-7 -9 -19 -3.1930 -1.0710
-7 -9 -18 3.4194 0.6113
-7 -9 -17 11.2883 -9.0682
-7 -9 -16 -6.9806 -3.2282
-7 -9 -15 -5.0689 -2.1331
-7 -9 -14 -4.2299 8.1469
-7 -9 -13 9.2910 3.3456
-7 -9 -12 1.5874 -4.4131
-7 -9 -11 -0.8431 -7.1894
-7 -9 -10 -16.5698 -2.2896
-7 -9 -9 -4.8912 -5.0478
-7 -9 -8 -11.8544 6.5723
-7 -9 -7 5.3970 -2.7849
-7 -9 -6 -8.3773 8.5015
-7 -9 -5 -3.0097 0.3436
-7 -9 -4 3.3255 -2.9966
-7 -9 -3 -13.7518 3.0272
-7 -9 -2 6.7793 1.8074
-7 -9 -1 6.3474 1.3091
-7 -8 -36 1.1339 -3.7087
-7 -8 -35 -2.5506 -0.9283
-7 -8 -34 2.2694 -4.2285
-7 -8 -33 0.1395 -0.5866
-7 -8 -32 -4.5440 -7.5656
-7 -8 -31 7.3813 3.6098
-7 -8 -30 -8.0581 -4.1932
-7 -8 -29 4.4095 0.6173
-7 -8 -28 2.5644 5.4664
-7 -8 -27 11.4675 -0.1637
-7 -8 -26 -0.4915 -1.4825
-7 -8 -25 3.3958 -2.2132
-7 -8 -24 -7.8747 0.9343
-7 -8 -23 4.2277 -2.0406
-7 -8 -22 5.2111 2.6531
-7 -8 -21 -1.2416 -5.7870
-7 -8 -20 3.1041 6.7502
-7 -8 -19 7.5169 5.8777
-7 -8 -18 3.2484 -2.4579
-7 -8 -17 -3.1323 -3.0856
-7 -8 -16 -3.1319 0.4957
-7 -8 -15 -1.0602 0.9245
-7 -8 -14 9.8020 5.1830
-7 -8 -13 2.7708 -6.4089
-7 -8 -12 9.5496 -11.9187
-7 -8 -11 4.1436 -11.5023
-7 -8 -10 -5.4271 3.4696
-7 -8 -9 -2.0537 -3.3549
-7 -8 -8 -2.4012 1.3532
-7 -8 -7 -1.2074 -17.2508
-7 -8 -6 9.6019 -3.0950
-7 -8 -5 -8.6380 -17.7311
-7 -8 -4 8.3837 16.8600
-7 -8 -3 -1.1678 2.9917
-7 -8 -2 -8.5831 9.7240
-7 -8 -1 4.6549 16.3829
-7 -7 -38 3.5322 2.6905
-7 -7 -37 1.6953 3.6639
-7 -7 -36 0.9694 -1.9940
-7 -7 -35 6.3304 0.3379
-7 -7 -34 5.6925 -5.5859
-7 -7 -33 2.3908 -0.5219
-7 -7 -32 -1.3224 0.2561
-7 -7 -31 1.0613 3.9685
-7 -7 -30 0.1473 8.6704
-7 -7 -29 1.5972 1.7445
-7 -7 -28 1.1675 3.9045
-7 -7 -27 3.2809 -7.5105
-7 -7 -26 0.6038 -0.3566
-7 -7 -25 -2.0713 -0.5822
-7 -7 -24 1.4630 6.1275
-7 -7 -23 3.3895 -3.4149
-7 -7 -22 -0.0725 3.5358
-7 -7 -21 -5.4500 1.0491
-7 -7 -20 2.5383 -1.8563
-7 -7 -19 -0.3922 2.0553
-7 -7 -18 6.9855 -2.7221
-7 -7 -17 -1.3055 0.6713
-7 -7 -16 -7.4255 6.7599
-7 -7 -15 5.0843 7.8484
-7 -7 -14 9.7970 3.4461
-7 -7 -13 -0.0118 1.4378
-7 -7 -12 -5.4534 -5.8481
-7 -7 -11 -1.1821 0.9479
-7 -7 -10 0.5061 -5.6535
-7 -7 -9 9.9938 -2.3995
-7 -7 -8 13.6868 10.1618
-7 -7 -7 -0.1778 0.3991
-7 -7 -6 -1.1544 2.9728
-7 -7 -5 -18.4139 0.3740
-7 -7 -4 -5.2139 -8.7812
-7 -7 -3 -13.9592 13.6811
-7 -7 -2 20.2954 -4.3968
-7 -7 -1 -6.1050 8.9202
-7 -6 -38 1.5469 4.7473
-7 -6 -37 -1.1124 9.5434
-7 -6 -36 3.0163 -0.6424
-7 -6 -35 3.1327 -2.6671
-7 -6 -34 -4.1542 -1.7777
-7 -6 -33 -2.1767 -1.5973
-7 -6 -32 -5.7441 4.2288
-7 -6 -31 -1.2417 -4.1962
-7 -6 -30 5.9857 5.0524
-7 -6 -29 4.3564 3.0187
-7 -6 -28 2.5257 -5.4909
-7 -6 -27 -4.1072 1.3535
-7 -6 -26 1.6951 1.2753
-7 -6 -25 1.4225 5.4785
-7 -6 -24 3.6723 2.7999
-7 -6 -23 2.0271 -3.1305
-7 -6 -22 1.1945 -1.2716
-7 -6 -21 1.5079 4.1595
-7 -6 -20 1.5713 3.4710
-7 -6 -19 -1.0074 -2.8909
-7 -6 -18 -10.1343 -6.6556
-7 -6 -17 3.0261 0.2903
-7 -6 -16 0.3698 -3.6778
-7 -6 -15 -0.4803 -4.8498
-7 -6 -14 3.1282 0.3744
-7 -6 -13 3.8258 -8.5381
-7 -6 -12 5.4621 -4.7392
-7 -6 -11 -0.8240 10.6095
-7 -6 -10 -8.0333 8.9198
-7 -6 -9 -1.0408 -5.7022
-7 -6 -8 -0.7838 -3.8492
-7 -6 -7 -2.5681 -12.5475
-7 -6 -6 5.3503 -4.5144
-7 -6 -5 -6.4176 -1.2755
-7 -6 -4 -2.4079 -0.8450
-7 -6 -3 -7.1198 7.7222
-7 -6 -2 -14.0433 -2.6892
-7 -6 -1 15.5912 -6.8457
-7 -5 -39 3.1413 -2.0906
-7 -5 -38 2.9446 2.5852
-7 -5 -37 4.4231 -1.3452
-7 -5 -36 6.7508 -0.8923
-7 -5 -35 2.0959 -1.0149
-7 -5 -34 -1.5841 0.4595
-7 -5 -33 1.8230 -0.1191
-7 -5 -32 -1.9097 4.8741
-7 -5 -31 -2.5924 2.0760
-7 -5 -30 7.8826 -2.9527
-7 -5 -29 -8.3184 -0.0354
-7 -5 -28 2.6541 -2.0921
-7 -5 -27 -6.6899 6.3250
-7 -5 -26 -7.9723 2.0084
-7 -5 -25 5.1520 5.0162
-7 -5 -24 0.4900 -1.4388
-7 -5 -23 -1.3628 4.1500
-7 -5 -22 0.7708 3.5303
-7 -5 -21 2.8688 -4.5610
-7 -5 -20 8.9120 0.7599
-7 -5 -19 8.3924 -1.1144
-7 -5 -18 6.5301 7.5250
-7 -5 -17 -0.2705 -1.0181
-7 -5 -16 5.5808 5.7631
-7 -5 -15 6.4748 -2.8703
-7 -5 -14 -2.3976 3.2880
-7 -5 -13 -9.4044 2.0655
-7 -5 -12 4.0138 -8.1820
-7 -5 -11 -3.3457 -4.1188
-7 -5 -10 -1.0751 -3.1178
-7 -5 -9 9.0489 6.0963
-7 -5 -8 4.9456 1.0129
-7 -5 -7 -3.4991 -5.1729
-7 -5 -6 4.7883 -5.4218
-7 -5 -5 -7.5479 -2.1404
-7 -5 -4 9.3524 -3.7500
-7 -5 -3 0.1255 5.6800
-7 -5 -2 0.1332 7.5765
-7 -5 -1 -2.9431 15.6826
-7 -4 -40 -3.2025 1.5006
-7 -4 -39 4.7636 5.0091
-7 -4 -38 -4.2784 13.1185
-7 -4 -37 -3.5110 -8.3255
-7 -4 -36 0.6320 0.1083
-7 -4 -35 -1.5021 1.2430
-7 -4 -34 2.1869 0.8502
-7 -4 -33 1.0468 -2.4368
-7 -4 -32 6.4937 -2.8859
-7 -4 -31 2.3486 -3.3398
-7 -4 -30 1.2979 0.7704
-7 -4 -29 -0.7257 -7.1352
-7 -4 -28 -4.7665 -10.1754
-7 -4 -27 4.3012 10.1704
-7 -4 -26 -1.0180 -3.7109
-7 -4 -25 -1.8217 2.3001
-7 -4 -24 -9.7374 2.3971
-7 -4 -23 5.3015 6.2698
-7 -4 -22 -3.4821 7.0040
-7 -4 -21 0.9231 7.7688
-7 -4 -20 -6.6014 1.7076
-7 -4 -19 -4.7535 2.6015
-7 -4 -18 5.6517 0.4120
-7 -4 -17 -3.3898 -3.1083
-7 -4 -16 1.7308 -6.4402
-7 -4 -15 -2.6029 1.1389
-7 -4 -14 11.7145 -11.3675
-7 -4 -13 6.8683 -8.8869
-7 -4 -12 -1.7732 2.3564
-7 -4 -11 -3.3878 6.9400
-7 -4 -10 -3.1164 -9.0363
-7 -4 -9 5.6613 7.5030
-7 -4 -8 1.3913 7.5037
-7 -4 -7 5.2603 0.6772
-7 -4 -6 -2.9473 -5.2729
-7 -4 -5 -3.7083 4.8474
-7 -4 -4 -9.6464 -4.7645
-7 -4 -3 -13.2201 2.9417
-7 -4 -2 2.3915 -19.8561
-7 -4 -1 6.9685 2.8148
-7 -3 -40 -1.0604 1.2525
-7 -3 -39 12.1693 -11.5949
-7 -3 -38 1.1044 5.4307
-7 -3 -37 0.0809 -3.6455
-7 -3 -36 1.2038 7.8853
-7 -3 -35 3.2190 4.3087
-7 -3 -34 9.4249 1.8587
-7 -3 -33 0.0508 6.3128
-7 -3 -32 5.7192 2.0594
-7 -3 -31 3.0867 2.7303
-7 -3 -30 1.7754 -0.6034
-7 -3 -29 -5.0824 6.5358
-7 -3 -28 3.0650 0.7690
-7 -3 -27 -6.0201 -5.4746
-7 -3 -26 -2.9555 -4.0661
-7 -3 -25 -0.8350 -2.1993
-7 -3 -24 -5.5425 0.4311
-7 -3 -23 -1.2311 -1.0011
-7 -3 -22 -0.0401 3.9360
-7 -3 -21 6.3560 -12.7027
-7 -3 -20 -1.4745 8.0527
-7 -3 -19 8.4200 -6.9949
-7 -3 -18 5.2877 3.9622
-7 -3 -17 7.0809 -0.7017
-7 -3 -16 13.9731 6.7177
-7 -3 -15 1.2281 10.8407
-7 -3 -14 -0.3464 -0.1582
-7 -3 -13 7.5127 -4.8178
-7 -3 -12 -10.8342 -7.5823
-7 -3 -11 -13.8426 2.2859
-7 -3 -10 -0.5700 9.3228
-7 -3 -9 3.2585 -0.0211
-7 -3 -8 -6.9954 -5.3349
-7 -3 -7 4.0612 -4.2752
-7 -3 -6 -0.4760 -2.0146
-7 -3 -5 10.5118 -4.1681
-7 -3 -4 -2.0217 2.4401
-7 -3 -3 6.6330 8.5662
-7 -3 -2 -6.4577 13.5513
-7 -3 -1 8.6085 6.5727
-7 -2 -41 8.3797 12.4926
-7 -2 -40 -7.3997 5.0223
-7 -2 -39 3.0196 4.6048
-7 -2 -38 -2.5132 -2.4509
-7 -2 -37 -6.6673 4.2693
-7 -2 -36 5.4462 11.9686
-7 -2 -35 -8.4826 2.4394
-7 -2 -34 1.0213 6.7692
-7 -2 -33 -4.1273 -4.7832
-7 -2 -32 -5.3871 -1.1099
-7 -2 -31 0.2077 0.5278
-7 -2 -30 -0.3475 -9.0537
-7 -2 -29 2.5490 -0.9440
-7 -2 -28 2.0107 -1.6016
-7 -2 -27 5.7343 4.2530
-7 -2 -26 -5.4649 -6.5452
-7 -2 -25 -6.1649 8.6588
-7 -2 -24 -1.4188 1.0787
-7 -2 -23 9.8273 6.3444
-7 -2 -22 -0.1811 -2.4664
-7 -2 -21 1.5317 9.9317
-7 -2 -20 10.3095 8.1801
-7 -2 -19 -12.2922 2.3833
-7 -2 -18 6.8152 11.7929
-7 -2 -17 -18.5761 -2.8538
-7 -2 -16 6.2102 0.0012
-7 -2 -15 4.7540 -4.8902
-7 -2 -14 10.6518 -22.8794
-7 -2 -13 -6.3887 -0.6347
-7 -2 -12 -3.4280 -5.7810
-7 -2 -11 1.7451 -10.0601
-7 -2 -10 2.5887 9.5731
-7 -2 -9 2.6888 8.8951
-7 -2 -8 -2.1647 -10.4485
-7 -2 -7 -1.1471 1.1670
-7 -2 -6 -6.0434 10.0227
-7 -2 -5 -11.4183 2.3045
-7 -2 -4 -12.1942 -2.3348
-7 -2 -3 5.2019 -14.4552
-7 -2 -2 4.0914 18.6698
-7 -2 -1 -0.4180 -0.5590
-7 -1 -41 6.0295 1.6388
-7 -1 -40 -3.0846 -1.1116
-7 -1 -39 -0.3904 -4.8013
-7 -1 -38 -13.1107 9.8442
-7 -1 -37 -0.6276 -4.1338
-7 -1 -36 -6.2603 -0.0166
-7 -1 -35 3.6824 -3.2198
-7 -1 -34 3.6248 -4.4776
-7 -1 -33 0.0619 6.6960
-7 -1 -32 14.2985 -2.7082
-7 -1 -31 -6.9626 1.9635
-7 -1 -30 2.2183 4.5611
-7 -1 -29 -1.9122 -1.3057
-7 -1 -28 -4.3065 -8.5501
-7 -1 -27 -1.0487 -6.5007
-7 -1 -26 -5.7684 -1.3033
-7 -1 -25 4.1629 1.9180
-7 -1 -24 -5.3908 8.4350
-7 -1 -23 -0.0126 5.8562
-7 -1 -22 -9.5699 5.1832
-7 -1 -21 -0.3685 -9.6460
-7 -1 -20 -9.2401 3.7984
-7 -1 -19 9.9863 -3.1316
-7 -1 -18 7.7140 -6.8500
-7 -1 -17 8.4645 19.6269
-7 -1 -16 18.1976 -8.6382
-7 -1 -15 3.1733 11.5576
-7 -1 -14 9.8365 -7.4719
-7 -1 -13 -1.3384 1.1850
-7 -1 -12 -20.5531 1.5188
-7 -1 -11 11.2341 11.7390
-7 -1 -10 3.4975 -9.8681
-7 -1 -9 -12.7062 -7.9301
-7 -1 -8 -4.3044 0.6553
-7 -1 -7 3.0330 -7.2926
-7 -1 -6 -3.0471 -0.0832
-7 -1 -5 9.3386 -8.1702
-7 -1 -4 -7.2886 0.7000
-7 -1 -3 2.6165 5.9501
-7 -1 -2 7.0380 -4.4113
-7 -1 -1 -10.0985 -15.2685
-6 -17 -1 -3.3259 -13.5194
-6 -16 -14 -6.5067 0.0366
-6 -16 -13 -0.5154 8.4208
-6 -16 -12 -3.8377 -9.0054
-6 -16 -11 -0.6343 -10.5042
-6 -16 -10 3.8765 4.9185
-6 -16 -9 0.0151 -10.8392
-6 -16 -8 1.9557 10.1744
-6 -16 -7 -8.7061 -2.0255
-6 -16 -6 2.0479 -3.4311
-6 -16 -5 1.5156 0.8721
-6 -16 -4 8.7459 -6.9575
-6 -16 -3 6.4652 6.7188
-6 -16 -2 10.6091 14.4413
-6 -16 -1 4.1466 -3.3251
-6 -15 -20 1.7132 11.9473
-6 -15 -19 2.7913 1.8706
-6 -15 -18 -3.8793 -2.9514
-6 -15 -17 9.3574 -5.9782
-6 -15 -16 -5.7012 1.9124
-6 -15 -15 -2.0094 -9.6970
-6 -15 -14 10.6629 0.3275
-6 -15 -13 -1.0513 -1.6780
-6 -15 -12 1.9886 1.5400
-6 -15 -11 5.4098 -2.7099
-6 -15 -10 -1.5460 -3.4548
-6 -15 -9 1.5840 -4.3179
-6 -15 -8 12.7289 2.4144
-6 -15 -7 -11.0579 4.6467
-6 -15 -6 1.7948 0.9027
-6 -15 -5 -9.6039 12.5070
-6 -15 -4 -7.9815 0.0476
-6 -15 -3 1.2188 4.7012
-6 -15 -2 -7.5781 3.2123
-6 -15 -1 9.4567 3.8063
-6 -14 -23 3.9419 -5.8569
-6 -14 -22 -9.0834 1.2392
-6 -14 -21 0.6596 -4.1737
-6 -14 -20 7.0699 3.0926
-6 -14 -19 -5.4727 1.2082
-6 -14 -18 13.1393 0.3883
-6 -14 -17 1.4106 0.2987
-6 -14 -16 -4.3865 7.0072
-6 -14 -15 3.5880 -12.2525
-6 -14 -14 6.5955 9.5129
-6 -14 -13 -3.2570 1.8042
-6 -14 -12 5.9051 1.5440
-6 -14 -11 -3.2488 9.3522
-6 -14 -10 -1.5167 -2.4799
-6 -14 -9 -7.0122 -6.8187
-6 -14 -8 -10.3556 -7.8728
-6 -14 -7 -5.0984 -4.9335
-6 -14 -6 4.4954 -5.7388
-6 -14 -5 -0.9235 6.9654
-6 -14 -4 -5.7772 -2.2060
-6 -14 -3 2.0686 -4.3522
-6 -14 -2 -4.1101 -3.8467
-6 -14 -1 -1.5369 -8.1939
-6 -13 -27 -1.5473 -5.3425
-6 -13 -26 2.6960 7.2873
-6 -13 -25 4.8014 1.0753
-6 -13 -24 6.8512 -11.2135
-6 -13 -23 3.9052 1.2335
-6 -13 -22 -1.5042 4.6555
-6 -13 -21 -4.2749 2.1630
-6 -13 -20 0.1514 8.0316
-6 -13 -19 -7.2572 -9.9623
-6 -13 -18 4.2808 3.4548
-6 -13 -17 2.4710 10.6087
-6 -13 -16 -4.5117 -4.1501
-6 -13 -15 -4.7539 0.2541
-6 -13 -14 -1.7059 5.6147
-6 -13 -13 -10.9750 -6.2950
-6 -13 -12 13.4835 -6.0621
-6 -13 -11 4.8167 -13.0448
-6 -13 -10 9.7290 -10.4839
-6 -13 -9 5.7895 2.1069
-6 -13 -8 -7.9342 -0.1264
-6 -13 -7 -3.1768 2.0710
-6 -13 -6 -0.0415 1.1903
-6 -13 -5 3.5270 0.0277
-6 -13 -4 0.8656 -6.3016
-6 -13 -3 0.6296 0.0083
-6 -13 -2 -1.4067 -2.8104
-6 -13 -1 -3.5566 1.2207
-6 -12 -30 6.5499 -4.6420
-6 -12 -29 -0.2846 1.2115
-6 -12 -28 -6.4842 5.5766
-6 -12 -27 7.8193 6.8535
-6 -12 -26 6.5446 11.5551
-6 -12 -25 -5.3663 -2.4379
-6 -12 -24 0.3156 -3.0277
-6 -12 -23 -3.1755 -2.1911
-6 -12 -22 -0.6355 -4.3776
-6 -12 -21 6.3900 -7.1261
-6 -12 -20 -5.7399 1.8285
-6 -12 -19 -3.4263 -2.6926
-6 -12 -18 1.4922 -4.4820
-6 -12 -17 -8.2839 -5.0808
-6 -12 -16 7.8981 -9.2367
-6 -12 -15 3.4727 -0.4551
-6 -12 -14 5.4572 12.2844
-6 -12 -13 11.2096 4.2009
-6 -12 -12 9.6904 4.0491
-6 -12 -11 -5.7498 3.9154
-6 -12 -10 0.9603 -9.0598
-6 -12 -9 -10.9785 0.5401
-6 -12 -8 4.5582 -4.2547
-6 -12 -7 3.6280 -0.8086
-6 -12 -6 -2.5989 0.4064
-6 -12 -5 3.3669 -9.0532
-6 -12 -4 -0.7022 -6.8865
-6 -12 -3 6.4102 0.3998
-6 -12 -2 -7.2617 1.2002
-6 -12 -1 -2.4432 -4.1344
-6 -11 -33 -0.0222 7.1305
-6 -11 -32 2.3249 2.8085
-6 -11 -31 -6.9118 -1.6528
-6 -11 -30 -4.6553 7.1040
-6 -11 -29 -6.8813 -2.0910
-6 -11 -28 -7.5025 0.5142
-6 -11 -27 3.7878 3.3638
-6 -11 -26 7.5750 1.1158
-6 -11 -25 0.0452 -7.4687
-6 -11 -24 8.3850 2.6317
-6 -11 -23 -1.2995 8.5383
-6 -11 -22 6.5315 -4.2798
-6 -11 -21 5.0819 -3.9531
-6 -11 -20 5.2923 -3.8655
-6 -11 -19 4.6243 2.3112
-6 -11 -18 11.7305 9.9468
-6 -11 -17 -6.2113 -4.8642
-6 -11 -16 -5.3774 4.8987
-6 -11 -15 -4.0473 12.0359
-6 -11 -14 0.6513 -3.7531
-6 -11 -13 1.3330 -2.8239
-6 -11 -12 5.5050 -9.0347
-6 -11 -11 -4.4909 -1.2123
-6 -11 -10 3.4839 4.2269
-6 -11 -9 1.4428 3.4040
-6 -11 -8 3.2921 -9.7124
-6 -11 -7 7.7148 5.8406
-6 -11 -6 1.0220 -1.9529
-6 -11 -5 -0.1243 4.9992
-6 -11 -4 -0.7080 2.2516
-6 -11 -3 2.1749 -7.6107
-6 -11 -2 4.5852 2.9043
-6 -11 -1 9.7040 -13.5682
-6 -10 -35 3.1248 -3.2307
-6 -10 -34 -6.7683 -4.3258
-6 -10 -33 -0.6299 -5.0257
-6 -10 -32 -2.5322 -2.6250
-6 -10 -31 3.3491 -6.0853
-6 -10 -30 -2.0575 -3.6122
-6 -10 -29 -6.3931 8.7159
-6 -10 -28 8.5763 5.2743
-6 -10 -27 -3.2289 -0.4527
-6 -10 -26 -3.5360 1.6886
-6 -10 -25 -1.8446 1.1582
-6 -10 -24 1.2510 4.8486
-6 -10 -23 -0.2657 7.6350
-6 -10 -22 1.8594 -1.9653
-6 -10 -21 -5.7179 9.3885
-6 -10 -20 -6.5069 3.7536
-6 -10 -19 2.5182 -2.5146
-6 -10 -18 -3.8260 -6.4000
-6 -10 -17 0.9300 0.7748
-6 -10 -16 4.4605 0.3859
-6 -10 -15 1.9056 8.5341
-6 -10 -14 9.0890 -2.9992
-6 -10 -13 -1.4635 -2.6904
-6 -10 -12 -9.4062 -1.6842
-6 -10 -11 1.4967 -0.9508
-6 -10 -10 5.7832 -2.7355
-6 -10 -9 4.7533 3.7738
-6 -10 -8 -1.7976 -4.6298
-6 -10 -7 -10.0214 0.9693
-6 -10 -6 -9.2939 -5.1779
-6 -10 -5 0.1019 3.2625
-6 -10 -4 3.8332 7.5992
-6 -10 -3 6.4537 0.1851
-6 -10 -2 6.9456 3.1957
-6 -10 -1 4.3298 -4.1155
-6 -9 -36 1.0110 3.3809
-6 -9 -35 8.6144 -2.0531
-6 -9 -34 0.5278 1.2666
-6 -9 -33 2.9232 -3.6334
-6 -9 -32 -2.3281 4.6340
-6 -9 -31 -2.7141 -1.4032
-6 -9 -30 -2.0918 -0.7066
-6 -9 -29 1.4935 -3.6337
-6 -9 -28 0.4554 1.5821
-6 -9 -27 0.1628 2.6647
-6 -9 -26 -3.3748 -10.3959
-6 -9 -25 -5.8626 5.2337
-6 -9 -24 4.6340 -3.5866
-6 -9 -23 -3.0443 -7.2242
-6 -9 -22 -2.0845 -7.4283
-6 -9 -21 1.7654 3.4789
-6 -9 -20 1.1629 2.2467
-6 -9 -19 3.5695 4.8298
-6 -9 -18 -2.1570 -0.0483
-6 -9 -17 -7.4838 1.2782
-6 -9 -16 0.4808 8.6222
-6 -9 -15 7.0161 -10.2288
-6 -9 -14 3.4207 -5.4684
-6 -9 -13 8.4343 -1.5630
-6 -9 -12 3.1058 8.8427
-6 -9 -11 4.1409 6.8312
-6 -9 -10 3.3424 -7.3735
-6 -9 -9 -4.3253 -12.2360
-6 -9 -8 -0.2193 -13.7814
-6 -9 -7 3.2357 -0.0691
-6 -9 -6 -4.6133 2.0753
-6 -9 -5 3.8594 10.0161
-6 -9 -4 -6.7595 5.6206
-6 -9 -3 1.9822 11.9895
-6 -9 -2 2.9126 -4.7539
-6 -9 -1 -6.7488 2.8554
-6 -8 -38 -6.1779 1.5558
-6 -8 -37 2.9841 9.3904
-6 -8 -36 0.3797 3.0322
-6 -8 -35 -4.4103 -5.9036
-6 -8 -34 -2.3608 8.2842
-6 -8 -33 0.3260 -6.1121
-6 -8 -32 1.8352 5.2144
-6 -8 -31 -1.9180 -0.3179
-6 -8 -30 -2.9400 4.1689
-6 -8 -29 1.7475 -4.6582
-6 -8 -28 0.5752 -1.3105
-6 -8 -27 0.8856 -0.2932
-6 -8 -26 5.7731 4.7850
-6 -8 -25 9.8241 1.0697
-6 -8 -24 -1.6283 -4.1433
-6 -8 -23 3.7304 2.4823
-6 -8 -22 -11.1766 -2.7072
-6 -8 -21 -0.3736 6.9724
-6 -8 -20 -0.8520 -4.3740
-6 -8 -19 1.4930 -4.9129
-6 -8 -18 -2.7001 2.1904
-6 -8 -17 6.2383 4.9285
-6 -8 -16 2.1881 2.5477
-6 -8 -15 -1.6994 11.3632
-6 -8 -14 -2.2707 6.1360
-6 -8 -13 -10.7620 0.3850
-6 -8 -12 13.2821 -1.6999
-6 -8 -11 8.5284 -11.3207
-6 -8 -10 14.7031 0.6995
-6 -8 -9 -0.0528 2.3902
-6 -8 -8 -11.4147 -3.8885
-6 -8 -7 -3.4434 6.3479
-6 -8 -6 -10.7204 -6.7622
-6 -8 -5 1.3155 -9.3602
-6 -8 -4 -4.6109 -2.0297
-6 -8 -3 3.0485 -5.5461
-6 -8 -2 -6.0693 12.2988
-6 -8 -1 0.3984 4.7238
-6 -7 -39 -12.2837 2.1657
-6 -7 -38 3.3333 -6.6232
-6 -7 -37 -3.9749 -1.1338
-6 -7 -36 -4.9029 -0.3857
-6 -7 -35 -1.6941 -7.3948
-6 -7 -34 0.8671 0.6188
-6 -7 -33 -6.1806 -2.6814
-6 -7 -32 5.7634 -4.7504
-6 -7 -31 -3.4800 -5.7569
-6 -7 -30 2.7937 0.9152
-6 -7 -29 -4.9109 2.0418
-6 -7 -28 1.0131 7.4410
-6 -7 -27 -4.5299 -0.2955
-6 -7 -26 4.6787 7.4211
-6 -7 -25 1.7536 -4.0736
-6 -7 -24 -2.7788 -8.0842
-6 -7 -23 -2.1266 -1.9796
-6 -7 -22 1.3554 5.6038
-6 -7 -21 5.2207 -2.7313
-6 -7 -20 -4.1115 2.9648
-6 -7 -19 2.6974 -7.9038
-6 -7 -18 -6.8703 -1.4746
-6 -7 -17 -6.5546 -2.0965
-6 -7 -16 -0.5692 -5.4269
-6 -7 -15 1.6727 -6.5770
-6 -7 -14 5.0468 9.7972
-6 -7 -13 13.3665 10.7754
-6 -7 -12 2.5837 3.2238
-6 -7 -11 -6.4933 -0.0095
-6 -7 -10 2.0777 -13.0364
-6 -7 -9 -3.4978 1.7978
-6 -7 -8 13.7644 -5.2477
-6 -7 -7 12.3415 0.2336
-6 -7 -6 -1.8744 4.3138
-6 -7 -5 13.3406 -6.0785
-6 -7 -4 -7.8139 -0.9760
-6 -7 -3 -8.9528 -10.1407
-6 -7 -2 -1.1071 1.9137
-6 -7 -1 -3.1538 -0.4520
-6 -6 -40 -1.0029 -5.9138
-6 -6 -39 0.0660 -5.6816
-6 -6 -38 8.1802 -8.2878
-6 -6 -37 3.6088 5.2130
-6 -6 -36 -1.8952 -6.1069
-6 -6 -35 6.2589 4.0501
-6 -6 -34 12.9706 -4.7568
-6 -6 -33 -1.2285 1.4826
-6 -6 -32 2.9892 -6.7602
-6 -6 -31 -3.2273 -0.5828
-6 -6 -30 0.5055 -1.9976
-6 -6 -29 -5.5564 1.2242
-6 -6 -28 -1.3433 3.3018
-6 -6 -27 2.9325 -2.0433
-6 -6 -26 8.2363 -8.4395
-6 -6 -25 -7.2041 3.1171
-6 -6 -24 0.9402 2.3673
-6 -6 -23 -3.9165 1.0583
-6 -6 -22 4.2717 3.1717
-6 -6 -21 14.4137 -2.2562
-6 -6 -20 6.3950 -2.5419
-6 -6 -19 4.5222 0.4275
-6 -6 -18 8.9426 0.4693
-6 -6 -17 -0.7244 0.1583
-6 -6 -16 -5.4442 10.0717
-6 -6 -15 -0.6737 10.5897
-6 -6 -14 -2.9333 -6.9177
-6 -6 -13 0.3291 -6.9499
-6 -6 -12 9.3606 -1.7774
-6 -6 -11 -1.3994 3.0116
-6 -6 -10 -6.8138 8.8122
-6 -6 -9 -7.2376 10.8613
-6 -6 -8 -0.9429 -1.3309
-6 -6 -7 8.6206 11.2465
-6 -6 -6 -0.1607 -4.5276
-6 -6 -5 -2.5216 -6.8630
-6 -6 -4 3.4076 11.9839
-6 -6 -3 -8.0784 -9.1958
-6 -6 -2 -10.2626 9.8720
-6 -6 -1 -8.1928 7.2247
-6 -5 -41 1.8315 4.5401
-6 -5 -40 7.3332 4.4701
-6 -5 -39 1.2506 -5.3296
-6 -5 -38 -3.4118 3.1078
-6 -5 -37 5.2304 8.9470
-6 -5 -36 -0.7658 2.1195
-6 -5 -35 11.9124 2.6533
-6 -5 -34 0.3316 -2.1501
-6 -5 -33 7.5522 0.8196
-6 -5 -32 -6.1290 -7.3035
-6 -5 -31 3.7395 6.4392
-6 -5 -30 -2.0067 -5.1003
-6 -5 -29 7.9733 6.4044
-6 -5 -28 6.7922 -3.0128
-6 -5 -27 -3.7313 0.4113
-6 -5 -26 -1.0513 -6.7440
-6 -5 -25 -7.4047 -2.7317
-6 -5 -24 -1.8661 6.4471
-6 -5 -23 6.4331 19.3728
-6 -5 -22 0.7275 3.6591
-6 -5 -21 -5.2597 6.5317
-6 -5 -20 3.5134 3.9766
-6 -5 -19 -2.7725 -5.0387
-6 -5 -18 -8.3896 4.3491
-6 -5 -17 1.5470 -3.0015
-6 -5 -16 4.4356 -2.2664
-6 -5 -15 13.9795 5.9393
-6 -5 -14 6.5045 6.7626
-6 -5 -13 1.0513 -12.1775
-6 -5 -12 -15.1257 -8.9984
-6 -5 -11 0.4791 -2.6252
-6 -5 -10 2.6416 -2.3871
-6 -5 -9 -2.9777 3.4416
-6 -5 -8 -4.7500 -1.8491
-6 -5 -7 -1.2619 4.1918
-6 -5 -6 -7.6424 -7.6306
-6 -5 -5 5.6416 -13.6286
-6 -5 -4 -10.7107 -9.3312
-6 -5 -3 -11.2719 -1.1747
-6 -5 -2 12.4176 -2.4088
-6 -5 -1 -11.0341 7.9822
-6 -4 -42 2.6979 3.6451
-6 -4 -41 -0.8053 -0.5384
-6 -4 -40 2.2669 0.2216
-6 -4 -39 -0.2218 8.0593
-6 -4 -38 -2.0987 3.1759
-6 -4 -37 -2.1314 8.1107
-6 -4 -36 10.2543 5.1755
-6 -4 -35 6.7734 -2.1408
-6 -4 -34 -3.7239 4.9009
-6 -4 -33 -1.7859 -3.3439
-6 -4 -32 -2.8679 7.8938
-6 -4 -31 5.9356 1.9112
-6 -4 -30 -9.5245 6.6966
-6 -4 -29 11.5878 -5.9879
-6 -4 -28 -0.2250 -6.4424
-6 -4 -27 9.3763 -10.2162
-6 -4 -26 -16.8155 5.1661
-6 -4 -25 -5.8991 6.6773
-6 -4 -24 -5.8229 -1.0211
-6 -4 -23 0.6646 -0.9021
-6 -4 -22 2.3955 1.1419
-6 -4 -21 7.1312 -1.1784
-6 -4 -20 -3.4281 -4.3073
-6 -4 -19 3.7156 3.5414
-6 -4 -18 -2.4360 4.8210
-6 -4 -17 -9.2521 15.1433
-6 -4 -16 4.6044 15.6282
-6 -4 -15 3.0191 -10.8137
-6 -4 -14 0.5520 -4.7032
-6 -4 -13 7.6614 -1.2107
-6 -4 -12 -1.1069 6.6820
-6 -4 -11 -11.6463 -8.0355
-6 -4 -10 -3.5066 2.1459
-6 -4 -9 10.3686 -13.3181
-6 -4 -8 4.4226 1.6334
-6 -4 -7 5.6481 2.0582
-6 -4 -6 6.3291 -7.3720
-6 -4 -5 20.0818 -3.4802
-6 -4 -4 -4.2089 4.9872
-6 -4 -3 -16.0235 -11.8041
-6 -4 -2 -0.6250 7.9163
-6 -4 -1 5.9714 9.4091
-6 -3 -42 2.6886 10.1116
-6 -3 -41 -7.9552 -3.4853
-6 -3 -40 -2.6825 -2.5105
-6 -3 -39 -9.2408 7.2165
-6 -3 -38 4.3316 10.9265
-6 -3 -37 0.7818 3.8233
-6 -3 -36 -4.7582 -2.2605
-6 -3 -35 -0.3348 -2.5786
-6 -3 -34 -6.4500 -5.3355
-6 -3 -33 0.1143 2.3391
-6 -3 -32 4.1002 -1.3027
-6 -3 -31 4.9405 3.3409
-6 -3 -30 14.7952 6.3439
-6 -3 -29 3.4787 -6.4406
-6 -3 -28 -4.6996 2.8756
-6 -3 -27 -5.1380 -14.5661
-6 -3 -26 -2.1413 8.9068
-6 -3 -25 -4.4613 -2.1876
-6 -3 -24 10.3168 18.8699
-6 -3 -23 -5.3913 -1.4128
-6 -3 -22 5.5309 4.4923
-6 -3 -21 -4.1623 1.1485
-6 -3 -20 -2.0980 -2.1274
-6 -3 -19 -10.5081 -8.2545
-6 -3 -18 -13.5559 -0.0397
-6 -3 -17 10.7862 -6.7289
-6 -3 -16 7.0339 2.8006
-6 -3 -15 1.3221 -2.1580
-6 -3 -14 7.6287 -16.9751
-6 -3 -13 -8.4889 -12.9309
-6 -3 -12 11.0150 10.3163
-6 -3 -11 10.7917 -6.7702
-6 -3 -10 -4.6656 4.1029
-6 -3 -9 -15.8094 5.2692
-6 -3 -8 13.5286 20.2536
-6 -3 -7 -8.7354 0.7295
-6 -3 -6 13.0870 -0.2452
-6 -3 -5 -1.6860 -6.6185
-6 -3 -4 -10.1283 4.1591
-6 -3 -3 4.6523 -3.5368
-6 -3 -2 1.9827 5.0379
-6 -3 -1 -17.1394 10.8728
-6 -2 -42 1.4145 -8.7155
-6 -2 -41 -6.6772 8.9464
-6 -2 -40 -0.7292 -1.4446
-6 -2 -39 -9.6281 5.2357
-6 -2 -38 4.0808 -6.8567
-6 -2 -37 9.1109 3.2521
-6 -2 -36 5.7985 -10.6758
-6 -2 -35 -4.1448 6.0573
-6 -2 -34 -0.6635 8.2598
-6 -2 -33 1.8297 6.7320
-6 -2 -32 -4.7087 14.7390
-6 -2 -31 5.9425 -3.0657
-6 -2 -30 -3.8474 0.1258
-6 -2 -29 5.2140 -5.7084
-6 -2 -28 -4.2759 -8.5977
-6 -2 -27 -15.2624 3.5748
-6 -2 -26 -3.2723 10.2692
-6 -2 -25 -10.3573 -2.0233
-6 -2 -24 3.8492 1.6157
-6 -2 -23 -10.1287 6.4430
-6 -2 -22 10.6931 -10.9118
-6 -2 -21 1.0881 5.9639
-6 -2 -20 7.5567 -15.5134
-6 -2 -19 5.8658 15.0917
-6 -2 -18 6.5389 6.8873
-6 -2 -17 10.4106 5.5576
-6 -2 -16 17.7470 10.0432
-6 -2 -15 3.1366 -9.2183
-6 -2 -14 6.9513 15.2302
-6 -2 -13 -1.5279 9.0373
-6 -2 -12 -9.8012 -22.3687
-6 -2 -11 -9.5840 -1.3681
-6 -2 -10 9.0589 -4.3358
-6 -2 -9 -23.0584 -1.3981
-6 -2 -8 2.3197 10.2731
-6 -2 -7 4.6837 1.4064
-6 -2 -6 16.7670 -20.9367
-6 -2 -5 -24.2664 19.6695
-6 -2 -4 -7.0639 -23.4947
-6 -2 -3 1.0930 10.2627
-6 -2 -2 9.8689 26.6647
-6 -2 -1 -11.3163 9.5488
-6 -1 -43 -6.1523 -0.8533
-6 -1 -42 2.4583 -3.3739
-6 -1 -41 -7.9045 -2.4218
-6 -1 -40 -0.5824 6.2776
-6 -1 -39 8.2776 11.5093
-6 -1 -38 2.9657 0.1065
-6 -1 -37 -0.5591 2.3267
-6 -1 -36 -11.9729 -2.5935
-6 -1 -35 -0.1939 0.0605
-6 -1 -34 -12.1615 0.1789
-6 -1 -33 4.7781 3.1217
-6 -1 -32 0.0059 -2.1825
-6 -1 -31 6.5711 -4.3512
-6 -1 -30 9.9900 -2.6738
-6 -1 -29 -12.1534 -16.7591
-6 -1 -28 -1.7133 1.6001
-6 -1 -27 -5.7950 -6.6317
-6 -1 -26 -5.8333 -1.3187
-6 -1 -25 1.0668 0.8498
-6 -1 -24 5.0077 -2.0129
-6 -1 -23 -5.2692 6.0347
-6 -1 -22 1.4191 3.0380
-6 -1 -21 -1.9054 12.4869
-6 -1 -20 -15.1582 4.2068
-6 -1 -19 4.9190 10.2787
-6 -1 -18 -15.4972 11.8184
-6 -1 -17 8.2479 6.1260
-6 -1 -16 -9.3014 -2.8442
-6 -1 -15 -2.9442 -10.3988
-6 -1 -14 17.0751 -8.6607
-6 -1 -13 -2.8108 6.3811
-6 -1 -12 17.6591 -10.8220
-6 -1 -11 -4.7194 -13.7592
-6 -1 -10 -20.0480 9.8948
-6 -1 -9 18.9115 15.2441
-6 -1 -8 8.5817 -14.0298
-6 -1 -7 -1.8938 -0.3898
-6 -1 -6 5.3569 -6.7270
-6 -1 -5 -10.6181 10.3416
-6 -1 -4 -24.1236 -7.1957
-6 -1 -3 8.1141 9.9926
-6 -1 -2 -43.0769 -14.3089
-6 -1 -1 20.9066 6.3806
-5 -17 -8 -3.9532 -15.7368
-5 -17 -7 -4.1179 -4.1533
-5 -17 -6 0.0297 -5.7081
-5 -17 -5 -5.3929 -1.4200
-5 -17 -4 -0.6867 14.3349
-5 -17 -3 1.2906 2.5598
-5 -17 -2 -1.0465 2.7624
-5 -17 -1 0.8001 -2.0392
-5 -16 -17 5.2231 -0.8635
-5 -16 -16 1.2135 1.9122
-5 -16 -15 5.5029 -1.4971
-5 -16 -14 -7.0966 -6.6470
-5 -16 -13 2.3525 5.4545
-5 -16 -12 -12.9843 -12.1502
-5 -16 -11 10.9874 9.4318
-5 -16 -10 1.2982 -10.6542
-5 -16 -9 12.0807 1.2531
-5 -16 -8 -5.3875 2.1592
-5 -16 -7 -2.4471 -0.9449
-5 -16 -6 -14.1663 -2.9509
-5 -16 -5 -1.7127 -2.7378
-5 -16 -4 -0.1295 -0.3897
-5 -16 -3 0.0747 3.5987
-5 -16 -2 4.9986 -1.2807
-5 -16 -1 -5.5510 2.6489
-5 -15 -21 4.2419 -5.6454
-5 -15 -20 8.1034 7.6805
-5 -15 -19 -1.3511 -1.7286
-5 -15 -18 -11.0990 4.6275
-5 -15 -17 17.2747 0.0377
-5 -15 -16 -6.4704 -0.4534
-5 -15 -15 9.1693 -9.2195
-5 -15 -14 -0.3258 0.0764
-5 -15 -13 0.0910 -0.4530
-5 -15 -12 -1.8911 9.7121
-5 -15 -11 -0.4053 -4.2784
-5 -15 -10 -13.8260 -2.8677
-5 -15 -9 13.0000 -17.3972
-5 -15 -8 -6.5555 -1.7439
-5 -15 -7 1.0052 -7.7765
-5 -15 -6 2.9815 2.2134
-5 -15 -5 -4.8116 -4.4278
-5 -15 -4 -2.6573 -1.8910
-5 -15 -3 -1.1518 -4.4394
-5 -15 -2 1.2355 -3.5055
-5 -15 -1 5.0127 0.6535
-5 -14 -26 1.4661 -6.8112
-5 -14 -25 3.9493 7.2167
-5 -14 -24 4.7375 0.8965
-5 -14 -23 1.0422 5.9815
-5 -14 -22 -6.0252 3.3442
-5 -14 -21 2.5141 -10.7173
-5 -14 -20 -7.3932 0.9827
-5 -14 -19 -4.7902 1.7972
-5 -14 -18 9.0158 -2.5514
-5 -14 -17 -4.4253 10.1594
-5 -14 -16 0.1477 1.2479
-5 -14 -15 -3.7237 -12.8130
-5 -14 -14 -0.7889 4.4178
-5 -14 -13 1.2345 -13.2811
-5 -14 -12 9.9156 2.7336
-5 -14 -11 8.3536 -1.8356
-5 -14 -10 9.4720 -3.3282
-5 -14 -9 2.4638 4.3283
-5 -14 -8 1.4930 3.5822
-5 -14 -7 1.5710 -17.8068
-5 -14 -6 8.5984 6.9089
-5 -14 -5 0.0290 1.7838
-5 -14 -4 -0.2361 -3.8589
-5 -14 -3 -2.2563 1.9995
-5 -14 -2 0.9465 1.9477
-5 -14 -1 -1.9218 2.2338
-5 -13 -29 3.1883 5.0188
-5 -13 -28 -3.8500 -0.2481
-5 -13 -27 5.2586 11.1041
-5 -13 -26 -3.5531 -0.6265
-5 -13 -25 -5.1130 -1.0625
-5 -13 -24 -1.2708 -0.9931
-5 -13 -23 12.9754 -2.3112
-5 -13 -22 3.0636 -5.7743
-5 -13 -21 5.1143 -1.2602
-5 -13 -20 -5.7287 -1.7906
-5 -13 -19 -4.1024 -9.7739
-5 -13 -18 12.4071 -3.1806
-5 -13 -17 3.5936 -0.6068
-5 -13 -16 -2.3412 -7.5449
-5 -13 -15 13.7826 6.6913
-5 -13 -14 -3.3445 0.3129
-5 -13 -13 -0.7456 5.5939
-5 -13 -12 -1.4763 4.9038
-5 -13 -11 -8.6419 1.3857
-5 -13 -10 13.8182 1.8057
-5 -13 -9 -0.7867 0.5947
-5 -13 -8 -10.1331 1.4105
-5 -13 -7 5.8428 -3.7971
-5 -13 -6 2.5342 0.0695
-5 -13 -5 -7.0346 1.7901
-5 -13 -4 7.3335 2.6699
-5 -13 -3 -4.7780 0.4327
-5 -13 -2 -7.4646 -0.7441
-5 -13 -1 -3.4139 -7.0546
-5 -12 -31 1.0641 -7.3582
-5 -12 -30 -10.0154 7.8052
-5 -12 -29 0.1147 5.2484
-5 -12 -28 -0.9694 -5.0437
-5 -12 -27 6.4807 -6.1131
-5 -12 -26 -3.8702 9.7288
-5 -12 -25 4.4489 3.8377
-5 -12 -24 -0.0370 10.5064
-5 -12 -23 5.2822 1.1431
-5 -12 -22 8.2186 -0.9247
-5 -12 -21 7.4042 4.1340
-5 -12 -20 4.2850 10.7595
-5 -12 -19 6.0189 -1.6685
-5 -12 -18 -0.8200 9.3012
-5 -12 -17 -2.6649 2.3163
-5 -12 -16 5.5232 -6.3024
-5 -12 -15 4.4148 0.4387
-5 -12 -14 -4.5193 -3.2378
-5 -12 -13 2.0156 -7.0955
-5 -12 -12 -0.8273 8.4828
-5 -12 -11 4.9228 -9.3318
-5 -12 -10 4.1160 -2.6321
-5 -12 -9 -0.0362 -0.6356
-5 -12 -8 3.1820 -8.8002
-5 -12 -7 -7.3884 9.2080
-5 -12 -6 -5.4869 7.6693
-5 -12 -5 -8.9261 -14.2992
-5 -12 -4 4.3406 -4.8094
-5 -12 -3 4.4837 1.1371
-5 -12 -2 3.1776 -2.2556
-5 -12 -1 -3.5873 2.8701
-5 -11 -34 2.5841 1.8210
-5 -11 -33 -4.5676 -1.3968
-5 -11 -32 -0.3146 -2.5304
-5 -11 -31 -5.3584 1.3050
-5 -11 -30 5.2948 4.6444
-5 -11 -29 -6.4978 2.5318
-5 -11 -28 0.4202 3.4298
-5 -11 -27 -2.4517 -4.1049
-5 -11 -26 -12.8027 4.1584
-5 -11 -25 -3.0874 4.0838
-5 -11 -24 3.0402 9.3180
-5 -11 -23 -10.0074 1.8104
-5 -11 -22 -6.1732 3.9462
-5 -11 -21 -7.1260 0.7026
-5 -11 -20 -1.5851 -5.5029
-5 -11 -19 4.4315 1.9939
-5 -11 -18 -0.1386 4.8804
-5 -11 -17 -4.7494 5.7484
-5 -11 -16 13.1079 2.2713
-5 -11 -15 -0.2054 2.4511
-5 -11 -14 -2.9248 -1.4477
-5 -11 -13 7.3256 4.5935
-5 -11 -12 5.8117 4.1082
-5 -11 -11 9.9254 -0.9235
-5 -11 -10 -1.2206 -2.0827
-5 -11 -9 -12.9272 -4.6086
-5 -11 -8 4.2401 -8.2697
-5 -11 -7 6.6911 -4.7701
-5 -11 -6 -0.4482 -6.5935
-5 -11 -5 1.6316 3.0108
-5 -11 -4 -0.2790 -3.9915
-5 -11 -3 -4.0937 2.3647
-5 -11 -2 8.9411 -8.6487
-5 -11 -1 4.3954 2.1940
-5 -10 -36 0.5298 2.6643
-5 -10 -35 -3.8371 -1.2437
-5 -10 -34 0.9447 2.1688
-5 -10 -33 -3.4207 -4.0423
-5 -10 -32 -6.4169 -4.2049
-5 -10 -31 -4.3814 1.7133
-5 -10 -30 -1.3110 -2.8348
-5 -10 -29 -0.1429 0.4921
-5 -10 -28 -3.4531 -10.8262
-5 -10 -27 -6.5045 1.7198
-5 -10 -26 -1.8745 -3.4922
-5 -10 -25 0.0595 -10.1470
-5 -10 -24 3.3156 -1.9051
-5 -10 -23 3.0794 -7.5103
-5 -10 -22 3.8507 1.7832
-5 -10 -21 1.6142 1.6000
-5 -10 -20 -3.2934 -3.4523
-5 -10 -19 -5.3012 0.2668
-5 -10 -18 -7.5306 4.9045
-5 -10 -17 5.5658 -2.1648
-5 -10 -16 -1.7313 2.4488
-5 -10 -15 2.1522 6.5973
-5 -10 -14 -1.6099 0.8049
-5 -10 -13 7.6485 11.4123
-5 -10 -12 -0.9393 -4.1946
-5 -10 -11 1.2210 -9.4905
-5 -10 -10 3.2967 3.5713
-5 -10 -9 6.9122 -4.5646
-5 -10 -8 3.3715 7.8155
-5 -10 -7 6.3562 -5.1066
-5 -10 -6 -1.1605 -7.3911
-5 -10 -5 1.1681 4.2765
-5 -10 -4 -5.3511 8.5039
-5 -10 -3 -1.3330 5.8813
-5 -10 -2 -0.9328 0.4489
-5 -10 -1 11.1865 -2.9325
-5 -9 -37 -8.0670 -4.4375
-5 -9 -36 7.0492 1.4041
-5 -9 -35 -3.2318 -3.5269
-5 -9 -34 5.0184 -7.8955
-5 -9 -33 2.2433 -2.7323
-5 -9 -32 0.9322 -5.3355
-5 -9 -31 -4.2101 -2.3876
-5 -9 -30 0.3613 -3.5736
-5 -9 -29 7.2808 -4.9226
-5 -9 -28 0.6835 -1.6591
-5 -9 -27 6.3711 5.9621
-5 -9 -26 -2.2746 5.3698
-5 -9 -25 7.8456 2.5517
-5 -9 -24 -1.6239 2.8905
-5 -9 -23 -3.2956 2.4364
-5 -9 -22 8.0641 -1.1150
-5 -9 -21 -0.8600 -7.1112
-5 -9 -20 4.0081 -2.3931
-5 -9 -19 -6.6892 0.0092
-5 -9 -18 0.6821 5.3554
-5 -9 -17 -1.1469 3.7587
-5 -9 -16 -0.7925 5.8088
-5 -9 -15 -10.7368 -0.5166
-5 -9 -14 5.6116 3.6640
-5 -9 -13 8.5631 -6.1261
-5 -9 -12 -2.7379 3.3153
-5 -9 -11 5.6099 -2.2820
-5 -9 -10 -2.6198 8.8792
-5 -9 -9 7.2511 2.4680
-5 -9 -8 9.4791 -5.3350
-5 -9 -7 -13.4124 -9.7855
-5 -9 -6 -0.9866 -3.5304
-5 -9 -5 -9.3210 -13.9260
-5 -9 -4 1.8236 -0.8280
-5 -9 -3 6.3134 0.4639
-5 -9 -2 0.2730 5.3865
-5 -9 -1 -0.9409 2.9168
-5 -8 -39 -4.1730 -2.4797
-5 -8 -38 -0.8547 -1.6811
-5 -8 -37 4.3010 1.1824
-5 -8 -36 6.6539 4.2323
-5 -8 -35 2.8603 8.5228
-5 -8 -34 7.2786 -9.8416
-5 -8 -33 1.6469 -1.0946
-5 -8 -32 3.9124 -0.9924
-5 -8 -31 3.2720 3.1246
-5 -8 -30 -0.8792 1.5433
-5 -8 -29 -4.1664 -1.0362
-5 -8 -28 -3.2064 1.9029
-5 -8 -27 -0.8080 -3.2822
-5 -8 -26 -5.3164 2.5366
-5 -8 -25 0.2446 -2.5210
-5 -8 -24 2.3111 10.5413
-5 -8 -23 3.5709 -1.6437
-5 -8 -22 7.6795 3.4240
-5 -8 -21 -1.8700 -3.0558
-5 -8 -20 -5.3047 -3.0852
-5 -8 -19 -5.0603 4.6072
-5 -8 -18 -0.6549 -6.3957
-5 -8 -17 -0.9067 1.2526
-5 -8 -16 3.7867 -3.4395
-5 -8 -15 4.7312 6.6220
-5 -8 -14 0.6509 -2.5308
-5 -8 -13 -4.7237 9.5732
-5 -8 -12 -1.3761 -1.5950
-5 -8 -11 0.1267 3.7630
-5 -8 -10 12.5928 10.2597
-5 -8 -9 1.3371 -11.9295
-5 -8 -8 13.8280 -2.2843
-5 -8 -7 10.0061 -5.1513
-5 -8 -6 6.4154 1.5946
-5 -8 -5 -0.0239 13.3426
-5 -8 -4 8.3335 -5.4179
-5 -8 -3 -5.6095 -0.2973
-5 -8 -2 1.8186 -0.2150
-5 -8 -1 4.0791 -0.9397
-5 -7 -40 -0.1628 0.9956
-5 -7 -39 -3.5340 -0.0490
-5 -7 -38 -6.9169 2.1412
-5 -7 -37 0.6093 8.9622
-5 -7 -36 -0.8631 2.5864
-5 -7 -35 1.3704 0.7283
-5 -7 -34 2.6091 -1.4837
-5 -7 -33 -1.2531 2.6236
-5 -7 -32 -4.3010 -1.9186
-5 -7 -31 4.2142 0.9655
-5 -7 -30 2.9914 -5.0342
-5 -7 -29 0.8375 0.0529
-5 -7 -28 0.3805 -4.7426
-5 -7 -27 -4.9184 -0.5671
-5 -7 -26 0.9026 1.8844
-5 -7 -25 -7.5213 5.8214
-5 -7 -24 1.8596 10.4162
-5 -7 -23 0.7176 -3.4400
-5 -7 -22 7.2037 -5.0225
-5 -7 -21 -8.8296 1.7293
-5 -7 -20 4.4741 -3.3601
-5 -7 -19 0.1058 7.6961
-5 -7 -18 4.0166 5.8361
-5 -7 -17 -0.9500 0.3147
-5 -7 -16 -4.9083 -1.7713
-5 -7 -15 -0.2594 -6.0396
-5 -7 -14 -2.4090 -4.1603
-5 -7 -13 0.5095 3.4889
-5 -7 -12 -10.0274 5.5442
-5 -7 -11 12.0819 4.6232
-5 -7 -10 1.5297 -0.8251
-5 -7 -9 -4.8304 5.4384
-5 -7 -8 -0.6386 2.1628
-5 -7 -7 -14.1346 16.6669
-5 -7 -6 5.7481 -3.5077
-5 -7 -5 -1.5547 0.6970
-5 -7 -4 -2.4865 0.4019
-5 -7 -3 5.1615 7.6495
-5 -7 -2 -8.6942 -1.1732
-5 -7 -1 -6.1728 11.1823
-5 -6 -41 1.8196 -5.3711
-5 -6 -40 -6.9639 1.8770
-5 -6 -39 -3.9780 -9.6970
-5 -6 -38 1.2494 -2.1174
-5 -6 -37 2.1635 0.6331
-5 -6 -36 0.7372 -0.6966
-5 -6 -35 3.8161 -11.1022
-5 -6 -34 0.1933 2.9217
-5 -6 -33 2.1657 4.1320
-5 -6 -32 1.8138 -3.9675
-5 -6 -31 2.7656 0.2070
-5 -6 -30 4.4144 -1.8763
-5 -6 -29 3.6601 -1.1856
-5 -6 -28 -7.9079 -2.2589
-5 -6 -27 -6.3670 -3.9915
-5 -6 -26 -5.2075 1.3405
-5 -6 -25 2.2087 7.9453
-5 -6 -24 1.5351 -3.1423
-5 -6 -23 -1.3257 0.4506
-5 -6 -22 -0.5438 -2.4256
-5 -6 -21 -9.2151 3.3327
-5 -6 -20 -3.2764 -0.9655
-5 -6 -19 4.1971 4.8036
-5 -6 -18 0.1588 -8.3512
-5 -6 -17 15.5212 2.3730
-5 -6 -16 7.6620 -3.6134
-5 -6 -15 -4.9988 4.2525
-5 -6 -14 0.0714 -2.7866
-5 -6 -13 3.7957 5.0588
-5 -6 -12 7.7629 -1.9944
-5 -6 -11 6.4084 -4.8686
-5 -6 -10 -9.4544 1.5854
-5 -6 -9 -2.4058 -14.5808
-5 -6 -8 -3.8846 -2.0884
-5 -6 -7 5.4404 9.3829
-5 -6 -6 -4.6918 -4.8026
-5 -6 -5 7.4001 -2.6707
-5 -6 -4 -14.0828 -15.9592
-5 -6 -3 -7.7518 1.3752
-5 -6 -2 -6.4288 1.8561
-5 -6 -1 0.8997 -10.6316
-5 -5 -42 4.4245 -5.3456
-5 -5 -41 4.5904 -1.1945
-5 -5 -40 5.1130 -1.0638
-5 -5 -39 -0.8951 2.2947
-5 -5 -38 16.9638 5.3043
-5 -5 -37 2.0526 0.8015
-5 -5 -36 -0.3749 3.8968
-5 -5 -35 4.9203 0.2988
-5 -5 -34 5.5753 6.9615
-5 -5 -33 1.4568 -0.0175
-5 -5 -32 7.5298 2.8843
-5 -5 -31 2.4770 -1.0835
-5 -5 -30 -1.6587 -8.5101
-5 -5 -29 2.8167 -1.8199
-5 -5 -28 -2.4009 -4.1965
-5 -5 -27 -5.4525 1.4249
-5 -5 -26 -1.4255 2.3846
-5 -5 -25 -0.6818 -0.5458
-5 -5 -24 5.4138 -10.0479
-5 -5 -23 -1.2985 -0.2295
-5 -5 -22 -5.8680 0.9420
-5 -5 -21 3.0866 3.1807
-5 -5 -20 6.4560 5.5855
-5 -5 -19 3.3414 14.9314
-5 -5 -18 -4.0809 7.6374
-5 -5 -17 -0.6591 -1.0758
-5 -5 -16 -4.2636 4.2756
-5 -5 -15 3.5305 0.7554
-5 -5 -14 -6.4863 11.5434
-5 -5 -13 4.2977 12.6060
-5 -5 -12 0.5510 -7.1903
-5 -5 -11 14.8233 -5.7674
-5 -5 -10 -9.2826 2.2098
-5 -5 -9 -7.3736 3.9195
-5 -5 -8 11.1363 9.1192
-5 -5 -7 6.2622 -8.7987
-5 -5 -6 5.6574 -5.4890
-5 -5 -5 12.4797 -4.8311
-5 -5 -4 -0.1111 4.7907
-5 -5 -3 3.1050 -11.7726
-5 -5 -2 -12.8442 6.1625
-5 -5 -1 1.6141 -0.3284
-5 -4 -42 -10.6335 5.5386
-5 -4 -41 8.8548 5.7155
-5 -4 -40 -4.7835 6.0001
-5 -4 -39 1.1701 9.4178
-5 -4 -38 -3.2598 0.5748
-5 -4 -37 -2.0312 8.7784
-5 -4 -36 -1.6696 -3.1587
-5 -4 -35 -0.4447 14.3815
-5 -4 -34 7.0938 10.2958
-5 -4 -33 -1.1665 -6.8322
-5 -4 -32 11.0295 3.3146
-5 -4 -31 -2.8146 1.1726
-5 -4 -30 2.3248 -0.6951
-5 -4 -29 -2.3856 -5.3856
-5 -4 -28 -6.0203 -4.1233
-5 -4 -27 11.8961 6.0767
-5 -4 -26 2.0365 -0.7494
-5 -4 -25 -1.4725 -1.7950
-5 -4 -24 -7.1207 -4.9892
-5 -4 -23 2.8459 6.3929
-5 -4 -22 -13.3046 4.7226
-5 -4 -21 0.0733 6.4215
-5 -4 -20 -8.4049 -2.3140
-5 -4 -19 -1.7282 -4.0339
-5 -4 -18 4.1966 -5.9331
-5 -4 -17 -0.8607 -3.1376
-5 -4 -16 -11.2047 -1.5715
-5 -4 -15 -9.1727 -3.0083
-5 -4 -14 9.6914 5.7441
-5 -4 -13 4.8081 0.2458
-5 -4 -12 -4.2701 0.2325
-5 -4 -11 -3.3421 -4.8446
-5 -4 -10 -10.5641 -0.4160
-5 -4 -9 8.3596 -0.7649
-5 -4 -8 3.7157 27.8765
-5 -4 -7 -3.7860 8.6461
-5 -4 -6 -4.5480 -12.8916
-5 -4 -5 -2.0029 6.8701
-5 -4 -4 -5.6866 10.0032
-5 -4 -3 5.8609 -8.6575
-5 -4 -2 9.2155 -3.3675
-5 -4 -1 -8.5060 0.0529
-5 -3 -43 1.1381 10.7397
-5 -3 -42 -8.2957 -1.8072
-5 -3 -41 -4.8622 -2.6828
-5 -3 -40 -1.5035 12.8167
-5 -3 -39 2.5164 -10.1082
-5 -3 -38 -6.3863 7.4628
-5 -3 -37 -6.6816 2.8779
-5 -3 -36 -6.2472 8.8528
-5 -3 -35 6.6342 2.0706
-5 -3 -34 -5.7672 3.1360
-5 -3 -33 3.2843 -0.1254
-5 -3 -32 0.8585 -5.8426
-5 -3 -31 -7.5978 1.9462
-5 -3 -30 9.0985 -8.4466
-5 -3 -29 -9.1090 12.2514
-5 -3 -28 4.0766 -5.5191
-5 -3 -27 2.0155 -3.1423
-5 -3 -26 -0.3661 -1.4189
-5 -3 -25 4.4997 -7.8771
-5 -3 -24 -16.4631 2.9356
-5 -3 -23 -4.0537 4.1130
-5 -3 -22 3.7156 2.4854
-5 -3 -21 9.2284 -6.0972
-5 -3 -20 9.4318 15.4545
-5 -3 -19 4.0793 -6.3562
-5 -3 -18 2.6642 -3.4485
-5 -3 -17 6.6754 -1.2693
-5 -3 -16 -7.9828 1.4636
-5 -3 -15 -7.8357 8.3975
-5 -3 -14 2.9664 -1.2077
-5 -3 -13 6.8316 -7.7681
-5 -3 -12 12.4563 -15.0904
-5 -3 -11 -17.4764 5.7114
-5 -3 -10 -18.4600 8.4917
-5 -3 -9 7.2031 -15.0457
-5 -3 -8 -6.9156 -4.4537
-5 -3 -7 -16.1826 -16.0515
-5 -3 -6 10.0372 8.3366
-5 -3 -5 3.8200 3.6749
-5 -3 -4 -7.8126 3.4737
-5 -3 -3 2.4517 -11.2066
-5 -3 -2 -17.8616 14.9343
-5 -3 -1 -13.9033 -13.8749
-5 -2 -43 0.6974 5.7218
-5 -2 -42 -10.2500 -2.1872
-5 -2 -41 6.2247 -0.0898
-5 -2 -40 -12.4443 7.6250
-5 -2 -39 -5.4228 -4.5091
-5 -2 -38 1.7464 -1.0049
-5 -2 -37 -9.5464 0.3855
-5 -2 -36 6.2784 7.6857
-5 -2 -35 -0.5588 -0.1449
-5 -2 -34 7.0074 -6.7540
-5 -2 -33 -0.8131 -7.7640
-5 -2 -32 5.0529 3.4498
-5 -2 -31 1.9620 -6.7736
-5 -2 -30 3.4531 -0.2762
-5 -2 -29 7.4775 8.6060
-5 -2 -28 -2.3659 -6.0763
-5 -2 -27 11.2382 6.3630
-5 -2 -26 -16.7210 -19.9275
-5 -2 -25 -5.6829 -0.7054
-5 -2 -24 -4.6254 9.6897
-5 -2 -23 -4.0766 5.5197
-5 -2 -22 -7.4283 19.3435
-5 -2 -21 1.7048 4.3990
-5 -2 -20 1.1849 1.3841
-5 -2 -19 -4.3290 4.0578
-5 -2 -18 6.8664 -17.1356
-5 -2 -17 -12.1034 -1.7428
-5 -2 -16 2.5125 0.6400
-5 -2 -15 20.1151 1.6912
-5 -2 -14 8.4502 13.4958
-5 -2 -13 -1.4118 -6.0358
-5 -2 -12 -2.7069 -15.6501
-5 -2 -11 13.6349 -2.4308
-5 -2 -10 5.1133 -12.1760
-5 -2 -9 11.8191 15.6286
-5 -2 -8 -5.6871 -0.0284
-5 -2 -7 -14.0218 -18.5158
-5 -2 -6 13.3060 26.3178
-5 -2 -5 -7.9492 4.9454
-5 -2 -4 12.9643 -41.0882
-5 -2 -3 4.2437 -21.9870
-5 -2 -2 -0.0304 10.3059
-5 -2 -1 -31.7115 3.3994
-5 -1 -44 2.5733 -3.7041
-5 -1 -43 -8.4048 -7.0907
-5 -1 -42 -10.5294 1.2420
-5 -1 -41 6.0752 -4.0754
-5 -1 -40 -3.0688 4.0609
-5 -1 -39 -7.2234 -9.1865
-5 -1 -38 -1.2030 11.5326
-5 -1 -37 -2.6241 -0.6290
-5 -1 -36 8.0866 -0.4058
-5 -1 -35 6.8285 4.6686
-5 -1 -34 8.4604 0.8698
-5 -1 -33 1.0242 10.6786
-5 -1 -32 -2.8057 1.4034
-5 -1 -31 -3.2897 8.0531
-5 -1 -30 2.6100 0.2689
-5 -1 -29 0.4381 0.6424
-5 -1 -28 10.5191 -10.1340
-5 -1 -27 3.2262 -8.6286
-5 -1 -26 -12.8445 -1.4085
-5 -1 -25 -4.9309 -12.7125
-5 -1 -24 -24.4218 7.7277
-5 -1 -23 0.8129 -5.7720
-5 -1 -22 0.4698 0.2645
-5 -1 -21 0.7342 -3.2831
-5 -1 -20 12.4753 3.3043
-5 -1 -19 5.7083 -7.0618
-5 -1 -18 1.0840 8.2053
-5 -1 -17 0.1783 18.2597
-5 -1 -16 -24.3414 0.3406
-5 -1 -15 15.4833 8.7451
-5 -1 -14 13.5744 0.2590
-5 -1 -13 -5.4515 -3.1935
-5 -1 -12 -3.2305 11.7666
-5 -1 -11 -10.8051 8.4043
-5 -1 -10 1.5769 -13.7464
-5 -1 -9 -6.8372 -17.1985
-5 -1 -8 -31.1266 13.9222
-5 -1 -7 27.9107 0.6092
-5 -1 -6 24.9424 16.6923
-5 -1 -5 2.3752 0.9411
-5 -1 -4 16.2996 -16.4154
-5 -1 -3 -14.3372 2.4636
-5 -1 -2 -18.6527 -23.0983
-5 -1 -1 5.3297 -14.1249
-4 -17 -12 2.8417 0.5499
-4 -17 -11 4.9427 -3.2803
-4 -17 -10 -2.5253 7.3769
-4 -17 -9 -7.2007 -0.4169
-4 -17 -8 4.6375 -6.4681
-4 -17 -7 -4.1431 1.9482
-4 -17 -6 1.8614 0.6918
-4 -17 -5 6.7911 5.4217
-4 -17 -4 2.6697 4.8003
-4 -17 -3 -6.4742 5.6428
-4 -17 -2 8.0296 7.9331
-4 -17 -1 -6.6557 6.7237
-4 -16 -18 -0.3526 -5.1515
-4 -16 -17 9.8320 -7.4063
-4 -16 -16 6.7141 1.6656
-4 -16 -15 -3.8411 -2.3500
-4 -16 -14 -1.3728 5.1352
-4 -16 -13 -0.5222 -4.9122
-4 -16 -12 -6.3927 -5.1244
-4 -16 -11 2.7365 -9.9954
-4 -16 -10 -3.0292 -4.2499
-4 -16 -9 -1.7494 -6.1290
-4 -16 -8 5.0474 4.6206
-4 -16 -7 -10.4552 2.1155
-4 -16 -6 -9.7529 -17.7308
-4 -16 -5 0.3756 -0.7435
-4 -16 -4 -8.4493 -4.7078
-4 -16 -3 -4.0981 -0.0024
-4 -16 -2 -7.4051 6.7251
-4 -16 -1 0.0771 14.9995
-4 -15 -23 -0.5534 -2.3376
-4 -15 -22 2.8947 -4.3612
-4 -15 -21 -1.6759 -5.2447
-4 -15 -20 12.3589 -0.1436
-4 -15 -19 -7.4846 6.1357
-4 -15 -18 0.0243 3.3357
-4 -15 -17 0.5488 -9.5472
-4 -15 -16 -2.3854 4.2309
-4 -15 -15 -1.4021 -4.4490
-4 -15 -14 12.4547 -6.6933
-4 -15 -13 5.7856 0.3396
-4 -15 -12 8.6604 -2.7230
-4 -15 -11 -2.8641 5.8712
-4 -15 -10 0.8433 -3.5748
-4 -15 -9 7.9655 -6.8210
-4 -15 -8 13.7359 2.5977
-4 -15 -7 5.4074 -1.0388
-4 -15 -6 7.5114 -9.4019
-4 -15 -5 -0.8651 0.6388
-4 -15 -4 -15.6561 -3.9456
-4 -15 -3 -0.3742 -10.1897
-4 -15 -2 -7.5034 1.1298
-4 -15 -1 -2.2184 -7.0716
-4 -14 -27 -13.6191 8.0031
-4 -14 -26 6.7124 -0.6236
-4 -14 -25 -2.7335 4.2363
-4 -14 -24 10.4691 1.8047
-4 -14 -23 6.1286 9.1744
-4 -14 -22 4.5555 -4.0677
-4 -14 -21 -1.8502 0.0236
-4 -14 -20 5.3786 -3.1404
-4 -14 -19 -1.6151 -0.9390
-4 -14 -18 4.0817 -9.5738
-4 -14 -17 4.4205 9.2602
-4 -14 -16 3.3267 0.3425
-4 -14 -15 -3.9476 1.5563
-4 -14 -14 4.5730 -1.0201
-4 -14 -13 -1.3587 2.6877
-4 -14 -12 -6.1942 -5.0337
-4 -14 -11 -2.1072 5.1827
-4 -14 -10 -5.0555 7.5477
-4 -14 -9 5.3704 8.5495
-4 -14 -8 -9.9156 1.6158
-4 -14 -7 4.4443 -9.2185
-4 -14 -6 10.7254 -4.5265
-4 -14 -5 -1.3796 1.2942
-4 -14 -4 -4.0202 -3.9464
-4 -14 -3 7.7114 -1.0035
-4 -14 -2 8.1019 -1.0339
-4 -14 -1 2.0771 -2.3715
-4 -13 -30 -12.8805 1.2547
-4 -13 -29 1.5563 1.5048
-4 -13 -28 1.1560 -3.3918
-4 -13 -27 -4.8400 4.6671
-4 -13 -26 -6.1879 3.0231
-4 -13 -25 1.3735 17.6595
-4 -13 -24 -2.3716 -5.3780
-4 -13 -23 3.6669 6.5262
-4 -13 -22 3.9821 -0.7617
-4 -13 -21 4.1523 4.6692
-4 -13 -20 -2.4569 1.9465
-4 -13 -19 2.4035 -2.5544
-4 -13 -18 2.9428 -2.5530
-4 -13 -17 5.9484 7.0164
-4 -13 -16 -2.9817 -1.1318
-4 -13 -15 11.4269 -8.1562
-4 -13 -14 1.7422 -6.7407
-4 -13 -13 2.6400 -3.6664
-4 -13 -12 -4.2791 -7.2171
-4 -13 -11 1.3030 -13.2518
-4 -13 -10 -0.0964 3.4807
-4 -13 -9 5.7515 7.4842
-4 -13 -8 5.8462 -1.8540
-4 -13 -7 -3.6401 -13.5265
-4 -13 -6 -0.8892 5.0300
-4 -13 -5 -4.1340 -0.5686
-4 -13 -4 1.7967 3.0806
-4 -13 -3 2.9543 9.8225
-4 -13 -2 -6.2780 0.8949
-4 -13 -1 2.8396 -2.2617
-4 -12 -32 -8.7583 -5.9923
-4 -12 -31 4.1219 2.1888
-4 -12 -30 0.6057 4.5294
-4 -12 -29 -1.4326 -9.8808
-4 -12 -28 -9.5411 4.3453
-4 -12 -27 -4.3143 -3.3576
-4 -12 -26 -0.7736 0.1708
-4 -12 -25 2.1397 8.7202
-4 -12 -24 -7.3456 -2.0274
-4 -12 -23 3.8868 -3.1085
-4 -12 -22 -0.2345 4.1014
-4 -12 -21 6.8266 1.7702
-4 -12 -20 -2.5486 2.3627
-4 -12 -19 -1.0342 5.5447
-4 -12 -18 5.2822 7.8218
-4 -12 -17 1.2205 1.8834
-4 -12 -16 9.0555 6.7065
-4 -12 -15 9.4475 2.7712
-4 -12 -14 12.6376 8.8003
-4 -12 -13 0.5998 -8.1530
-4 -12 -12 -1.0626 1.6271
-4 -12 -11 -1.1453 6.8989
-4 -12 -10 9.1489 3.5676
-4 -12 -9 0.6377 -4.5878
-4 -12 -8 15.2237 -4.1228
-4 -12 -7 3.2971 -4.2887
-4 -12 -6 -14.7257 -4.9615
-4 -12 -5 -4.6782 -0.0413
-4 -12 -4 10.5964 -6.5669
-4 -12 -3 4.2302 -5.0238
-4 -12 -2 -2.2544 -5.1236
-4 -12 -1 -3.0534 -16.8525
-4 -11 -35 10.9416 -10.3748
-4 -11 -34 -1.3418 -4.2984
-4 -11 -33 -1.9392 1.4579
-4 -11 -32 -0.4931 -2.1422
-4 -11 -31 1.4448 0.1459
-4 -11 -30 0.9689 -2.2975
-4 -11 -29 -0.6991 -6.4983
-4 -11 -28 -4.2610 2.9908
-4 -11 -27 -5.5909 0.5674
-4 -11 -26 9.5146 1.6207
-4 -11 -25 -0.7343 2.0493
-4 -11 -24 -2.5889 3.0747
-4 -11 -23 4.5506 2.3906
-4 -11 -22 -7.3965 6.2379
-4 -11 -21 -4.8792 -3.7580
-4 -11 -20 0.9827 -3.6500
-4 -11 -19 -3.7806 8.3060
-4 -11 -18 -6.3283 9.8384
-4 -11 -17 -5.2536 6.8701
-4 -11 -16 0.5089 0.1208
-4 -11 -15 0.3433 9.0522
-4 -11 -14 4.8383 -3.4767
-4 -11 -13 -5.0854 2.6143
-4 -11 -12 3.1544 -0.7120
-4 -11 -11 -4.7155 18.7396
-4 -11 -10 5.7185 9.0186
-4 -11 -9 13.5040 -6.0395
-4 -11 -8 -0.1047 -13.7427
-4 -11 -7 3.1653 12.0392
-4 -11 -6 6.5564 3.5156
-4 -11 -5 -0.0139 6.0768
-4 -11 -4 2.0087 3.6095
-4 -11 -3 7.3988 -13.6468
-4 -11 -2 11.1409 -3.8611
-4 -11 -1 8.3205 0.3474
-4 -10 -37 7.1362 4.1778
-4 -10 -36 2.8862 -1.8949
-4 -10 -35 4.5030 -2.9384
-4 -10 -34 -1.1090 5.4358
-4 -10 -33 -0.4170 -2.8056
-4 -10 -32 2.2719 4.2797
-4 -10 -31 4.9519 -4.1872
-4 -10 -30 -3.4813 -5.0367
-4 -10 -29 -2.1907 1.1290
-4 -10 -28 -3.5454 3.7398
-4 -10 -27 -6.1398 3.2620
-4 -10 -26 0.5142 2.1333
-4 -10 -25 -8.0074 0.3008
-4 -10 -24 0.5080 -6.0774
-4 -10 -23 6.2490 6.2057
-4 -10 -22 1.3246 -1.4871
-4 -10 -21 -8.3702 -6.5168
-4 -10 -20 -0.8138 1.1343
-4 -10 -19 -1.8300 -2.7930
-4 -10 -18 -6.4303 -4.1676
-4 -10 -17 4.5655 2.7571
-4 -10 -16 -2.5756 6.6529
-4 -10 -15 -1.3834 -0.5016
-4 -10 -14 -11.0150 -4.4942
-4 -10 -13 -4.8120 0.9628
-4 -10 -12 -5.5505 3.3980
-4 -10 -11 8.9907 8.8219
-4 -10 -10 1.8916 -2.0300
-4 -10 -9 -0.1784 8.7652
-4 -10 -8 -13.7247 1.5081
-4 -10 -7 -10.6222 -11.9824
-4 -10 -6 3.9434 0.2389
-4 -10 -5 18.5247 -2.0715
-4 -10 -4 -2.7354 0.4022
-4 -10 -3 -1.4319 11.3439
-4 -10 -2 0.1243 4.9710
-4 -10 -1 -3.3036 4.1366
-4 -9 -38 -1.2625 0.4123
-4 -9 -37 -0.6237 4.0078
-4 -9 -36 -2.6160 2.8556
-4 -9 -35 -2.5998 1.5121
-4 -9 -34 -4.2567 1.6393
-4 -9 -33 1.8059 1.5307
-4 -9 -32 8.0987 2.6522
-4 -9 -31 -3.7141 -5.2127
-4 -9 -30 -3.3978 -4.8388
-4 -9 -29 -5.4316 -8.0184
-4 -9 -28 -1.8928 -0.2171
-4 -9 -27 1.1509 -1.7866
-4 -9 -26 -5.5435 -0.3624
-4 -9 -25 -2.2970 6.2740
-4 -9 -24 2.3859 -1.8696
-4 -9 -23 2.9808 6.0651
-4 -9 -22 -5.2280 -5.1779
-4 -9 -21 8.7971 0.4754
-4 -9 -20 -3.9412 3.9760
-4 -9 -19 -0.6661 6.0794
-4 -9 -18 0.5234 -8.8872
-4 -9 -17 -1.2360 -3.6612
-4 -9 -16 2.0429 0.1485
-4 -9 -15 -0.0269 -9.3273
-4 -9 -14 3.9924 3.7180
-4 -9 -13 -4.7606 3.5580
-4 -9 -12 -5.0482 8.6044
-4 -9 -11 -0.3084 -11.3856
-4 -9 -10 -0.9392 -15.1224
-4 -9 -9 10.7656 -5.1206
-4 -9 -8 4.8647 7.4354
-4 -9 -7 15.7839 7.0582
-4 -9 -6 -0.8174 2.7866
-4 -9 -5 -11.4779 -1.8410
-4 -9 -4 -2.6214 -2.2670
-4 -9 -3 -0.9072 1.6080
-4 -9 -2 -4.2872 8.9804
-4 -9 -1 3.4903 -0.0359
-4 -8 -40 1.6052 -0.5119
-4 -8 -39 -5.5068 2.2451
-4 -8 -38 -6.4097 -8.9294
-4 -8 -37 -0.1002 -7.1771
-4 -8 -36 -2.7150 -2.1972
-4 -8 -35 -6.3373 3.1863
-4 -8 -34 -0.0437 2.7146
-4 -8 -33 4.6916 -5.1597
-4 -8 -32 4.8743 -2.5759
-4 -8 -31 3.9493 -4.8302
-4 -8 -30 0.5035 -6.1382
-4 -8 -29 -4.0501 -3.1943
-4 -8 -28 3.7637 -3.4348
-4 -8 -27 -5.7487 -2.8447
-4 -8 -26 -3.9115 1.8590
-4 -8 -25 -0.4386 -0.8710
-4 -8 -24 -3.9665 1.5115
-4 -8 -23 -1.6091 -4.4340
-4 -8 -22 -10.2752 -0.8743
-4 -8 -21 5.1799 0.7857
-4 -8 -20 -2.7569 5.7149
-4 -8 -19 3.9990 -8.4246
-4 -8 -18 1.7454 7.7742
-4 -8 -17 3.0323 -2.5516
-4 -8 -16 -9.4782 1.9798
-4 -8 -15 0.8874 -0.6979
-4 -8 -14 2.0390 -4.4407
-4 -8 -13 3.9943 -0.4080
-4 -8 -12 16.8117 -5.4702
-4 -8 -11 0.2532 8.5593
-4 -8 -10 4.0056 16.4867
-4 -8 -9 -9.9259 0.8291
-4 -8 -8 -1.9001 4.0236
-4 -8 -7 8.2579 -14.6564
-4 -8 -6 -0.7396 1.6402
-4 -8 -5 -6.4684 -12.0143
-4 -8 -4 1.0462 3.9279
-4 -8 -3 4.1764 2.6356
-4 -8 -2 1.2206 -1.1674
-4 -8 -1 -1.4231 -8.0694
-4 -7 -41 8.7288 -5.5874
-4 -7 -40 5.0047 -3.8604
-4 -7 -39 6.5269 -0.9682
-4 -7 -38 1.1073 -9.2807
-4 -7 -37 3.7010 -3.4142
-4 -7 -36 -4.4667 2.4541
-4 -7 -35 6.3102 1.6859
-4 -7 -34 5.0595 -0.9413
-4 -7 -33 9.3866 4.2929
-4 -7 -32 5.0255 -7.6010
-4 -7 -31 0.1432 -4.4756
-4 -7 -30 6.6070 0.7452
-4 -7 -29 1.6567 -3.6554
-4 -7 -28 -2.4222 -2.6150
-4 -7 -27 -1.7729 -2.7338
-4 -7 -26 7.6266 -7.8199
-4 -7 -25 4.0756 -0.9920
-4 -7 -24 -0.1927 -2.5355
-4 -7 -23 -1.4090 -6.7912
-4 -7 -22 0.7342 5.8865
-4 -7 -21 0.2179 -0.4146
-4 -7 -20 4.7499 0.7111
-4 -7 -19 2.7253 -9.0798
-4 -7 -18 2.4452 2.4575
-4 -7 -17 -1.5659 1.8504
-4 -7 -16 11.7048 -0.1106
-4 -7 -15 -2.4662 4.1010
-4 -7 -14 6.8516 14.9614
-4 -7 -13 -7.6779 -0.6491
-4 -7 -12 -6.7261 2.0908
-4 -7 -11 -0.1287 0.7170
-4 -7 -10 3.9501 -3.5983
-4 -7 -9 9.9480 14.5675
-4 -7 -8 15.1436 -11.1514
-4 -7 -7 -13.0142 2.6251
-4 -7 -6 8.1833 7.3109
-4 -7 -5 -8.6583 4.9519
-4 -7 -4 17.2527 3.2718
-4 -7 -3 -6.2831 0.6554
-4 -7 -2 10.1587 -9.4657
-4 -7 -1 -0.0519 0.5869
-4 -6 -42 4.9586 5.0948
-4 -6 -41 1.9374 5.6970
-4 -6 -40 9.0937 4.8983
-4 -6 -39 0.5338 -5.5176
-4 -6 -38 -1.3143 2.7381
-4 -6 -37 3.6730 6.5825
-4 -6 -36 -4.6993 9.0292
-4 -6 -35 7.0069 2.7195
-4 -6 -34 11.8915 4.3446
-4 -6 -33 5.5197 -0.7116
-4 -6 -32 -2.5443 3.9041
-4 -6 -31 7.7047 -3.3595
-4 -6 -30 1.6996 -1.6448
-4 -6 -29 4.9202 5.0134
-4 -6 -28 2.4420 3.9092
-4 -6 -27 -0.1373 1.5382
-4 -6 -26 7.4197 -0.2667
-4 -6 -25 -2.4953 1.5176
-4 -6 -24 -3.5758 -1.9249
-4 -6 -23 1.2238 5.7489
-4 -6 -22 6.1905 13.1708
-4 -6 -21 -1.8198 -0.6901
-4 -6 -20 4.5619 8.2538
-4 -6 -19 -3.6453 6.9898
-4 -6 -18 -3.8771 2.1428
-4 -6 -17 -3.3241 2.6382
-4 -6 -16 -3.1205 6.3314
-4 -6 -15 0.3257 -1.9269
-4 -6 -14 -8.3451 -7.3937
-4 -6 -13 1.2454 10.8120
-4 -6 -12 3.0858 1.5934
-4 -6 -11 -8.3484 17.5761
-4 -6 -10 3.7394 -2.8787
-4 -6 -9 -4.3134 -7.2334
-4 -6 -8 -8.5417 -4.2701
-4 -6 -7 6.3012 8.5262
-4 -6 -6 -20.6310 0.0868
-4 -6 -5 6.0216 22.5639
-4 -6 -4 13.8725 -9.4868
-4 -6 -3 -2.3417 3.9179
-4 -6 -2 -13.1815 -25.3108
-4 -6 -1 -4.1017 12.2464
-4 -5 -43 -0.2506 0.0660
-4 -5 -42 1.0249 6.6607
-4 -5 -41 -1.2872 1.9902
-4 -5 -40 1.0836 -0.8867
-4 -5 -39 -6.6156 -1.0709
-4 -5 -38 -2.3630 -0.3651
-4 -5 -37 -5.7101 12.5593
-4 -5 -36 4.4634 9.6322
-4 -5 -35 4.4920 -1.1567
-4 -5 -34 1.9429 7.3764
-4 -5 -33 3.0291 2.1095
-4 -5 -32 -1.9538 2.1801
-4 -5 -31 0.1946 3.8337
-4 -5 -30 -3.3105 0.2336
-4 -5 -29 0.7207 -1.1011
-4 -5 -28 -0.0138 2.8817
-4 -5 -27 3.5960 -2.2205
-4 -5 -26 -3.2362 -0.4758
-4 -5 -25 -13.1498 -0.6327
-4 -5 -24 -6.9073 -2.5810
-4 -5 -23 -2.0329 11.7472
-4 -5 -22 -8.4911 -3.2214
-4 -5 -21 -7.2261 -5.8260
-4 -5 -20 7.4603 -5.3590
-4 -5 -19 -14.2512 5.5008
-4 -5 -18 5.9709 -2.2072
-4 -5 -17 -0.9214 -7.6999
-4 -5 -16 -6.2369 2.6312
-4 -5 -15 -4.2721 -0.2914
-4 -5 -14 -3.2425 8.0181
-4 -5 -13 -10.7425 -6.1854
-4 -5 -12 -1.0264 2.5375
-4 -5 -11 17.8778 -3.6296
-4 -5 -10 -2.3492 3.2478
-4 -5 -9 1.9640 -3.2693
-4 -5 -8 -22.8566 -13.7706
-4 -5 -7 -11.0753 16.1140
-4 -5 -6 5.7121 6.4283
-4 -5 -5 18.3444 -19.6175
-4 -5 -4 4.5385 1.1257
-4 -5 -3 11.7694 -14.2382
-4 -5 -2 -14.7122 -9.6401
-4 -5 -1 -8.6284 7.1629
-4 -4 -43 -5.8750 1.8280
-4 -4 -42 6.4700 4.5391
-4 -4 -41 -2.7432 -7.5662
-4 -4 -40 0.5336 -1.3150
-4 -4 -39 -7.2694 3.8049
-4 -4 -38 -3.8282 3.4559
-4 -4 -37 -2.5759 10.2210
-4 -4 -36 0.3984 0.7076
-4 -4 -35 4.4367 7.0172
-4 -4 -34 -5.4697 -2.0636
-4 -4 -33 -4.9669 -1.2068
-4 -4 -32 8.6775 1.8434
-4 -4 -31 1.2613 -5.1895
-4 -4 -30 -5.5889 10.2504
-4 -4 -29 3.0963 -7.9765
-4 -4 -28 -0.5304 0.4520
-4 -4 -27 6.4930 -16.7613
-4 -4 -26 -6.6522 2.1037
-4 -4 -25 -8.1707 -4.4934
-4 -4 -24 6.1270 -4.6077
-4 -4 -23 4.1416 3.2329
-4 -4 -22 -0.5858 -1.3567
-4 -4 -21 7.3785 0.0491
-4 -4 -20 -2.2403 5.2425
-4 -4 -19 5.3665 -0.3619
-4 -4 -18 0.5000 -16.2861
-4 -4 -17 -3.4812 11.8914
-4 -4 -16 -6.6529 -15.4036
-4 -4 -15 -11.9444 -8.5580
-4 -4 -14 9.9982 6.8755
-4 -4 -13 -7.1029 1.8053
-4 -4 -12 -0.2928 5.7639
-4 -4 -11 -7.7075 -10.1155
-4 -4 -10 -0.5045 -17.5071
-4 -4 -9 -2.9325 -17.2384
-4 -4 -8 6.1398 18.0359
-4 -4 -7 -4.3503 7.8867
-4 -4 -6 9.2789 19.1763
-4 -4 -5 39.5957 3.7202
-4 -4 -4 -5.4724 -15.5229
-4 -4 -3 -29.2607 -10.4105
-4 -4 -2 3.8308 -2.1933
-4 -4 -1 -4.4050 10.0457
-4 -3 -44 5.6457 -5.4026
-4 -3 -43 -4.2126 10.1412
-4 -3 -42 4.8836 -4.3594
-4 -3 -41 -4.3583 1.4985
-4 -3 -40 0.8731 -5.7314
-4 -3 -39 -12.6807 8.2465
-4 -3 -38 -0.6454 5.4072
-4 -3 -37 -2.3405 5.2586
-4 -3 -36 -1.2648 -3.9886
-4 -3 -35 4.0650 2.5185
-4 -3 -34 -2.0206 3.3387
-4 -3 -33 7.1638 -1.8872
-4 -3 -32 -4.3695 0.5654
-4 -3 -31 2.5722 0.6566
-4 -3 -30 9.8516 -1.5995
-4 -3 -29 -2.4684 1.5156
-4 -3 -28 12.2472 0.0708
-4 -3 -27 -12.2225 -12.8852
-4 -3 -26 11.6693 5.1837
-4 -3 -25 -14.1488 -0.9447
-4 -3 -24 8.0272 11.4506
-4 -3 -23 -10.9422 4.8145
-4 -3 -22 -9.1518 -4.0997
-4 -3 -21 7.3788 11.3725
-4 -3 -20 3.2824 6.9292
-4 -3 -19 1.2555 -10.4505
-4 -3 -18 12.2653 -10.5613
-4 -3 -17 7.1919 -7.5528
-4 -3 -16 -5.7213 4.6754
-4 -3 -15 13.9324 -0.5641
-4 -3 -14 -9.5975 -17.1131
-4 -3 -13 6.4957 -1.5177
-4 -3 -12 32.9422 -6.5142
-4 -3 -11 -2.9989 9.2970
-4 -3 -10 4.6587 -12.4173
-4 -3 -9 -27.3430 3.7837
-4 -3 -8 -6.2573 30.7104
-4 -3 -7 -1.2291 17.4345
-4 -3 -6 21.3988 -15.9147
-4 -3 -5 -9.4682 -2.4858
-4 -3 -4 0.0354 -6.6088
-4 -3 -3 -7.1130 -17.7280
-4 -3 -2 -29.7209 8.4143
-4 -3 -1 -7.8218 9.1847
-4 -2 -44 2.5380 9.0959
-4 -2 -43 -1.1268 2.7088
-4 -2 -42 -8.3048 -6.3544
-4 -2 -41 0.1991 6.2108
-4 -2 -40 -11.1326 -7.6793
-4 -2 -39 -7.2328 4.4795
-4 -2 -38 -4.2527 -3.1082
-4 -2 -37 8.4768 10.6193
-4 -2 -36 0.4722 0.3728
-4 -2 -35 -0.6211 6.0379
-4 -2 -34 -1.1419 0.6468
-4 -2 -33 4.7056 0.6214
-4 -2 -32 -1.5700 4.3691
-4 -2 -31 -3.2197 -4.0293
-4 -2 -30 3.3994 5.6463
-4 -2 -29 9.8398 -3.1276
-4 -2 -28 -0.6052 -4.7663
-4 -2 -27 -6.0116 4.5841
-4 -2 -26 -4.1173 -10.4550
-4 -2 -25 -8.7138 0.9654
-4 -2 -24 0.7274 -19.4910
-4 -2 -23 -14.7638 15.7805
-4 -2 -22 -2.0233 -4.8107
-4 -2 -21 7.9468 11.5446
-4 -2 -20 3.4673 12.5401
-4 -2 -19 9.6436 -2.4032
-4 -2 -18 -0.1024 6.3437
-4 -2 -17 -3.4951 7.3637
-4 -2 -16 8.6312 -12.7630
-4 -2 -15 5.6960 12.7918
-4 -2 -14 2.2763 24.5198
-4 -2 -13 -1.1673 -2.1062
-4 -2 -12 -8.9971 -0.5766
-4 -2 -11 2.1783 -12.4310
-4 -2 -10 -12.8074 -21.7316
-4 -2 -9 -10.7363 32.6209
-4 -2 -8 -16.4888 -12.9827
-4 -2 -7 20.5936 16.6542
-4 -2 -6 26.9087 -13.7664
-4 -2 -5 -17.7486 -6.0941
-4 -2 -4 -18.3015 -28.4532
-4 -2 -3 27.1938 2.0346
-4 -2 -2 13.5700 -11.0471
-4 -2 -1 -7.6571 -5.7878
-4 -1 -44 2.4499 -1.8715
-4 -1 -43 -9.0645 0.1968
-4 -1 -42 5.7754 -14.0437
-4 -1 -41 -3.7115 -6.8415
-4 -1 -40 -9.0593 5.2438
-4 -1 -39 -1.1058 6.2431
-4 -1 -38 -10.1238 6.2517
-4 -1 -37 -0.6005 4.0942
-4 -1 -36 -4.6130 1.9408
-4 -1 -35 6.5693 -4.0247
-4 -1 -34 -1.0975 -0.2874
-4 -1 -33 4.7688 -0.1106
-4 -1 -32 -2.2451 0.3452
-4 -1 -31 3.8391 1.8653
-4 -1 -30 3.2006 2.3867
-4 -1 -29 -1.6466 -4.1125
-4 -1 -28 6.3500 -2.8220
-4 -1 -27 3.4208 -10.5948
-4 -1 -26 2.5733 -0.4388
-4 -1 -25 -3.4376 -7.0139
-4 -1 -24 -6.8815 -4.2567
-4 -1 -23 -9.5434 2.4149
-4 -1 -22 -14.3859 5.7551
-4 -1 -21 8.7340 11.0419
-4 -1 -20 -9.8083 -3.2201
-4 -1 -19 6.5961 -12.3001
-4 -1 -18 10.6931 8.3221
-4 -1 -17 -14.5536 4.3451
-4 -1 -16 -7.8105 -9.3563
-4 -1 -15 8.1022 -7.1942
-4 -1 -14 -9.5883 -5.2587
-4 -1 -13 24.9144 10.1921
-4 -1 -12 8.1264 -8.8574
-4 -1 -11 -23.7896 -23.1045
-4 -1 -10 -7.5035 9.7195
-4 -1 -9 -5.0159 18.0343
-4 -1 -8 -5.8989 -1.9344
-4 -1 -7 27.4436 -17.0152
-4 -1 -6 -21.4004 18.3467
-4 -1 -5 22.3580 9.5858
-4 -1 -4 -2.8800 6.6386
-4 -1 -3 3.2852 9.8729
-4 -1 -2 -17.0398 -9.7890
-4 -1 -1 18.9721 -13.2379
-3 -17 -13 -1.5816 3.7037
-3 -17 -12 -7.3859 -9.1444
-3 -17 -11 0.6648 10.8849
-3 -17 -10 -1.9460 3.9181
-3 -17 -9 -3.6712 -7.5130
-3 -17 -8 -5.5009 -16.9235
-3 -17 -7 5.9023 -6.1409
-3 -17 -6 -0.3634 -23.4041
-3 -17 -5 -2.0287 -15.2252
-3 -17 -4 -0.5114 13.6200
-3 -17 -3 2.0914 -7.7179
-3 -17 -2 -3.8293 6.6241
-3 -17 -1 -3.0596 3.1906
-3 -16 -19 5.1114 -1.0833
-3 -16 -18 -15.2560 -5.5626
-3 -16 -17 7.7184 -3.7038
-3 -16 -16 4.3763 2.4201
-3 -16 -15 3.2437 -1.0094
-3 -16 -14 -4.8011 -2.2892
-3 -16 -13 2.2603 -6.1123
-3 -16 -12 -7.1513 -2.0518
-3 -16 -11 11.7119 -1.7934
-3 -16 -10 4.0367 3.5764
-3 -16 -9 22.4228 -1.5774
-3 -16 -8 17.7214 9.2131
-3 -16 -7 -5.1361 4.6283
-3 -16 -6 1.5463 -0.3925
-3 -16 -5 7.6940 -5.9864
-3 -16 -4 -3.8100 -3.4081
-3 -16 -3 0.0424 2.3157
-3 -16 -2 15.4367 -5.6487
-3 -16 -1 -12.4092 -1.5314
-3 -15 -24 -5.0881 2.6967
-3 -15 -23 2.6825 2.8383
-3 -15 -22 1.2113 3.4126
-3 -15 -21 2.8492 -5.3320
-3 -15 -20 9.5734 -0.8672
-3 -15 -19 3.0800 6.5746
-3 -15 -18 -9.9466 -1.0769
-3 -15 -17 3.7687 -8.6738
-3 -15 -16 5.0954 15.8122
-3 -15 -15 -0.1563 -12.7641
-3 -15 -14 5.5336 -1.7925
-3 -15 -13 -6.5624 2.4913
-3 -15 -12 3.3037 7.6058
-3 -15 -11 -15.4217 10.7782
-3 -15 -10 -9.6789 1.2175
-3 -15 -9 1.6687 -3.4325
-3 -15 -8 2.2305 1.1136
-3 -15 -7 1.1542 -0.2375
-3 -15 -6 4.6359 -1.8319
-3 -15 -5 4.8272 19.1183
-3 -15 -4 2.8745 -5.7619
-3 -15 -3 -0.6398 -6.9720
-3 -15 -2 -5.4830 -1.1604
-3 -15 -1 4.9012 -7.9780
-3 -14 -28 -7.5278 1.9308
-3 -14 -27 0.6317 5.0506
-3 -14 -26 -8.9426 -3.1702
-3 -14 -25 1.3475 4.8620
-3 -14 -24 2.0262 1.6136
-3 -14 -23 -5.7567 1.6527
-3 -14 -22 -1.4808 10.7897
-3 -14 -21 2.2678 -7.5328
-3 -14 -20 5.6133 -2.2753
-3 -14 -19 -5.8940 2.0470
-3 -14 -18 2.2814 -4.5304
-3 -14 -17 5.9753 6.5049
-3 -14 -16 1.2883 5.4368
-3 -14 -15 -6.3105 -9.3105
-3 -14 -14 16.1179 -12.6558
-3 -14 -13 -13.6700 -6.1341
-3 -14 -12 2.4375 -9.8233
-3 -14 -11 9.9804 4.6777
-3 -14 -10 1.8860 -6.1035
-3 -14 -9 4.7619 13.4000
-3 -14 -8 -14.4741 4.4367
-3 -14 -7 -0.0280 -10.2786
-3 -14 -6 0.7059 13.2085
-3 -14 -5 7.4412 -1.2160
-3 -14 -4 -4.9976 0.1063
-3 -14 -3 10.1708 -6.9447
-3 -14 -2 -7.5395 2.1701
-3 -14 -1 -5.2984 9.4156
-3 -13 -31 -1.5229 -6.8373
-3 -13 -30 -6.5720 4.8681
-3 -13 -29 4.5354 -12.5502
-3 -13 -28 -9.1505 10.3381
-3 -13 -27 5.9991 -1.1872
-3 -13 -26 -0.5649 -0.4781
-3 -13 -25 -2.9999 -6.3093
-3 -13 -24 -5.4473 4.1668
-3 -13 -23 6.2358 -1.5802
-3 -13 -22 1.4371 2.1541
-3 -13 -21 4.5935 5.9236
-3 -13 -20 -3.1863 -1.0537
-3 -13 -19 -11.4551 -1.1779
-3 -13 -18 6.5540 -2.1257
-3 -13 -17 12.1719 13.2726
-3 -13 -16 -1.7256 -0.7876
-3 -13 -15 14.9596 -4.9321
-3 -13 -14 6.7904 4.4714
-3 -13 -13 -0.3879 9.5730
-3 -13 -12 -10.2152 -8.9248
-3 -13 -11 1.3823 7.9665
-3 -13 -10 5.1091 -6.9349
-3 -13 -9 -1.1804 -11.2871
-3 -13 -8 -13.8981 9.4902
-3 -13 -7 6.3392 -0.8648
-3 -13 -6 9.7837 3.0550
-3 -13 -5 -8.9319 -10.0583
-3 -13 -4 14.4773 -1.4852
-3 -13 -3 -16.6498 -9.6017
-3 -13 -2 11.6038 0.6634
-3 -13 -1 5.7737 -8.4670
-3 -12 -33 -4.8679 2.1743
-3 -12 -32 5.6391 -6.2071
-3 -12 -31 -6.5439 0.6816
-3 -12 -30 -4.0992 -0.1475
-3 -12 -29 -5.2778 4.4310
-3 -12 -28 4.1920 6.6826
-3 -12 -27 -7.5487 -11.5573
-3 -12 -26 13.5578 7.2657
-3 -12 -25 -8.1849 -1.1226
-3 -12 -24 -6.9177 4.6051
-3 -12 -23 1.7524 -2.5405
-3 -12 -22 3.7976 -7.9440
-3 -12 -21 -0.2977 -3.9981
-3 -12 -20 -0.8682 6.1917
-3 -12 -19 -1.2433 -4.6197
-3 -12 -18 -2.7360 8.1895
-3 -12 -17 -0.2898 10.4853
-3 -12 -16 -0.3120 -3.2335
-3 -12 -15 9.0751 -4.1322
-3 -12 -14 -4.6502 10.6032
-3 -12 -13 -3.4835 -3.4263
-3 -12 -12 16.5333 3.4935
-3 -12 -11 3.6667 -7.0473
-3 -12 -10 -11.0572 3.3525
-3 -12 -9 5.9040 -1.3887
-3 -12 -8 5.4660 1.5236
-3 -12 -7 -1.7322 15.4111
-3 -12 -6 13.0312 1.9766
-3 -12 -5 -0.0750 -11.5218
-3 -12 -4 0.1205 -1.1943
-3 -12 -3 4.1602 25.6438
-3 -12 -2 4.9760 -4.5219
-3 -12 -1 -8.3151 14.9733
-3 -11 -35 4.7174 -4.6232
-3 -11 -34 -1.9984 -0.9214
-3 -11 -33 -1.7741 -4.2486
-3 -11 -32 -1.6519 -8.4708
-3 -11 -31 -5.8001 -3.9846
-3 -11 -30 -2.4454 -7.6578
-3 -11 -29 2.1937 7.7580
-3 -11 -28 -3.0155 0.4992
-3 -11 -27 -1.9143 -8.0509
-3 -11 -26 4.6744 -2.1761
-3 -11 -25 -3.8181 9.0564
-3 -11 -24 12.5038 -7.4361
-3 -11 -23 3.6598 9.6672
-3 -11 -22 2.2478 6.5071
-3 -11 -21 -1.0012 -11.1242
-3 -11 -20 -2.6606 2.3764
-3 -11 -19 8.6068 2.6326
-3 -11 -18 1.6711 2.5640
-3 -11 -17 -12.3350 3.9688
-3 -11 -16 1.2010 -2.4685
-3 -11 -15 2.3568 6.6318
-3 -11 -14 -5.9830 3.8973
-3 -11 -13 0.7941 -5.4120
-3 -11 -12 13.4594 2.1774
-3 -11 -11 -6.2183 5.6583
-3 -11 -10 -12.4684 -9.5531
-3 -11 -9 -15.1377 12.3647
-3 -11 -8 11.5441 6.9519
-3 -11 -7 5.8358 -11.7876
-3 -11 -6 -7.3986 -3.0025
-3 -11 -5 -1.5646 9.9125
-3 -11 -4 -11.1196 -7.3318
-3 -11 -3 4.5644 -2.6780
-3 -11 -2 12.2334 -1.0887
-3 -11 -1 17.8586 -5.5328
-3 -10 -37 -1.0027 -3.0669
-3 -10 -36 4.2011 -2.3886
-3 -10 -35 4.9678 -3.5458
-3 -10 -34 9.2986 0.8634
-3 -10 -33 3.1968 -9.2616
-3 -10 -32 5.2879 3.1139
-3 -10 -31 -0.6484 -2.9451
-3 -10 -30 -0.3284 -4.0642
-3 -10 -29 5.4094 4.9469
-3 -10 -28 -4.1573 -4.8367
-3 -10 -27 2.7482 0.4944
-3 -10 -26 -7.0306 10.3287
-3 -10 -25 -11.4807 4.7727
-3 -10 -24 5.0849 -3.9413
-3 -10 -23 3.4573 6.5100
-3 -10 -22 -10.5324 7.4346
-3 -10 -21 4.6121 6.1104
-3 -10 -20 4.2170 -0.3001
-3 -10 -19 -14.4382 -3.2130
-3 -10 -18 7.1783 1.7878
-3 -10 -17 1.0750 -8.2765
-3 -10 -16 0.8712 6.4622
-3 -10 -15 7.4927 12.4728
-3 -10 -14 -4.6925 1.7698
-3 -10 -13 10.3008 -7.3412
-3 -10 -12 -4.9692 -8.2751
-3 -10 -11 -7.2258 -4.1724
-3 -10 -10 11.0990 -3.7996
-3 -10 -9 12.0856 11.2584
-3 -10 -8 -7.5165 4.7444
-3 -10 -7 10.0174 -6.0470
-3 -10 -6 2.5715 -8.7599
-3 -10 -5 -6.1846 11.4875
-3 -10 -4 3.7765 12.3573
-3 -10 -3 2.4079 -6.5179
-3 -10 -2 -10.4433 0.8349
-3 -10 -1 1.8142 -6.7375
-3 -9 -39 2.8126 2.6967
-3 -9 -38 4.5069 4.9631
-3 -9 -37 0.0132 3.8048
-3 -9 -36 6.0783 0.7049
-3 -9 -35 -1.0430 9.6140
-3 -9 -34 -0.2058 2.3512
-3 -9 -33 3.5285 0.2375
-3 -9 -32 4.2091 -2.1655
-3 -9 -31 -6.4617 8.0970
-3 -9 -30 9.9911 -3.5694
-3 -9 -29 -3.5913 -7.1668
-3 -9 -28 -4.5975 -4.5286
-3 -9 -27 5.5170 -4.6432
-3 -9 -26 -8.0147 4.1108
-3 -9 -25 -4.2142 -10.0843
-3 -9 -24 -1.6824 1.1617
-3 -9 -23 -8.8234 5.4026
-3 -9 -22 -5.8670 -8.8831
-3 -9 -21 6.0735 0.0917
-3 -9 -20 5.2932 7.4572
-3 -9 -19 -7.4180 -1.7120
-3 -9 -18 -10.7770 4.5774
-3 -9 -17 -5.4527 17.4658
-3 -9 -16 -2.2954 -6.8804
-3 -9 -15 -4.4518 3.7365
-3 -9 -14 11.6626 1.6866
-3 -9 -13 5.7378 0.7630
-3 -9 -12 -6.1133 21.1089
-3 -9 -11 -10.1067 -2.0837
-3 -9 -10 -2.0288 10.5394
-3 -9 -9 9.1227 4.6841
-3 -9 -8 -10.1481 -9.8007
-3 -9 -7 -3.0963 1.0688
-3 -9 -6 4.9982 5.6441
-3 -9 -5 6.5743 -17.7772
-3 -9 -4 12.9392 -6.7077
-3 -9 -3 8.8140 7.1877
-3 -9 -2 -3.5602 0.3260
-3 -9 -1 -3.6897 5.1357
-3 -8 -40 1.1650 2.7722
-3 -8 -39 -1.1608 1.1422
-3 -8 -38 -5.3719 2.4924
-3 -8 -37 -1.0462 -2.0678
-3 -8 -36 -0.0133 -0.7949
-3 -8 -35 -1.2331 7.4428
-3 -8 -34 -7.7272 -4.4174
-3 -8 -33 1.3373 1.3855
-3 -8 -32 5.8162 3.1056
-3 -8 -31 4.0118 0.3322
-3 -8 -30 0.8979 -0.6806
-3 -8 -29 5.9412 3.9645
-3 -8 -28 -0.3534 -10.5741
-3 -8 -27 0.2413 5.7203
-3 -8 -26 4.6521 -4.5798
-3 -8 -25 0.4256 -11.7619
-3 -8 -24 2.9466 5.9983
-3 -8 -23 -6.8990 3.7533
-3 -8 -22 7.2367 -3.7682
-3 -8 -21 -1.4608 -3.2532
-3 -8 -20 -17.3984 -6.9940
-3 -8 -19 -0.8031 -10.9568
-3 -8 -18 2.8573 -4.1194
-3 -8 -17 -5.5829 4.0683
-3 -8 -16 -0.4524 4.6526
-3 -8 -15 -4.4350 -6.3753
-3 -8 -14 -25.2017 -2.2133
-3 -8 -13 -1.7344 -3.3180
-3 -8 -12 -2.3588 -8.5784
-3 -8 -11 -1.9422 0.8202
-3 -8 -10 10.8462 -2.8466
-3 -8 -9 -14.8854 1.0785
-3 -8 -8 12.9650 6.5862
-3 -8 -7 13.6363 8.4254
-3 -8 -6 -1.4492 27.4747
-3 -8 -5 3.4314 -0.2456
-3 -8 -4 -1.4463 -8.2653
-3 -8 -3 -13.5056 6.7860
-3 -8 -2 3.3620 8.3646
-3 -8 -1 10.2215 9.9326
-3 -7 -41 0.4809 -5.3203
-3 -7 -40 -3.5424 7.5347
-3 -7 -39 5.2203 -2.4456
-3 -7 -38 -4.0878 -0.0032
-3 -7 -37 -1.1293 -8.0869
-3 -7 -36 3.1641 0.2985
-3 -7 -35 -1.9091 -3.6050
-3 -7 -34 -0.4221 2.3050
-3 -7 -33 5.9857 4.5941
-3 -7 -32 -4.3091 4.6353
-3 -7 -31 4.1897 -3.3624
-3 -7 -30 1.0235 -6.8642
-3 -7 -29 -0.6994 7.1480
-3 -7 -28 2.3093 1.8577
-3 -7 -27 3.5266 -2.9935
-3 -7 -26 -5.1938 -0.7231
-3 -7 -25 4.0681 5.8721
-3 -7 -24 -6.0956 3.4177
-3 -7 -23 0.8180 -5.8908
-3 -7 -22 13.5614 -5.7200
-3 -7 -21 3.1596 -0.4665
-3 -7 -20 -4.7812 -5.0729
-3 -7 -19 3.1427 3.7468
-3 -7 -18 3.2315 4.5553
-3 -7 -17 -3.3814 -21.9482
-3 -7 -16 6.1783 -13.7980
-3 -7 -15 9.3117 3.4864
-3 -7 -14 6.7684 -5.9956
-3 -7 -13 -1.9624 1.6411
-3 -7 -12 4.5382 8.0198
-3 -7 -11 1.5092 -13.8221
-3 -7 -10 -9.6340 5.0607
-3 -7 -9 -8.0318 12.7621
-3 -7 -8 -16.2342 -4.4472
-3 -7 -7 9.0271 13.0457
-3 -7 -6 2.1068 -19.2529
-3 -7 -5 -14.5234 -5.8417
-3 -7 -4 -5.1778 9.3814
-3 -7 -3 -20.0442 -2.1752
-3 -7 -2 -1.8591 0.4430
-3 -7 -1 1.2387 9.9736
-3 -6 -42 -2.6085 -0.3005
-3 -6 -41 -0.0735 3.2652
-3 -6 -40 2.7347 -4.4005
-3 -6 -39 -0.0203 1.4904
-3 -6 -38 13.8556 0.9273
-3 -6 -37 -1.7295 -3.0917
-3 -6 -36 1.8518 8.9713
-3 -6 -35 -9.3961 -0.4563
-3 -6 -34 9.0144 2.9510
-3 -6 -33 5.6427 6.1080
-3 -6 -32 2.8744 -0.9523
-3 -6 -31 1.4224 -6.9728
-3 -6 -30 3.8486 4.3855
-3 -6 -29 1.9301 0.7342
-3 -6 -28 -7.1822 2.0563
-3 -6 -27 2.4432 -4.1700
-3 -6 -26 -8.0109 -5.7770
-3 -6 -25 0.9233 7.1824
-3 -6 -24 6.6082 1.0788
-3 -6 -23 4.6770 -2.2280
-3 -6 -22 -0.1472 3.1662
-3 -6 -21 -10.4303 0.3155
-3 -6 -20 13.0481 -4.0899
-3 -6 -19 9.0115 2.8406
-3 -6 -18 6.8687 9.6030
-3 -6 -17 5.3512 -0.7933
-3 -6 -16 3.4117 6.7287
-3 -6 -15 -13.8907 11.9605
-3 -6 -14 4.4530 -2.1850
-3 -6 -13 14.6571 -4.5654
-3 -6 -12 -12.4687 3.2644
-3 -6 -11 -2.0557 -1.1416
-3 -6 -10 2.1626 4.6752
-3 -6 -9 -5.5607 2.6749
-3 -6 -8 13.9014 2.9691
-3 -6 -7 8.5031 -9.7227
-3 -6 -6 -11.1395 -4.7431
-3 -6 -5 17.9381 -29.1305
-3 -6 -4 -15.9351 6.7116
-3 -6 -3 4.2292 16.2501
-3 -6 -2 9.0181 -7.4864
-3 -6 -1 -5.8841 -1.5978
-3 -5 -43 3.5490 -4.3933
-3 -5 -42 -1.7203 4.8101
-3 -5 -41 2.7130 6.5112
-3 -5 -40 -0.4579 3.7045
-3 -5 -39 2.3227 4.2150
-3 -5 -38 -4.8371 -1.2141
-3 -5 -37 1.2000 3.1385
-3 -5 -36 -8.2943 0.9023
-3 -5 -35 -5.5225 12.3761
-3 -5 -34 14.0987 4.3109
-3 -5 -33 -2.3755 9.0399
-3 -5 -32 1.3412 -1.3711
-3 -5 -31 -1.9143 1.5623
-3 -5 -30 -2.8235 0.3338
-3 -5 -29 1.0447 -4.1278
-3 -5 -28 4.0937 -9.4910
-3 -5 -27 0.3190 3.1041
-3 -5 -26 -2.4385 10.3049
-3 -5 -25 -0.3698 -5.5167
-3 -5 -24 -2.0905 0.0567
-3 -5 -23 10.6395 -0.2005
-3 -5 -22 -11.9140 3.0984
-3 -5 -21 2.5518 12.1245
-3 -5 -20 3.9882 4.5037
-3 -5 -19 -3.0403 11.4502
-3 -5 -18 -13.3671 -16.9347
-3 -5 -17 -8.7084 5.5693
-3 -5 -16 12.5367 -0.6111
-3 -5 -15 -8.8617 -2.9649
-3 -5 -14 -3.2705 -5.1386
-3 -5 -13 -8.0444 7.1923
-3 -5 -12 -12.7703 -7.8068
-3 -5 -11 -6.8895 -3.6698
-3 -5 -10 1.9084 18.0268
-3 -5 -9 -5.3821 -2.7836
-3 -5 -8 24.4330 1.5673
-3 -5 -7 9.6041 8.3017
-3 -5 -6 -15.6213 -4.7098
-3 -5 -5 -11.5520 9.3899
-3 -5 -4 8.1179 14.6240
-3 -5 -3 -6.0223 -24.7239
-3 -5 -2 20.4018 19.1906
-3 -5 -1 10.7202 -18.7690
-3 -4 -44 -3.9033 -3.8807
-3 -4 -43 -0.6062 3.2334
-3 -4 -42 -4.3297 7.4024
-3 -4 -41 -3.3780 -2.0364
-3 -4 -40 -0.3858 4.5578
-3 -4 -39 2.8372 -3.3618
-3 -4 -38 -9.6437 -1.2350
-3 -4 -37 -6.0127 -0.3038
-3 -4 -36 -5.4509 8.4775
-3 -4 -35 -3.1237 1.6481
-3 -4 -34 -1.8956 4.8203
-3 -4 -33 -1.2395 -3.4983
-3 -4 -32 3.3635 -14.0383
-3 -4 -31 3.2577 10.5477
-3 -4 -30 4.1780 1.7327
-3 -4 -29 -4.0232 -4.3971
-3 -4 -28 -3.1311 -1.9979
-3 -4 -27 6.0272 -0.7114
-3 -4 -26 -2.7668 6.0263
-3 -4 -25 5.1389 -6.6685
-3 -4 -24 -5.5832 0.8557
-3 -4 -23 -15.1087 2.0344
-3 -4 -22 -2.9946 8.4422
-3 -4 -21 3.3799 -12.0934
-3 -4 -20 -1.0821 2.5395
-3 -4 -19 8.2036 -10.1812
-3 -4 -18 1.8201 -0.2305
-3 -4 -17 14.7225 3.5274
-3 -4 -16 -12.8327 -4.6901
-3 -4 -15 11.9345 -9.8877
-3 -4 -14 0.5772 -27.4991
-3 -4 -13 -4.3781 10.2529
-3 -4 -12 -2.6537 -3.9253
-3 -4 -11 5.6613 3.6862
-3 -4 -10 -12.6039 11.2975
-3 -4 -9 0.0209 -1.0812
-3 -4 -8 -4.0552 -1.4953
-3 -4 -7 -20.9183 -6.1797
-3 -4 -6 -0.8976 -27.0808
-3 -4 -5 8.5192 7.6084
-3 -4 -4 -2.6311 36.9510
-3 -4 -3 24.1591 -10.4362
-3 -4 -2 8.8490 -14.8991
-3 -4 -1 -39.8161 5.8652
-3 -3 -44 -12.0334 -1.2436
-3 -3 -43 4.4419 1.0191
-3 -3 -42 -7.8793 2.1355
-3 -3 -41 -2.4588 -4.8326
-3 -3 -40 4.4795 -0.4169
-3 -3 -39 -5.0142 -3.5851
-3 -3 -38 -2.7482 0.9374
-3 -3 -37 -6.2750 -4.5746
-3 -3 -36 1.3709 6.4944
-3 -3 -35 8.0171 1.0754
-3 -3 -34 5.7983 0.1744
-3 -3 -33 -3.5142 4.1064
-3 -3 -32 2.1397 -2.7401
-3 -3 -31 2.6453 0.9201
-3 -3 -30 -1.9111 -9.4843
-3 -3 -29 5.3442 10.8734
-3 -3 -28 -0.2751 -2.8239
-3 -3 -27 -5.1608 3.8597
-3 -3 -26 5.2655 -7.8308
-3 -3 -25 -4.1414 -13.8003
-3 -3 -24 0.9510 4.8778
-3 -3 -23 -10.0598 -1.8096
-3 -3 -22 10.4128 6.5309
-3 -3 -21 10.0906 10.8615
-3 -3 -20 -1.2171 5.7948
-3 -3 -19 -12.2644 5.1808
-3 -3 -18 9.2167 7.4008
-3 -3 -17 18.1530 -6.3803
-3 -3 -16 6.4026 3.2198
-3 -3 -15 -4.3673 -8.2406
-3 -3 -14 -9.7658 12.4720
-3 -3 -13 5.4017 -11.4592
-3 -3 -12 -14.9504 -6.2410
-3 -3 -11 -0.4049 0.4057
-3 -3 -10 -3.0193 -13.4466
-3 -3 -9 21.4977 -18.6127
-3 -3 -8 23.3323 4.2394
-3 -3 -7 -29.2885 -7.0830
-3 -3 -6 3.5572 23.5856
-3 -3 -5 13.3388 19.5378
-3 -3 -4 5.1497 -8.5975
-3 -3 -3 9.8537 -21.3529
-3 -3 -2 24.5757 -3.9197
-3 -3 -1 -21.3076 -34.3482
-3 -2 -45 -2.5320 -3.9284
-3 -2 -44 -0.9332 -1.3122
-3 -2 -43 2.8488 -1.9255
-3 -2 -42 -0.7850 4.8532
-3 -2 -41 0.0303 -7.3942
-3 -2 -40 -1.2233 5.4200
-3 -2 -39 -6.1511 2.0343
-3 -2 -38 -3.0348 -2.2037
-3 -2 -37 -4.6152 8.0206
-3 -2 -36 -1.0136 8.3903
-3 -2 -35 -4.4373 1.4139
-3 -2 -34 7.9807 -0.6049
-3 -2 -33 5.5582 -3.3816
-3 -2 -32 2.9331 5.6883
-3 -2 -31 0.8460 2.6249
-3 -2 -30 -4.7263 -6.6621
-3 -2 -29 6.6750 0.7337
-3 -2 -28 -4.0466 3.4470
-3 -2 -27 20.2193 1.2200
-3 -2 -26 -10.8324 -11.1106
-3 -2 -25 2.0946 4.5920
-3 -2 -24 -10.9681 2.5508
-3 -2 -23 -9.9891 10.0478
-3 -2 -22 -5.9384 -6.5729
-3 -2 -21 -11.4239 1.4849
-3 -2 -20 -3.3381 4.4711
-3 -2 -19 8.5771 4.8831
-3 -2 -18 1.4033 10.3972
-3 -2 -17 0.9999 -9.2290
-3 -2 -16 5.7412 -10.4264
-3 -2 -15 -1.4474 -14.8860
-3 -2 -14 14.4523 0.9467
-3 -2 -13 -2.4004 -2.3819
-3 -2 -12 14.5749 0.9549
-3 -2 -11 9.8199 2.7592
-3 -2 -10 1.8411 18.1719
-3 -2 -9 -0.7522 5.1685
-3 -2 -8 -26.7505 -10.9063
-3 -2 -7 -10.5301 6.4230
-3 -2 -6 10.8741 20.4400
-3 -2 -5 -1.2584 56.1420
-3 -2 -4 27.5675 -28.5116
-3 -2 -3 4.1983 -20.7286
-3 -2 -2 -9.7468 5.0920
-3 -2 -1 -25.9327 -12.4450
-3 -1 -45 1.6581 7.0902
-3 -1 -44 -2.7208 -2.6602
-3 -1 -43 -4.4192 -0.1905
-3 -1 -42 -9.3538 -1.0704
-3 -1 -41 -1.6703 -7.1247
-3 -1 -40 -0.1624 -1.4077
-3 -1 -39 -11.4573 -5.6399
-3 -1 -38 -3.0004 -3.6942
-3 -1 -37 -0.7376 1.9896
-3 -1 -36 -0.9209 7.4887
-3 -1 -35 3.9039 8.2537
-3 -1 -34 3.2522 6.3328
-3 -1 -33 -2.3121 4.0674
-3 -1 -32 4.4290 -5.0199
-3 -1 -31 -4.4037 0.0802
-3 -1 -30 2.2221 2.1806
-3 -1 -29 -0.0166 7.0457
-3 -1 -28 -3.2295 0.3086
-3 -1 -27 4.7222 -8.0391
-3 -1 -26 -4.8444 3.1078
-3 -1 -25 -0.7823 -23.5591
-3 -1 -24 -10.8703 2.8137
-3 -1 -23 6.4228 -18.6727
-3 -1 -22 -0.3562 2.6232
-3 -1 -21 -8.3132 2.4423
-3 -1 -20 -9.4584 6.5927
-3 -1 -19 12.6058 4.1306
-3 -1 -18 24.0721 6.0204
-3 -1 -17 -1.8173 -3.6955
-3 -1 -16 3.6213 7.4700
-3 -1 -15 -1.4719 2.4989
-3 -1 -14 14.3404 -1.2150
-3 -1 -13 -11.7997 13.9213
-3 -1 -12 -18.3948 -9.4493
-3 -1 -11 9.8247 0.7013
-3 -1 -10 11.6933 -17.4821
-3 -1 -9 -20.7911 -17.7566
-3 -1 -8 -37.3622 11.4361
-3 -1 -7 -8.9094 2.1322
-3 -1 -6 0.1694 17.9816
-3 -1 -5 16.1653 -10.9643
-3 -1 -4 -5.7162 -2.8899
-3 -1 -3 34.7705 1.5456
-3 -1 -2 -2.4282 -20.3794
-3 -1 -1 -1.3080 0.4847
-2 -18 -2 7.0893 -11.0571
-2 -18 -1 -4.0205 -5.0931
-2 -17 -15 4.5508 -6.1835
-2 -17 -14 -1.9665 -8.6216
-2 -17 -13 -1.7993 -1.4851
-2 -17 -12 2.7737 -0.0193
-2 -17 -11 4.8474 -0.9585
-2 -17 -10 -0.6989 11.6685
-2 -17 -9 1.4204 13.0389
-2 -17 -8 9.3877 1.2503
-2 -17 -7 -1.8078 1.4422
-2 -17 -6 -7.3967 -2.5361
-2 -17 -5 11.4990 4.3118
-2 -17 -4 4.3797 -11.0068
-2 -17 -3 -6.7599 14.4057
-2 -17 -2 3.0613 3.8341
-2 -17 -1 -1.8268 4.5503
-2 -16 -20 -1.5666 -4.5710
-2 -16 -19 -2.6713 6.6529
-2 -16 -18 2.6595 7.0061
-2 -16 -17 3.9615 -4.5352
-2 -16 -16 9.0140 3.6793
-2 -16 -15 -3.0566 5.7967
-2 -16 -14 -10.2173 -2.9430
-2 -16 -13 -2.6928 -4.2348
-2 -16 -12 -10.4579 6.2371
-2 -16 -11 -5.4929 -3.7823
-2 -16 -10 -0.8622 0.0963
-2 -16 -9 -0.8683 -9.3134
-2 -16 -8 8.1265 8.9341
-2 -16 -7 4.3486 3.4429
-2 -16 -6 -3.6223 -9.0640
-2 -16 -5 3.0411 0.0643
-2 -16 -4 2.4688 3.1797
-2 -16 -3 4.9845 -12.0891
-2 -16 -2 -9.0690 0.6163
-2 -16 -1 16.7329 10.6058
-2 -15 -25 -10.0170 7.5069
-2 -15 -24 2.3206 7.1551
-2 -15 -23 2.3848 1.4456
-2 -15 -22 -4.3062 -0.6532
-2 -15 -21 -2.1297 -1.7426
-2 -15 -20 8.4574 -3.8704
-2 -15 -19 -6.6693 12.1970
-2 -15 -18 -9.7046 0.6118
-2 -15 -17 9.2172 -13.6211
-2 -15 -16 -0.4136 -6.4816
-2 -15 -15 -3.7462 -6.2013
-2 -15 -14 1.9486 -8.2528
-2 -15 -13 11.4368 -4.4901
-2 -15 -12 2.1058 7.9935
-2 -15 -11 -4.8698 -0.2729
-2 -15 -10 3.7159 4.5031
-2 -15 -9 -8.4496 1.6909
-2 -15 -8 5.5094 4.7757
-2 -15 -7 -0.7111 13.7873
-2 -15 -6 10.4024 3.7714
-2 -15 -5 1.6660 1.8548
-2 -15 -4 -11.0743 9.9918
-2 -15 -3 3.0498 6.8318
-2 -15 -2 1.5827 -3.4148
-2 -15 -1 -7.7891 -12.3021
-2 -14 -28 -1.6036 -5.5082
-2 -14 -27 -4.6983 12.3783
-2 -14 -26 -2.5185 -9.3802
-2 -14 -25 2.5166 0.8719
-2 -14 -24 -2.6005 -2.3720
-2 -14 -23 5.5253 12.8901
-2 -14 -22 -0.3038 -6.1231
-2 -14 -21 -9.0418 -3.9593
-2 -14 -20 7.5684 2.8593
-2 -14 -19 2.9668 0.9794
-2 -14 -18 8.2279 -9.1421
-2 -14 -17 12.5064 6.6306
-2 -14 -16 1.2749 10.1932
-2 -14 -15 -8.6823 -4.6676
-2 -14 -14 6.2559 8.8811
-2 -14 -13 1.1730 0.5982
-2 -14 -12 -1.6645 -9.8302
-2 -14 -11 -7.4916 -16.0115
-2 -14 -10 1.0397 4.6550
-2 -14 -9 -16.6776 9.0473
-2 -14 -8 -8.7143 -4.9774
-2 -14 -7 -2.5958 1.7002
-2 -14 -6 -2.3767 -7.2481
-2 -14 -5 -0.1294 -0.4184
-2 -14 -4 -5.4585 2.7103
-2 -14 -3 5.7239 -5.2789
-2 -14 -2 12.8390 7.0949
-2 -14 -1 3.9059 -3.7845
-2 -13 -31 -10.9824 -1.1064
-2 -13 -30 -6.6192 0.5984
-2 -13 -29 -2.6477 0.0234
-2 -13 -28 4.5843 1.0067
-2 -13 -27 2.0911 -0.2795
-2 -13 -26 -12.6782 2.7996
-2 -13 -25 9.4320 5.6053
-2 -13 -24 -7.8679 -1.7457
-2 -13 -23 3.4024 -6.4658
-2 -13 -22 3.4365 -0.2699
-2 -13 -21 8.4872 4.6074
-2 -13 -20 -7.9644 8.4218
-2 -13 -19 -0.9216 3.3511
-2 -13 -18 0.0551 -9.9198
-2 -13 -17 -5.1781 9.5644
-2 -13 -16 -13.4729 3.4880
-2 -13 -15 12.4585 -2.8201
-2 -13 -14 17.6503 2.6753
-2 -13 -13 2.5384 8.2640
-2 -13 -12 6.0498 -13.6635
-2 -13 -11 -0.3816 -13.4634
-2 -13 -10 -5.8131 -2.0908
-2 -13 -9 2.3156 10.7538
-2 -13 -8 15.9424 -8.0197
-2 -13 -7 -1.5313 2.2724
-2 -13 -6 -8.8486 -2.7791
-2 -13 -5 5.1270 4.9891
-2 -13 -4 -3.0229 7.7304
-2 -13 -3 -6.5268 -7.2922
-2 -13 -2 3.2435 -7.0925
-2 -13 -1 -9.7845 -10.7226
-2 -12 -34 2.9578 -5.6977
-2 -12 -33 1.3351 -10.2883
-2 -12 -32 -7.3651 -7.2410
-2 -12 -31 6.4711 1.7672
-2 -12 -30 -3.3651 -7.0482
-2 -12 -29 -1.1791 7.1423
-2 -12 -28 -7.1351 -5.1777
-2 -12 -27 -3.3168 -0.9899
-2 -12 -26 3.1566 -1.3583
-2 -12 -25 6.2294 8.1106
-2 -12 -24 -0.4932 10.3814
-2 -12 -23 -4.2437 -9.2998
-2 -12 -22 1.4754 6.9580
-2 -12 -21 1.1151 0.6199
-2 -12 -20 -2.5306 -9.1403
-2 -12 -19 -2.2090 -6.9969
-2 -12 -18 2.4020 4.4981
-2 -12 -17 -8.7680 1.7226
-2 -12 -16 -7.9624 8.0322
-2 -12 -15 8.1542 9.3935
-2 -12 -14 8.1181 9.3599
-2 -12 -13 -0.1666 -15.1134
-2 -12 -12 -1.0347 -3.4110
-2 -12 -11 3.5400 17.2193
-2 -12 -10 -8.7215 3.2871
-2 -12 -9 -4.1590 -8.1583
-2 -12 -8 8.3240 6.7409
-2 -12 -7 3.3268 -5.8567
-2 -12 -6 -13.1497 -11.5477
-2 -12 -5 12.6210 4.0948
-2 -12 -4 14.6482 -3.9358
-2 -12 -3 11.6173 -5.6284
-2 -12 -2 4.3696 17.0544
-2 -12 -1 -3.4082 13.3124
-2 -11 -36 6.0686 -0.0671
-2 -11 -35 8.6807 -0.0067
-2 -11 -34 6.6512 1.8025
-2 -11 -33 8.4113 3.4834
-2 -11 -32 -7.2116 -1.9974
-2 -11 -31 -0.5076 -4.1425
-2 -11 -30 5.1237 -0.0258
-2 -11 -29 2.0199 -9.2903
-2 -11 -28 -12.8164 7.0913
-2 -11 -27 1.6626 -2.4605
-2 -11 -26 -6.8209 2.7379
-2 -11 -25 -1.8223 -1.2362
-2 -11 -24 -2.6168 -2.6059
-2 -11 -23 6.1949 -2.0508
-2 -11 -22 2.8254 2.4803
-2 -11 -21 -5.1981 3.1985
-2 -11 -20 8.0905 -13.0713
-2 -11 -19 1.5639 -2.0100
-2 -11 -18 -12.9726 7.9491
-2 -11 -17 -0.1166 0.8904
-2 -11 -16 6.8397 -5.0655
-2 -11 -15 2.2363 12.5829
-2 -11 -14 -2.8946 2.5829
-2 -11 -13 -3.4736 -5.3772
-2 -11 -12 4.8626 -7.8723
-2 -11 -11 -8.1490 8.7558
-2 -11 -10 6.2020 4.6478
-2 -11 -9 16.0662 -9.5155
-2 -11 -8 -4.2961 3.8467
-2 -11 -7 -4.9783 20.7947
-2 -11 -6 19.1611 5.3161
-2 -11 -5 -16.3107 7.3229
-2 -11 -4 -19.0577 5.4511
-2 -11 -3 3.0045 -6.5284
-2 -11 -2 0.5945 8.4060
-2 -11 -1 8.5652 10.4016
-2 -10 -38 -4.6989 6.1729
-2 -10 -37 0.9468 10.3467
-2 -10 -36 -5.6805 5.6376
-2 -10 -35 0.6662 1.4693
-2 -10 -34 -2.0682 -3.5368
-2 -10 -33 -1.2676 1.1564
-2 -10 -32 4.5167 2.1067
-2 -10 -31 2.7685 -8.4139
-2 -10 -30 1.8572 4.9049
-2 -10 -29 -0.0936 -7.0345
-2 -10 -28 2.0162 -7.2954
-2 -10 -27 1.5838 2.5075
-2 -10 -26 9.9288 5.6414
-2 -10 -25 -6.3150 -9.1772
-2 -10 -24 0.2237 0.1659
-2 -10 -23 7.9045 5.9301
-2 -10 -22 2.6998 -0.2385
-2 -10 -21 -5.4117 -4.9654
-2 -10 -20 -2.6612 4.8518
-2 -10 -19 4.1105 6.1197
-2 -10 -18 -11.5538 -4.5781
-2 -10 -17 -4.5176 -1.6212
-2 -10 -16 4.3638 5.7877
-2 -10 -15 -7.3400 -5.7937
-2 -10 -14 -6.0426 1.5985
-2 -10 -13 7.4781 5.8217
-2 -10 -12 -2.6262 9.5332
-2 -10 -11 0.5713 0.0481
-2 -10 -10 -13.5162 -7.2773
-2 -10 -9 -3.3768 15.1942
-2 -10 -8 -10.4252 -5.7787
-2 -10 -7 -5.2166 -20.7637
-2 -10 -6 10.1816 -2.2560
-2 -10 -5 19.5272 0.8345
-2 -10 -4 -19.2144 -5.1661
-2 -10 -3 -3.4494 28.0482
-2 -10 -2 3.4532 5.4441
-2 -10 -1 0.2810 -17.0259
-2 -9 -39 -0.0251 -0.2892
-2 -9 -38 -6.1492 -1.1232
-2 -9 -37 -0.7892 -2.0152
-2 -9 -36 4.9417 -2.9728
-2 -9 -35 2.3640 -1.5463
-2 -9 -34 -1.8935 0.9649
-2 -9 -33 0.7020 2.1760
-2 -9 -32 2.2282 1.8601
-2 -9 -31 4.3283 5.3948
-2 -9 -30 -1.0404 -0.1092
-2 -9 -29 -8.9859 6.2522
-2 -9 -28 13.4599 1.1666
-2 -9 -27 -1.0723 0.2139
-2 -9 -26 -3.6126 4.2460
-2 -9 -25 4.5474 0.6621
-2 -9 -24 4.9600 -0.6655
-2 -9 -23 -8.7389 2.1931
-2 -9 -22 -3.8486 -4.8266
-2 -9 -21 6.6192 -10.2561
-2 -9 -20 -3.7825 -0.6064
-2 -9 -19 2.8742 3.2389
-2 -9 -18 10.5447 -11.0502
-2 -9 -17 -3.3119 -9.7056
-2 -9 -16 -13.2471 4.5459
-2 -9 -15 -2.3701 3.3803
-2 -9 -14 3.4823 -9.0290
-2 -9 -13 -1.2769 5.6099
-2 -9 -12 2.4464 -4.3258
-2 -9 -11 -3.2613 -16.4186
-2 -9 -10 7.7064 2.0042
-2 -9 -9 8.7667 4.6597
-2 -9 -8 1.4504 27.7926
-2 -9 -7 13.1441 -2.3024
-2 -9 -6 -23.6139 0.3500
-2 -9 -5 -17.3401 -2.7562
-2 -9 -4 12.6945 5.7769
-2 -9 -3 5.8636 -8.1747
-2 -9 -2 -0.7641 15.8136
-2 -9 -1 7.8115 -6.2638
-2 -8 -41 -2.4983 3.0611
-2 -8 -40 -2.8086 -7.1492
-2 -8 -39 -0.1837 11.0388
-2 -8 -38 5.8183 3.3441
-2 -8 -37 1.2415 -4.4063
-2 -8 -36 0.8952 1.4507
-2 -8 -35 0.1024 5.6468
-2 -8 -34 -6.5990 -2.4580
-2 -8 -33 0.6803 -5.0343
-2 -8 -32 -3.4083 0.4053
-2 -8 -31 2.4533 -0.3996
-2 -8 -30 -4.8997 1.0929
-2 -8 -29 1.9729 -0.4345
-2 -8 -28 -0.3051 1.9646
-2 -8 -27 -0.0020 6.6315
-2 -8 -26 -4.1163 -10.5679
-2 -8 -25 2.2293 6.3834
-2 -8 -24 11.1485 -0.0539
-2 -8 -23 0.9703 -4.7706
-2 -8 -22 1.9891 0.3314
-2 -8 -21 4.0819 17.8757
-2 -8 -20 6.0913 1.3303
-2 -8 -19 3.4225 -15.7563
-2 -8 -18 1.7679 0.1580
-2 -8 -17 4.4623 -3.3640
-2 -8 -16 -9.9061 -0.3851
-2 -8 -15 4.0653 11.9865
-2 -8 -14 8.7206 5.1269
-2 -8 -13 4.3126 -10.8299
-2 -8 -12 -12.2146 4.4283
-2 -8 -11 -7.2324 12.3018
-2 -8 -10 -12.6430 3.9093
-2 -8 -9 -16.5206 -3.3705
-2 -8 -8 12.2823 -18.0821
-2 -8 -7 -5.3991 -5.2506
-2 -8 -6 9.7086 10.3535
-2 -8 -5 -19.7786 -9.0017
-2 -8 -4 7.4413 13.3653
-2 -8 -3 5.9025 -11.0576
-2 -8 -2 7.0263 -17.2030
-2 -8 -1 -12.1458 10.0766
-2 -7 -42 -5.4678 -3.1860
-2 -7 -41 -5.7989 3.7493
-2 -7 -40 -2.5090 3.2116
-2 -7 -39 3.0390 1.9929
-2 -7 -38 -8.9509 1.1750
-2 -7 -37 5.6165 -4.3462
-2 -7 -36 1.6685 -1.4504
-2 -7 -35 -0.5938 0.8702
-2 -7 -34 2.6081 0.0424
-2 -7 -33 6.2854 0.4810
-2 -7 -32 -3.3553 4.4159
-2 -7 -31 -3.1986 -2.2176
-2 -7 -30 8.3629 4.2543
-2 -7 -29 1.8102 -5.6004
-2 -7 -28 -4.4256 3.9741
-2 -7 -27 -3.6362 1.0579
-2 -7 -26 6.2654 2.2558
-2 -7 -25 3.4993 8.4466
-2 -7 -24 -14.0386 2.8472
-2 -7 -23 0.6193 -1.3713
-2 -7 -22 -0.0691 3.8916
-2 -7 -21 6.1920 9.9559
-2 -7 -20 6.6463 -0.1569
-2 -7 -19 10.3562 -4.9678
-2 -7 -18 -18.6304 3.1971
-2 -7 -17 -12.7110 3.5229
-2 -7 -16 13.6968 3.1490
-2 -7 -15 -0.5098 -7.3370
-2 -7 -14 -6.5527 0.4560
-2 -7 -13 -1.8459 -13.9384
-2 -7 -12 -4.7374 -13.8843
-2 -7 -11 -2.4586 -0.8889
-2 -7 -10 15.7574 9.0149
-2 -7 -9 3.3345 2.3662
-2 -7 -8 -7.0314 -12.3294
-2 -7 -7 0.8039 4.9375
-2 -7 -6 4.0477 -7.2803
-2 -7 -5 18.1292 22.5237
-2 -7 -4 5.1369 -12.3642
-2 -7 -3 -21.3776 11.2670
-2 -7 -2 8.0768 -0.6484
-2 -7 -1 -14.5922 10.8904
-2 -6 -43 -3.0563 -5.9538
-2 -6 -42 -2.2184 -4.0240
-2 -6 -41 -5.2083 0.2651
-2 -6 -40 4.9471 0.3027
-2 -6 -39 5.3658 -0.7043
-2 -6 -38 -1.2945 -1.3543
-2 -6 -37 1.2203 2.2332
-2 -6 -36 -0.8188 5.7933
-2 -6 -35 -6.4632 -5.3245
-2 -6 -34 3.2969 -0.8633
-2 -6 -33 -0.6018 8.5461
-2 -6 -32 -3.6986 7.9585
-2 -6 -31 1.6169 -2.9103
-2 -6 -30 2.8951 -0.3532
-2 -6 -29 -1.8110 1.5897
-2 -6 -28 -3.8996 -2.8168
-2 -6 -27 -7.0443 0.9814
-2 -6 -26 4.5864 0.0641
-2 -6 -25 0.0926 -1.7613
-2 -6 -24 -10.9250 -4.8372
-2 -6 -23 3.0134 14.2250
-2 -6 -22 -1.8003 11.8777
-2 -6 -21 -4.5992 -10.5130
-2 -6 -20 1.3648 -11.6307
-2 -6 -19 -2.7415 0.3604
-2 -6 -18 -4.2391 3.5125
-2 -6 -17 -0.9180 -5.9347
-2 -6 -16 15.5609 13.0849
-2 -6 -15 4.2671 -11.2097
-2 -6 -14 0.3771 -16.9713
-2 -6 -13 -3.9710 13.5804
-2 -6 -12 -1.6396 5.9749
-2 -6 -11 -1.2644 -10.0379
-2 -6 -10 -1.8555 0.4431
-2 -6 -9 9.3623 5.0013
-2 -6 -8 2.2738 9.0162
-2 -6 -7 -5.8481 14.5982
-2 -6 -6 -17.3956 -2.1054
-2 -6 -5 9.0698 -14.4606
-2 -6 -4 -5.0782 -7.7062
-2 -6 -3 11.7315 -16.5513
-2 -6 -2 -24.6083 4.7681
-2 -6 -1 11.1611 17.4726
-2 -5 -44 3.1170 -4.4308
-2 -5 -43 -3.1757 -3.8521
-2 -5 -42 3.8063 9.5975
-2 -5 -41 -1.3790 2.6137
-2 -5 -40 -0.1979 1.3366
-2 -5 -39 1.0758 1.9028
-2 -5 -38 2.5844 -5.6190
-2 -5 -37 4.2516 2.1733
-2 -5 -36 -5.2604 4.2754
-2 -5 -35 -0.8640 -4.7101
-2 -5 -34 -6.7242 -0.0704
-2 -5 -33 -4.2990 7.2373
-2 -5 -32 2.0671 -2.7801
-2 -5 -31 6.8952 -1.6369
-2 -5 -30 -1.5452 0.9874
-2 -5 -29 -6.2975 -3.0473
-2 -5 -28 3.8461 2.7746
-2 -5 -27 3.9773 0.9492
-2 -5 -26 -8.2392 2.1672
-2 -5 -25 -8.9434 -4.6452
-2 -5 -24 -1.2809 -2.9185
-2 -5 -23 9.5057 -1.2356
-2 -5 -22 1.0595 7.5286
-2 -5 -21 13.0724 -18.0977
-2 -5 -20 -6.2768 -1.7486
-2 -5 -19 -6.7631 13.5748
-2 -5 -18 1.2537 2.5533
-2 -5 -17 17.3293 -3.6632
-2 -5 -16 -0.5542 -4.7719
-2 -5 -15 -11.0516 1.4700
-2 -5 -14 17.9254 -12.2918
-2 -5 -13 -6.7656 -0.8215
-2 -5 -12 -6.8103 3.2131
-2 -5 -11 6.0656 8.9846
-2 -5 -10 -18.6273 9.1196
-2 -5 -9 -16.6823 -16.9036
-2 -5 -8 13.6690 -6.2139
-2 -5 -7 8.1331 0.2036
-2 -5 -6 17.7816 4.9159
-2 -5 -5 9.3692 -0.4053
-2 -5 -4 -7.1508 3.8856
-2 -5 -3 -6.3288 3.5090
-2 -5 -2 -9.3064 0.6439
-2 -5 -1 -23.4082 -33.3613
-2 -4 -44 -7.8707 -6.4422
-2 -4 -43 -1.9039 3.1229
-2 -4 -42 -0.4589 0.3752
-2 -4 -41 -2.4175 4.7372
-2 -4 -40 6.0386 0.0793
-2 -4 -39 -4.3970 5.1252
-2 -4 -38 0.5644 1.7363
-2 -4 -37 -0.0246 -3.9350
-2 -4 -36 -5.0620 -3.0592
-2 -4 -35 3.0274 -0.7024
-2 -4 -34 -0.0107 9.8830
-2 -4 -33 -5.2697 -3.3809
-2 -4 -32 4.4893 0.7084
-2 -4 -31 3.7446 -1.9783
-2 -4 -30 -9.4852 2.0186
-2 -4 -29 -10.0908 -6.2673
-2 -4 -28 6.0238 -1.7274
-2 -4 -27 0.9919 -5.5550
-2 -4 -26 0.0449 -2.4817
-2 -4 -25 -3.3958 5.6850
-2 -4 -24 9.2110 14.3374
-2 -4 -23 2.0395 -1.0804
-2 -4 -22 3.1903 -3.3101
-2 -4 -21 -14.2104 -0.3852
-2 -4 -20 9.4975 15.2961
-2 -4 -19 -7.9023 -3.3485
-2 -4 -18 11.7963 7.9960
-2 -4 -17 16.7138 -0.0238
-2 -4 -16 -1.5139 1.2731
-2 -4 -15 -3.4685 -9.6166
-2 -4 -14 1.5002 1.5563
-2 -4 -13 -1.6253 -7.3872
-2 -4 -12 -9.9368 -30.3227
-2 -4 -11 8.0493 4.6539
-2 -4 -10 14.4299 7.2180
-2 -4 -9 10.5290 0.2210
-2 -4 -8 -0.1980 25.9566
-2 -4 -7 -29.4420 4.2943
-2 -4 -6 3.8675 -8.9813
-2 -4 -5 10.9391 5.8996
-2 -4 -4 0.0040 -22.6477
-2 -4 -3 6.7068 -5.6731
-2 -4 -2 16.1513 4.9086
-2 -4 -1 26.5285 -1.7036
-2 -3 -45 -2.6632 -3.4136
-2 -3 -44 -1.9648 1.6382
-2 -3 -43 1.5705 -0.6708
-2 -3 -42 -7.3856 8.5056
-2 -3 -41 -1.9051 0.2345
-2 -3 -40 1.8812 -0.6734
-2 -3 -39 -0.1525 1.8987
-2 -3 -38 -4.3282 -2.3469
-2 -3 -37 -3.9459 3.3494
-2 -3 -36 -1.0130 -4.9166
-2 -3 -35 -2.6542 2.2513
-2 -3 -34 2.7355 6.0660
-2 -3 -33 4.2585 -6.1434
-2 -3 -32 2.9296 -9.5318
-2 -3 -31 -0.9617 -1.7751
-2 -3 -30 5.7184 -5.1142
-2 -3 -29 4.7363 1.1696
-2 -3 -28 3.9302 3.3329
-2 -3 -27 -14.6024 7.0925
-2 -3 -26 3.2911 -7.4907
-2 -3 -25 -3.0742 8.1350
-2 -3 -24 -0.1349 1.3668
-2 -3 -23 -9.7322 -7.1409
-2 -3 -22 -3.7779 -11.0703
-2 -3 -21 -15.2295 9.4620
-2 -3 -20 -0.2028 11.1677
-2 -3 -19 3.6075 20.6435
-2 -3 -18 6.0741 -24.7738
-2 -3 -17 -3.3870 11.3282
-2 -3 -16 15.4896 4.2454
-2 -3 -15 17.8379 -9.4563
-2 -3 -14 9.8198 -1.3490
-2 -3 -13 0.5206 12.6014
-2 -3 -12 2.2056 20.8293
-2 -3 -11 -12.6035 17.3972
-2 -3 -10 -16.1295 -17.6640
-2 -3 -9 0.7521 -13.2121
-2 -3 -8 -1.9411 9.5113
-2 -3 -7 -10.1560 7.4637
-2 -3 -6 24.2479 -6.0897
-2 -3 -5 -16.7029 26.6945
-2 -3 -4 5.3076 7.8572
-2 -3 -3 16.5870 -2.8641
-2 -3 -2 -6.1796 -18.5925
-2 -3 -1 28.6604 -21.9907
-2 -2 -45 -9.7427 -2.6555
-2 -2 -44 -3.7482 -5.1931
-2 -2 -43 -7.5985 1.0037
-2 -2 -42 -4.0237 2.1601
-2 -2 -41 -1.5882 -3.3898
-2 -2 -40 4.9209 -4.5350
-2 -2 -39 -3.7819 -0.1080
-2 -2 -38 -0.7819 -6.2606
-2 -2 -37 -0.1703 6.7755
-2 -2 -36 0.3223 7.7771
-2 -2 -35 3.1604 5.7821
-2 -2 -34 3.0927 -2.4274
-2 -2 -33 10.5784 3.9292
-2 -2 -32 6.3974 4.2888
-2 -2 -31 -7.2483 -1.5052
-2 -2 -30 -9.0035 4.0959
-2 -2 -29 6.7841 -5.1791
-2 -2 -28 -5.7403 2.2509
-2 -2 -27 -5.0247 -0.4457
-2 -2 -26 -0.5712 -6.5647
-2 -2 -25 17.1320 1.3047
-2 -2 -24 -3.9261 -25.8176
-2 -2 -23 -0.2636 -2.4138
-2 -2 -22 -11.4935 -0.2046
-2 -2 -21 -4.8585 7.3135
-2 -2 -20 8.6543 -3.2373
-2 -2 -19 3.2981 12.0864
-2 -2 -18 -0.9762 8.5746
-2 -2 -17 13.9392 9.9384
-2 -2 -16 -28.2402 8.2638
-2 -2 -15 6.0020 2.3316
-2 -2 -14 -17.9245 -8.4109
-2 -2 -13 -23.4877 -11.8945
-2 -2 -12 5.0522 -1.0719
-2 -2 -11 15.5553 -11.6376
-2 -2 -10 -6.2099 -9.2943
-2 -2 -9 -8.7386 4.5320
-2 -2 -8 -38.4301 -13.2488
-2 -2 -7 8.9373 -1.5212
-2 -2 -6 11.8557 0.6232
-2 -2 -5 -7.7953 30.6626
-2 -2 -4 -2.4101 -7.7994
-2 -2 -3 48.5304 50.9846
-2 -2 -2 7.3226 -11.7040
-2 -2 -1 -23.0432 -7.8239
-2 -1 -45 -2.0009 -5.0020
-2 -1 -44 0.9328 -9.6332
-2 -1 -43 0.6959 7.3810
-2 -1 -42 0.7404 -1.1175
-2 -1 -41 2.5949 -1.1664
-2 -1 -40 -1.9057 2.7406
-2 -1 -39 -10.9224 0.8617
-2 -1 -38 -14.2156 -2.4201
-2 -1 -37 1.1511 5.8059
-2 -1 -36 -8.1600 3.7013
-2 -1 -35 4.3355 10.2923
-2 -1 -34 -1.1135 0.2642
-2 -1 -33 1.0968 -1.5174
-2 -1 -32 -3.6733 -3.7635
-2 -1 -31 3.4114 -3.9102
-2 -1 -30 3.0671 -5.1055
-2 -1 -29 -6.6866 -0.6184
-2 -1 -28 9.1882 7.2348
-2 -1 -27 2.4727 -5.0648
-2 -1 -26 18.7876 10.4368
-2 -1 -25 -0.2561 1.1970
-2 -1 -24 -4.0993 -6.9085
-2 -1 -23 2.9638 -12.3811
-2 -1 -22 -15.5677 17.9440
-2 -1 -21 2.5008 7.8660
-2 -1 -20 -4.7429 3.2236
-2 -1 -19 -7.5193 -4.6356
-2 -1 -18 -5.1366 -9.9989
-2 -1 -17 10.3812 10.3278
-2 -1 -16 8.5617 -19.3832
-2 -1 -15 6.4771 -35.5105
-2 -1 -14 10.4408 31.3399
-2 -1 -13 7.9474 -2.3743
-2 -1 -12 6.6862 -9.8580
-2 -1 -11 7.4617 -26.2858
-2 -1 -10 15.0761 -17.3094
-2 -1 -9 -4.1901 5.9033
-2 -1 -8 -5.1203 8.6564
-2 -1 -7 -13.6841 -22.9001
-2 -1 -6 -37.6979 40.5595
-2 -1 -5 -0.5163 9.5954
-2 -1 -4 -17.1084 -5.0723
-2 -1 -3 28.3686 -15.1858
-2 -1 -2 -32.3543 4.8182
-2 -1 -1 28.6036 0.0289
-1 -18 -5 5.9112 -3.9109
-1 -18 -4 5.7626 0.1952
-1 -18 -3 -7.4479 -0.4782
-1 -18 -2 -4.9841 4.1242
-1 -18 -1 9.4302 -1.1605
-1 -17 -15 2.3730 10.9630
-1 -17 -14 -7.6730 0.2564
-1 -17 -13 1.3919 2.9872
-1 -17 -12 -10.4293 -0.4862
-1 -17 -11 -10.8853 -0.5846
-1 -17 -10 2.6716 2.2082
-1 -17 -9 -3.5613 -3.9321
-1 -17 -8 -5.5818 5.0472
-1 -17 -7 13.0301 6.8902
-1 -17 -6 8.2875 0.7072
-1 -17 -5 -4.6200 -15.2698
-1 -17 -4 13.5931 12.0436
-1 -17 -3 0.9417 -1.2016
-1 -17 -2 -5.5636 -6.7115
-1 -17 -1 0.3107 9.1834
-1 -16 -21 -7.9802 4.9538
-1 -16 -20 -1.3363 -3.8999
-1 -16 -19 8.0034 -8.8271
-1 -16 -18 -8.6229 -5.0301
-1 -16 -17 -5.4707 -9.4849
-1 -16 -16 9.8269 -1.3452
-1 -16 -15 -7.5576 4.9510
-1 -16 -14 -2.1863 -11.3912
-1 -16 -13 8.1780 -12.5957
-1 -16 -12 -4.5124 0.4213
-1 -16 -11 -5.1847 -7.1351
-1 -16 -10 -10.5130 5.5482
-1 -16 -9 -2.0830 12.2053
-1 -16 -8 5.4130 2.1782
-1 -16 -7 -6.7941 13.3225
-1 -16 -6 2.0403 9.1107
-1 -16 -5 3.6070 -5.4566
-1 -16 -4 -1.1221 2.2769
-1 -16 -3 -6.8306 13.7340
-1 -16 -2 10.6105 -9.5982
-1 -16 -1 -2.1260 -0.1314
-1 -15 -25 8.6579 -8.2857
-1 -15 -24 6.2785 -2.2030
-1 -15 -23 -0.2416 -1.9390
-1 -15 -22 -0.8298 6.3778
-1 -15 -21 3.3984 -6.6723
-1 -15 -20 6.2487 0.5687
-1 -15 -19 7.0697 5.8394
-1 -15 -18 -6.9442 -0.5103
-1 -15 -17 -4.4614 -8.5510
-1 -15 -16 15.2897 15.8730
-1 -15 -15 -0.5932 3.5954
-1 -15 -14 2.8940 -17.4543
-1 -15 -13 10.1552 0.1414
-1 -15 -12 -11.2163 -10.6303
-1 -15 -11 -5.5123 -9.4975
-1 -15 -10 -3.7339 2.7180
-1 -15 -9 -7.5393 -4.0950
-1 -15 -8 4.1852 0.9860
-1 -15 -7 3.1811 -4.8381
-1 -15 -6 -17.8254 -2.0051
-1 -15 -5 2.9567 8.4193
-1 -15 -4 4.3847 -3.5640
-1 -15 -3 -11.9493 -3.9794
-1 -15 -2 -2.8846 6.7208
-1 -15 -1 8.3095 9.3212
-1 -14 -29 2.5184 -2.8165
-1 -14 -28 7.4475 10.0036
-1 -14 -27 4.2852 2.6786
-1 -14 -26 -3.0074 8.1356
-1 -14 -25 1.3037 -2.2201
-1 -14 -24 4.7190 -1.2913
-1 -14 -23 -5.5485 -3.5850
-1 -14 -22 -2.4779 1.3519
-1 -14 -21 -0.5019 2.9530
-1 -14 -20 5.3177 -7.1770
-1 -14 -19 -14.6491 0.3864
-1 -14 -18 -4.2981 -6.5015
-1 -14 -17 1.1025 3.5322
-1 -14 -16 3.8630 2.8985
-1 -14 -15 0.0990 4.2882
-1 -14 -14 24.5477 -16.2255
-1 -14 -13 0.0897 11.7675
-1 -14 -12 -9.7698 1.4109
-1 -14 -11 16.1604 -8.0001
-1 -14 -10 3.4865 15.4325
-1 -14 -9 -3.4906 -4.9232
-1 -14 -8 5.3384 -7.2709
-1 -14 -7 -6.3151 0.2126
-1 -14 -6 5.4035 -2.7970
-1 -14 -5 -3.6794 0.3151
-1 -14 -4 -5.6366 7.8322
-1 -14 -3 -5.0008 -12.8877
-1 -14 -2 -2.6682 -4.3819
-1 -14 -1 3.5169 17.7205
-1 -13 -32 -0.0785 -1.2365
-1 -13 -31 -10.6857 3.7901
-1 -13 -30 8.7499 8.8008
-1 -13 -29 -17.6819 -13.4764
-1 -13 -28 4.4892 11.2121
-1 -13 -27 -5.6187 -1.6498
-1 -13 -26 13.5249 -3.6520
-1 -13 -25 1.5909 -1.9338
-1 -13 -24 1.0609 3.4680
-1 -13 -23 -3.8583 -4.7429
-1 -13 -22 8.8399 -4.4312
-1 -13 -21 8.8950 -3.2299
-1 -13 -20 1.2123 -7.1800
-1 -13 -19 6.0112 -8.5878
-1 -13 -18 -0.9923 -1.7524
-1 -13 -17 11.0271 16.3785
-1 -13 -16 -15.1649 1.9780
-1 -13 -15 -0.4368 -4.0696
-1 -13 -14 -0.4301 3.6819
-1 -13 -13 2.7667 13.8516
-1 -13 -12 -19.5547 -11.1461
-1 -13 -11 16.4650 10.4027
-1 -13 -10 5.9193 2.7168
-1 -13 -9 -8.8746 -16.0348
-1 -13 -8 3.6943 4.9340
-1 -13 -7 -8.4581 8.4352
-1 -13 -6 5.2653 -17.6021
-1 -13 -5 14.6938 2.6719
-1 -13 -4 -2.4080 -0.7783
-1 -13 -3 1.1862 12.3105
-1 -13 -2 7.3388 6.1251
-1 -13 -1 1.7523 -1.0001
-1 -12 -34 2.4706 -4.9962
-1 -12 -33 -7.1034 6.8026
-1 -12 -32 6.8781 -5.7276
-1 -12 -31 -2.5394 -8.2640
-1 -12 -30 1.2810 0.1997
-1 -12 -29 4.0109 10.3284
-1 -12 -28 4.0946 -4.1096
-1 -12 -27 -10.9860 14.8870
-1 -12 -26 14.8572 -14.5521
-1 -12 -25 -2.3038 10.3054
-1 -12 -24 -3.7624 2.8730
-1 -12 -23 10.2441 4.9500
-1 -12 -22 14.0515 7.2849
-1 -12 -21 0.5441 11.5583
-1 -12 -20 3.0059 -0.8813
-1 -12 -19 -1.1109 -5.0269
-1 -12 -18 0.0672 -3.0103
-1 -12 -17 -3.8498 -4.5573
-1 -12 -16 0.0021 3.2561
-1 -12 -15 1.9218 -8.5142
-1 -12 -14 -6.2318 15.0954
-1 -12 -13 -4.7510 1.0503
-1 -12 -12 15.4402 -3.5417
-1 -12 -11 9.6960 -4.3175
-1 -12 -10 -18.6464 11.2383
-1 -12 -9 13.7458 -14.8009
-1 -12 -8 4.7785 9.9047
-1 -12 -7 -13.1986 19.0285
-1 -12 -6 0.5373 1.5579
-1 -12 -5 -5.7817 -4.7738
-1 -12 -4 -20.5652 -3.5853
-1 -12 -3 15.5609 0.0792
-1 -12 -2 5.1769 7.4906
-1 -12 -1 2.8880 -5.9850
-1 -11 -36 -3.5285 -0.6768
-1 -11 -35 -0.7226 -2.8267
-1 -11 -34 8.7721 -3.4709
-1 -11 -33 1.0418 9.6697
-1 -11 -32 -5.7346 -0.8836
-1 -11 -31 3.5158 6.1426
-1 -11 -30 -6.2695 -5.0938
-1 -11 -29 -2.8049 7.6580
-1 -11 -28 7.6426 2.6288
-1 -11 -27 -1.7873 -7.5890
-1 -11 -26 -7.1695 4.2782
-1 -11 -25 2.2329 14.1723
-1 -11 -24 -20.6540 -2.7123
-1 -11 -23 6.6162 8.9778
-1 -11 -22 2.6668 11.8435
-1 -11 -21 -4.5972 -10.4755
-1 -11 -20 7.6196 -2.3634
-1 -11 -19 10.8258 10.0360
-1 -11 -18 -11.4697 -6.6583
-1 -11 -17 -8.0101 -1.6748
-1 -11 -16 -5.1515 -0.7113
-1 -11 -15 8.1454 10.0966
-1 -11 -14 2.1810 5.9883
-1 -11 -13 -8.6540 0.6490
-1 -11 -12 9.9615 0.9093
-1 -11 -11 -1.5570 7.8760
-1 -11 -10 -17.9636 -13.3160
-1 -11 -9 -9.8543 -1.6565
-1 -11 -8 15.8625 5.5020
-1 -11 -7 -1.2595 -29.2368
-1 -11 -6 11.0244 0.0583
-1 -11 -5 4.4511 21.0006
-1 -11 -4 1.0203 -9.3066
-1 -11 -3 -7.6195 -0.9755
-1 -11 -2 -2.3446 5.7374
-1 -11 -1 -0.4568 -5.9188
-1 -10 -38 8.7740 -0.8823
-1 -10 -37 4.2499 2.7498
-1 -10 -36 -5.0283 8.1820
-1 -10 -35 0.3972 -2.3490
-1 -10 -34 -1.6491 3.2648
-1 -10 -33 -4.4824 -0.3164
-1 -10 -32 -4.9898 -6.7243
-1 -10 -31 4.2614 5.0724
-1 -10 -30 -5.0354 7.0702
-1 -10 -29 3.9292 -5.5628
-1 -10 -28 -5.4391 -0.9556
-1 -10 -27 -0.5543 -5.3323
-1 -10 -26 -5.3644 -8.3362
-1 -10 -25 -13.2910 9.7440
-1 -10 -24 9.0825 -3.6862
-1 -10 -23 6.4717 -4.3301
-1 -10 -22 -8.8598 18.6449
-1 -10 -21 2.8225 -9.2533
-1 -10 -20 11.7726 -11.8075
-1 -10 -19 -15.2097 0.8185
-1 -10 -18 -1.9721 -0.1181
-1 -10 -17 3.3142 -1.0304
-1 -10 -16 -15.0207 15.5393
-1 -10 -15 0.3577 -4.6445
-1 -10 -14 -0.7763 2.4145
-1 -10 -13 0.7977 -14.6869
-1 -10 -12 -2.2490 0.0263
-1 -10 -11 1.5255 9.7788
-1 -10 -10 12.7465 2.3579
-1 -10 -9 15.0837 10.9050
-1 -10 -8 -18.8065 18.0529
-1 -10 -7 1.1475 3.3756
-1 -10 -6 8.6473 -15.0861
-1 -10 -5 -10.6787 9.1702
-1 -10 -4 11.5463 -2.2090
-1 -10 -3 7.5622 -3.9102
-1 -10 -2 -30.3262 2.0853
-1 -10 -1 8.1093 18.4521
-1 -9 -39 -8.0777 2.4337
-1 -9 -38 -9.1334 1.9795
-1 -9 -37 -0.7926 4.1250
-1 -9 -36 -1.4570 -7.5251
-1 -9 -35 1.3505 -3.9732
-1 -9 -34 2.7315 6.4667
-1 -9 -33 -8.9049 -7.1605
-1 -9 -32 0.8364 -1.3557
-1 -9 -31 2.7882 7.2236
-1 -9 -30 -1.2847 -2.7154
-1 -9 -29 7.3660 -10.2381
-1 -9 -28 2.6561 0.2066
-1 -9 -27 -6.1324 0.4153
-1 -9 -26 4.2140 7.7584
-1 -9 -25 -2.6292 0.6689
-1 -9 -24 -1.6105 2.9114
-1 -9 -23 11.5688 7.8783
-1 -9 -22 0.1132 -10.4476
-1 -9 -21 0.3285 -5.2078
-1 -9 -20 11.5840 5.0171
-1 -9 -19 -19.6903 -10.9871
-1 -9 -18 -9.9116 -9.8956
-1 -9 -17 8.6704 14.5953
-1 -9 -16 6.2272 -12.4415
-1 -9 -15 -5.2385 -14.0741
-1 -9 -14 1.9071 6.5132
-1 -9 -13 -17.5216 0.8951
-1 -9 -12 -6.7680 8.8081
-1 -9 -11 -21.2864 1.5952
-1 -9 -10 -1.2000 -6.8116
-1 -9 -9 7.0559 -4.5807
-1 -9 -8 -5.4859 -1.2488
-1 -9 -7 -5.2191 5.4993
-1 -9 -6 8.1772 19.0677
-1 -9 -5 3.1246 -19.6763
-1 -9 -4 -18.8482 -8.2158
-1 -9 -3 0.1897 17.7195
-1 -9 -2 0.9488 4.5917
-1 -9 -1 2.4438 2.3719
-1 -8 -41 -3.5305 -9.3872
-1 -8 -40 -4.2067 -7.9129
-1 -8 -39 0.2039 -2.0299
-1 -8 -38 2.2948 0.3270
-1 -8 -37 -1.5717 2.7797
-1 -8 -36 3.1664 0.7072
-1 -8 -35 1.7136 -6.7775
-1 -8 -34 -9.0524 1.3288
-1 -8 -33 -2.3081 -2.3690
-1 -8 -32 13.6166 2.4988
-1 -8 -31 -1.6335 7.7396
-1 -8 -30 -2.1803 0.5281
-1 -8 -29 4.6272 -4.8863
-1 -8 -28 -13.7122 5.2987
-1 -8 -27 -7.1761 -0.2945
-1 -8 -26 2.5498 3.2353
-1 -8 -25 2.3037 6.9430
-1 -8 -24 3.8526 -0.8638
-1 -8 -23 -0.2781 10.5942
-1 -8 -22 9.8586 -3.8177
-1 -8 -21 3.4611 -11.8481
-1 -8 -20 -9.1351 -1.8772
-1 -8 -19 2.6518 6.6492
-1 -8 -18 21.6374 -4.7527
-1 -8 -17 1.9855 9.1830
-1 -8 -16 4.3696 -11.4699
-1 -8 -15 8.4355 -22.0783
-1 -8 -14 -21.1135 -8.6651
-1 -8 -13 3.8506 -3.0834
-1 -8 -12 19.8706 -4.5634
-1 -8 -11 2.5105 5.4799
-1 -8 -10 -5.6698 -6.9596
-1 -8 -9 -11.0270 3.0304
-1 -8 -8 -0.4022 -6.9314
-1 -8 -7 6.6067 -2.9430
-1 -8 -6 -0.4280 2.6222
-1 -8 -5 -11.7585 2.3429
-1 -8 -4 -5.6731 -13.4382
-1 -8 -3 -27.3900 0.0431
-1 -8 -2 1.9805 15.8894
-1 -8 -1 4.5186 -17.7595
-1 -7 -42 12.7648 0.9717
-1 -7 -41 -3.2637 -7.5815
-1 -7 -40 -2.4477 7.4274
-1 -7 -39 -6.3478 1.1293
-1 -7 -38 0.2246 -1.0105
-1 -7 -37 5.4620 -7.0188
-1 -7 -36 5.1858 -6.0342
-1 -7 -35 -0.3003 3.0196
-1 -7 -34 -2.0844 1.1092
-1 -7 -33 -7.8951 4.4733
-1 -7 -32 2.6984 5.7392
-1 -7 -31 -5.1434 -7.7128
-1 -7 -30 2.4153 -16.0300
-1 -7 -29 0.6022 5.8613
-1 -7 -28 -2.1852 6.1948
-1 -7 -27 -8.0589 -7.4871
-1 -7 -26 3.2705 13.7554
-1 -7 -25 -8.9630 3.4315
-1 -7 -24 1.5479 -0.4776
-1 -7 -23 7.4155 -3.4709
-1 -7 -22 0.8065 -4.0594
-1 -7 -21 3.3542 8.5416
-1 -7 -20 -9.4662 4.7835
-1 -7 -19 0.8170 17.9004
-1 -7 -18 14.9064 9.2642
-1 -7 -17 12.3098 -13.1899
-1 -7 -16 -0.9051 -13.5308
-1 -7 -15 10.5700 21.5023
-1 -7 -14 -3.0858 10.2364
-1 -7 -13 -10.5325 -4.8541
-1 -7 -12 11.2380 10.2829
-1 -7 -11 7.5943 -19.2382
-1 -7 -10 4.8226 -3.7369
-1 -7 -9 0.6784 11.7353
-1 -7 -8 -10.2257 0.0006
-1 -7 -7 11.0243 -10.9339
-1 -7 -6 2.6402 -22.9486
-1 -7 -5 5.2313 -5.6448
-1 -7 -4 5.0841 -8.8325
-1 -7 -3 28.5212 -7.2947
-1 -7 -2 1.7267 -18.7615
-1 -7 -1 -7.0025 9.8649
-1 -6 -43 -3.8723 -0.3865
-1 -6 -42 -3.1099 -9.2374
-1 -6 -41 -2.9440 -3.1900
-1 -6 -40 6.1204 -5.7876
-1 -6 -39 0.6541 11.4134
-1 -6 -38 12.7988 2.2687
-1 -6 -37 0.4438 3.7425
-1 -6 -36 -4.6673 -4.7930
-1 -6 -35 -7.9703 -7.3382
-1 -6 -34 3.2005 -4.7531
-1 -6 -33 10.4210 1.4588
-1 -6 -32 0.1928 4.0269
-1 -6 -31 -1.8679 2.8392
-1 -6 -30 0.6551 -4.7757
-1 -6 -29 -9.0866 6.6946
-1 -6 -28 -10.9563 -5.4893
-1 -6 -27 5.8671 -6.4954
-1 -6 -26 0.1652 2.0062
-1 -6 -25 -4.6248 11.1778
-1 -6 -24 15.7835 -4.3978
-1 -6 -23 -5.3755 8.8642
-1 -6 -22 -16.0341 -7.6580
-1 -6 -21 -9.1338 3.6191
-1 -6 -20 4.2399 7.1226
-1 -6 -19 15.3222 5.9601
-1 -6 -18 -3.4623 5.3757
-1 -6 -17 -3.8323 -0.9623
-1 -6 -16 -8.8251 -9.7633
-1 -6 -15 -15.1913 4.8925
-1 -6 -14 11.0088 9.6019
-1 -6 -13 18.2693 -1.7653
-1 -6 -12 -8.7709 7.1158
-1 -6 -11 -17.2534 10.1310
-1 -6 -10 15.0304 -16.6745
-1 -6 -9 -2.9623 -0.2727
-1 -6 -8 13.4376 9.7516
-1 -6 -7 13.9534 15.3177
-1 -6 -6 8.2129 26.0941
-1 -6 -5 17.1225 0.3276
-1 -6 -4 0.2105 14.3528
-1 -6 -3 15.6204 -3.2633
-1 -6 -2 -12.4295 -7.9806
-1 -6 -1 6.8435 -28.7778
-1 -5 -44 8.3556 -3.6154
-1 -5 -43 7.0896 -2.7117
-1 -5 -42 -1.7753 -0.7740
-1 -5 -41 -2.0584 10.3552
-1 -5 -40 -8.6157 4.8502
-1 -5 -39 3.1455 0.2875
-1 -5 -38 5.6924 -4.4223
-1 -5 -37 14.1652 2.2486
-1 -5 -36 -2.0545 -3.2884
-1 -5 -35 3.0328 8.9019
-1 -5 -34 -5.0422 1.1879
-1 -5 -33 -4.9002 0.5208
-1 -5 -32 -3.4025 -8.5353
-1 -5 -31 -2.4653 -7.7288
-1 -5 -30 6.1518 0.8621
-1 -5 -29 -0.8121 -2.9732
-1 -5 -28 -5.5054 -6.2045
-1 -5 -27 1.5549 10.5511
-1 -5 -26 -10.1507 7.6012
-1 -5 -25 -6.5571 -14.8378
-1 -5 -24 6.8227 -4.4650
-1 -5 -23 3.1518 1.6563
-1 -5 -22 -17.9639 0.9414
-1 -5 -21 5.1981 15.5578
-1 -5 -20 -6.1997 10.3825
-1 -5 -19 11.3666 -12.1888
-1 -5 -18 -8.9220 -14.0155
-1 -5 -17 -2.0357 3.4862
-1 -5 -16 1.2891 15.1554
-1 -5 -15 -0.5749 1.5332
-1 -5 -14 -16.2560 -10.2654
-1 -5 -13 7.7854 4.8803
-1 -5 -12 16.7219 -18.3383
-1 -5 -11 -0.5394 4.5814
-1 -5 -10 -14.1359 9.1043
-1 -5 -9 -13.8312 12.2756
-1 -5 -8 -24.4455 0.0155
-1 -5 -7 -0.3611 20.5398
-1 -5 -6 -7.5623 6.5509
-1 -5 -5 3.0548 -6.8520
-1 -5 -4 30.4198 -3.8511
-1 -5 -3 -8.7078 -3.4326
-1 -5 -2 -9.3082 28.5714
-1 -5 -1 -23.4161 -2.1624
-1 -4 -44 -3.8913 -4.4645
-1 -4 -43 -2.7302 1.7185
-1 -4 -42 -1.3083 -4.7654
-1 -4 -41 -0.2569 7.3561
-1 -4 -40 -2.3005 12.0898
-1 -4 -39 7.1242 4.9567
-1 -4 -38 -4.7037 10.0267
-1 -4 -37 -6.4339 -0.9359
-1 -4 -36 1.5518 -5.8770
-1 -4 -35 5.7647 -6.8372
-1 -4 -34 -2.9177 5.7334
-1 -4 -33 9.3609 -6.3470
-1 -4 -32 0.0518 -0.2188
-1 -4 -31 5.8000 1.4981
-1 -4 -30 -1.2217 -0.6443
-1 -4 -29 -4.8423 -5.8085
-1 -4 -28 5.9437 -13.0238
-1 -4 -27 3.7146 6.2161
-1 -4 -26 2.3052 5.5336
-1 -4 -25 6.6577 -7.8942
-1 -4 -24 -11.3988 -3.7746
-1 -4 -23 -22.2563 0.6081
-1 -4 -22 6.5099 -3.3079
-1 -4 -21 9.5355 -1.4186
-1 -4 -20 -0.3320 2.5592
-1 -4 -19 -6.1465 -12.1956
-1 -4 -18 -5.2842 6.6393
-1 -4 -17 -9.3087 -13.4565
-1 -4 -16 -1.3410 13.4391
-1 -4 -15 19.6734 0.2574
-1 -4 -14 2.5977 4.2764
-1 -4 -13 -3.8332 5.2640
-1 -4 -12 -3.7538 2.5055
-1 -4 -11 4.7716 -29.2869
-1 -4 -10 -27.4873 -20.1304
-1 -4 -9 2.2711 6.4951
-1 -4 -8 -4.9363 16.5969
-1 -4 -7 11.7013 -1.1534
-1 -4 -6 7.0941 8.6314
-1 -4 -5 -0.6996 -9.6444
-1 -4 -4 -7.0989 16.1536
-1 -4 -3 -15.3671 -17.3952
-1 -4 -2 -1.6031 -31.7846
-1 -4 -1 -7.1140 29.7976
-1 -3 -45 0.5110 -1.0520
-1 -3 -44 -4.3530 -0.1725
-1 -3 -43 -5.9993 -0.0271
-1 -3 -42 -10.5703 3.9620
-1 -3 -41 -5.9498 1.0009
-1 -3 -40 -10.0295 -3.6170
-1 -3 -39 5.4169 0.9869
-1 -3 -38 3.1910 7.0666
-1 -3 -37 -4.7242 -7.2976
-1 -3 -36 2.7343 7.0275
-1 -3 -35 1.9333 4.7204
-1 -3 -34 -3.3864 -0.5677
-1 -3 -33 -1.9636 1.8285
-1 -3 -32 9.8092 8.1579
-1 -3 -31 2.7894 -6.7674
-1 -3 -30 0.3528 4.6729
-1 -3 -29 -0.6671 5.5702
-1 -3 -28 -2.9023 5.3604
-1 -3 -27 -3.5654 2.5212
-1 -3 -26 1.8958 -19.0323
-1 -3 -25 14.1637 0.1096
-1 -3 -24 0.0248 3.8699
-1 -3 -23 -4.5674 1.5076
-1 -3 -22 5.4042 7.1903
-1 -3 -21 13.4895 -5.4777
-1 -3 -20 -1.8851 -16.4983
-1 -3 -19 -7.9914 -4.8615
-1 -3 -18 -3.7973 10.9429
-1 -3 -17 4.7226 4.0378
-1 -3 -16 3.3152 -5.1723
-1 -3 -15 -26.4974 1.0935
-1 -3 -14 24.3034 1.5116
-1 -3 -13 23.2281 -26.3350
-1 -3 -12 4.2925 -3.5434
-1 -3 -11 -14.4590 -4.1323
-1 -3 -10 -7.7520 -5.7359
-1 -3 -9 -1.8403 16.2867
-1 -3 -8 7.2026 18.3283
-1 -3 -7 -8.0094 -9.1943
-1 -3 -6 0.0852 7.4413
-1 -3 -5 2.0362 -6.7798
-1 -3 -4 4.1539 5.9611
-1 -3 -3 -42.2377 5.5480
-1 -3 -2 33.3086 -9.1952
-1 -3 -1 14.8246 3.7054
-1 -2 -45 -2.0820 -4.8670
-1 -2 -44 -2.9362 -6.0524
-1 -2 -43 -1.1364 -3.7656
-1 -2 -42 -2.4652 -1.6823
-1 -2 -41 -4.9226 0.7593
-1 -2 -40 -2.3967 0.9189
-1 -2 -39 0.7310 -0.5359
-1 -2 -38 -6.8849 0.3717
-1 -2 -37 0.6699 -8.8303
-1 -2 -36 1.0044 0.3896
-1 -2 -35 -15.6514 5.7172
-1 -2 -34 7.7722 1.8290
-1 -2 -33 -0.1683 -1.2631
-1 -2 -32 -1.6394 5.5050
-1 -2 -31 -4.8815 -0.6997
-1 -2 -30 0.7022 -14.4424
-1 -2 -29 -0.9098 -3.4604
-1 -2 -28 3.7440 16.5575
-1 -2 -27 4.4102 5.1600
-1 -2 -26 -8.9099 0.4759
-1 -2 -25 -3.3618 4.0005
-1 -2 -24 -13.2240 5.6394
-1 -2 -23 19.5735 1.1769
-1 -2 -22 1.3489 -1.3796
-1 -2 -21 -8.0836 -8.7489
-1 -2 -20 2.5084 1.2560
-1 -2 -19 -8.7538 -2.6970
-1 -2 -18 8.3531 2.6236
-1 -2 -17 3.2532 0.5174
-1 -2 -16 22.8836 14.9651
-1 -2 -15 12.2705 5.6449
-1 -2 -14 10.8162 4.9432
-1 -2 -13 17.1027 13.0920
-1 -2 -12 -1.2257 -30.4951
-1 -2 -11 -25.5877 -0.1676
-1 -2 -10 1.1489 28.0417
-1 -2 -9 -0.9110 2.5067
-1 -2 -8 -24.5363 -18.7438
-1 -2 -7 14.4814 -21.9930
-1 -2 -6 -28.0203 -9.5312
-1 -2 -5 -14.6247 6.7868
-1 -2 -4 3.7289 -9.3843
-1 -2 -3 -20.0207 6.5829
-1 -2 -2 12.6960 22.5202
-1 -2 -1 -9.7317 34.8922
-1 -1 -46 1.9987 -2.2171
-1 -1 -45 -0.0170 -4.3505
-1 -1 -44 -1.7759 -4.1107
-1 -1 -43 -0.8839 -5.8496
-1 -1 -42 -4.2835 -3.2113
-1 -1 -41 0.6546 -4.4778
-1 -1 -40 4.8905 0.5426
-1 -1 -39 4.4254 -1.0324
-1 -1 -38 -0.6772 -5.6307
-1 -1 -37 -0.8756 -8.2460
-1 -1 -36 -1.0321 7.9061
-1 -1 -35 -5.2678 -1.2239
-1 -1 -34 -1.4121 1.6502
-1 -1 -33 8.5127 10.1982
-1 -1 -32 8.6538 -12.1991
-1 -1 -31 -4.6053 5.4096
-1 -1 -30 -3.7075 -2.1634
-1 -1 -29 -7.2251 1.6075
-1 -1 -28 -12.6670 -7.4358
-1 -1 -27 -3.8307 -10.4035
-1 -1 -26 13.1264 7.0227
-1 -1 -25 -9.4793 -3.6930
-1 -1 -24 3.0340 0.3577
-1 -1 -23 12.3841 -11.6506
-1 -1 -22 8.2368 -3.8374
-1 -1 -21 -0.8797 -15.2573
-1 -1 -20 -11.9823 15.7498
-1 -1 -19 -2.3503 18.6823
-1 -1 -18 8.5390 6.3555
-1 -1 -17 -18.3833 27.7774
-1 -1 -16 -15.2390 5.6828
-1 -1 -15 7.2568 22.6451
-1 -1 -14 26.0046 -13.1089
-1 -1 -13 -26.1063 -2.1082
-1 -1 -12 -27.7136 3.2359
-1 -1 -11 17.2697 -18.6111
-1 -1 -10 15.0018 2.6237
-1 -1 -9 17.4247 -9.4998
-1 -1 -8 15.4020 -30.4263
-1 -1 -7 -7.7640 -26.5667
-1 -1 -6 17.3537 7.4331
-1 -1 -5 -25.5296 -42.1616
0 0 6 31.7659 12.2862
0 0 8 52.6959 8.9615
0 0 10 -45.9324 9.4601
0 0 12 9.6573 3.4757
0 0 14 -13.0604 -21.2109
0 0 16 -22.1658 -8.0651
0 0 18 -8.5886 1.0992
0 0 20 3.0321 0.4700
0 0 22 25.2870 8.3463
0 0 24 8.9570 8.3854
0 0 26 -1.8475 2.5440
0 0 28 -21.3702 -8.5178
0 0 30 17.8194 -3.9419
0 0 32 -2.5485 -1.9735
0 0 34 0.9775 -5.5049
0 0 36 -0.3834 4.0222
0 0 38 5.0546 7.4205
0 0 40 5.5376 0.5845
0 0 42 3.6863 -2.9988
0 0 44 5.4948 2.7382
0 0 46 5.9663 2.8912
0 1 6 7.7893 19.1946
0 1 7 -6.2173 -3.6422
0 1 8 -7.9949 -11.2798
0 1 9 -10.0225 2.0731
0 1 10 3.9144 -15.9607
0 1 11 11.8293 19.6605
0 1 12 11.7894 15.6420
0 1 13 0.1407 -44.5701
0 1 14 -0.5501 -31.7035
0 1 15 -10.1869 3.7588
0 1 16 -7.5863 -0.2484
0 1 17 17.3588 -16.4736
0 1 18 -2.9655 -1.1310
0 1 19 -4.2326 23.8163
0 1 20 5.1877 12.8685
0 1 21 -1.9602 7.1014
0 1 22 -7.4434 -7.6209
0 1 23 -2.9001 8.6285
0 1 24 1.8447 0.6770
0 1 25 0.0129 -10.0772
0 1 26 10.6940 -9.0687
0 1 27 -0.2327 8.7509
0 1 28 -1.5048 4.0211
0 1 29 -5.1912 -4.0992
0 1 30 -5.3675 5.5148
0 1 31 11.6208 -2.1703
0 1 32 -0.6225 -7.5532
0 1 33 -1.8598 9.6140
0 1 34 2.9253 -2.8467
0 1 35 -3.9780 1.5276
0 1 36 -5.1765 -9.0840
0 1 37 4.3456 0.4592
0 1 38 -0.1332 1.1305
0 1 39 -0.7132 -3.0495
0 1 40 6.4140 4.2192
0 1 41 -4.5172 7.5126
0 1 42 -0.8595 1.1692
0 1 43 -2.7087 5.0279
0 1 44 -3.4519 6.5362
0 1 45 6.1427 2.6334
0 1 46 1.1388 0.0190
0 2 3 39.3127 9.2497
0 2 4 -53.0639 1.7416
0 2 5 40.8960 -9.4227
0 2 6 -21.3660 -3.4946
0 2 7 8.9731 0.6226
0 2 8 -5.4616 -5.4987
0 2 9 -42.9000 10.8682
0 2 10 19.4707 14.5608
0 2 11 43.1420 -4.5681
0 2 12 5.1221 -12.5753
0 2 13 8.5343 -11.9336
0 2 14 10.1321 4.9511
0 2 15 -2.3913 11.3125
0 2 16 -11.2645 -4.4441
0 2 17 -0.6420 5.4047
0 2 18 -19.4633 2.6097
0 2 19 0.0281 -12.5390
0 2 20 -0.1731 2.9666
0 2 21 10.2097 2.6612
0 2 22 -5.7752 -7.7777
0 2 23 4.8050 9.3146
0 2 24 -7.2149 12.2787
0 2 25 4.2870 -4.7755
0 2 26 1.7037 -6.3425
0 2 27 -15.0378 -7.2879
0 2 28 5.0096 -2.3480
0 2 29 8.9678 7.4258
0 2 30 -8.7228 0.8105
0 2 31 -6.8217 3.6355
0 2 32 -0.2900 0.0745
0 2 33 11.2024 -10.3580
0 2 34 0.1683 3.5537
0 2 35 12.0563 2.7527
0 2 36 3.6252 -4.9973
0 2 37 9.5797 7.5893
0 2 38 -9.6932 4.2387
0 2 39 0.3399 -4.8695
0 2 40 0.7347 0.0652
0 2 41 -8.4245 -3.5827
0 2 42 0.4810 -3.3187
0 2 43 -4.2162 4.7801
0 2 44 -3.4247 0.5890
0 2 45 -1.3274 1.1853
0 3 1 -4.9956 -3.3570
0 3 2 6.1528 23.7705
0 3 3 3.4570 22.8629
0 3 4 -8.0712 -37.2904
0 3 5 15.6231 -15.9579
0 3 6 -0.5663 5.9701
0 3 7 -22.1925 -34.5742
0 3 8 -0.1392 19.4014
0 3 9 12.1096 13.6854
0 3 10 6.9956 18.3934
0 3 11 7.7408 27.7085
0 3 12 -1.3346 -25.3624
0 3 13 -13.2215 -11.5786
0 3 14 -2.7983 22.8380
0 3 15 -0.1618 -13.6205
0 3 16 8.5494 -17.6415
0 3 17 3.3559 -4.3030
0 3 18 -8.0884 21.8617
0 3 19 10.0438 -7.3198
0 3 20 -1.8621 6.9337
0 3 21 -17.8587 -15.9106
0 3 22 1.4131 8.2811
0 3 23 5.7728 -2.0976
0 3 24 1.0919 -5.9924
0 3 25 12.5750 -5.1225
0 3 26 1.2145 10.3538
0 3 27 -13.1987 -1.9933
0 3 28 -1.9815 -13.8607
0 3 29 -0.6890 6.3644
0 3 30 5.8129 -7.0263
0 3 31 4.8409 2.7946
0 3 32 -3.7917 14.1470
0 3 33 4.2297 6.6635
0 3 34 -3.0972 11.0691
0 3 35 -9.4645 -4.3161
0 3 36 3.4511 8.6682
0 3 37 1.0944 -4.9248
0 3 38 -1.7491 1.6160
0 3 39 9.3646 -2.2604
0 3 40 -0.7031 9.4638
0 3 41 -6.7968 -1.2006
0 3 42 0.5790 -3.6607
0 3 43 -1.8224 3.6040
0 3 44 2.5523 -5.2984
0 3 45 5.3172 -0.1233
0 4 0 -52.6208 1.4903
0 4 1 31.2919 -1.0625
0 4 2 20.6002 7.3209
0 4 3 3.8652 8.7953
0 4 4 6.7992 -14.9942
0 4 5 30.8566 -9.2570
0 4 6 -16.3074 8.3637
0 4 7 -10.4202 -1.1941
0 4 8 -22.5481 12.4593
0 4 9 -5.3767 14.2756
0 4 10 24.7798 -19.8530
0 4 11 -12.4126 -11.8750
0 4 12 -8.9445 6.8224
0 4 13 20.9615 0.5207
0 4 14 1.6678 3.7073
0 4 15 -6.5349 4.0617
0 4 16 6.6142 0.4307
0 4 17 -13.4095 2.9941
0 4 18 1.4610 -10.1246
0 4 19 1.7043 -5.6007
0 4 20 9.9147 3.6848
0 4 21 -9.2923 -3.7195
0 4 22 12.5978 13.1585
0 4 23 -11.0639 12.5875
0 4 24 7.7210 -15.8788
0 4 25 0.2249 -8.5027
0 4 26 -1.8361 3.3600
0 4 27 6.5908 -3.5949
0 4 28 6.7116 6.7894
0 4 29 -7.6451 7.4111
0 4 30 -14.0736 -3.3645
0 4 31 5.4355 -0.1205
0 4 32 -6.9132 -5.4409
0 4 33 -3.5229 -3.0740
0 4 34 0.0934 2.3330
0 4 35 0.3069 -2.4539
0 4 36 0.6148 7.8190
0 4 37 -12.3805 6.3575
0 4 38 -1.7242 -8.8263
0 4 39 -9.7034 -2.4596
0 4 40 -0.6888 0.0649
0 4 41 -3.8703 -4.6462
0 4 42 2.9021 6.5533
0 4 43 -1.6849 5.5444
0 4 44 -2.9568 -2.9551
0 4 45 -0.4367 -0.6568
0 5 1 -4.3899 19.3864
0 5 2 10.8305 29.0292
0 5 3 6.7453 -19.9112
0 5 4 0.2475 10.9352
0 5 5 -8.4618 -4.1360
0 5 6 -20.6760 -3.7112
0 5 7 9.1375 -17.5386
0 5 8 19.6184 12.8578
0 5 9 -5.3229 -1.5602
0 5 10 2.9411 5.6215
0 5 11 3.2250 3.3878
0 5 12 -16.5153 -2.8764
0 5 13 0.9594 20.9358
0 5 14 6.2887 -3.8077
0 5 15 -6.4410 -18.6153
0 5 16 7.5996 1.7763
0 5 17 7.7579 9.3108
0 5 18 -0.5905 -4.7448
0 5 19 -7.6191 -0.5310
0 5 20 -15.3099 1.9373
0 5 21 4.8843 2.3984
0 5 22 12.4471 -2.0057
0 5 23 -0.3216 0.8626
0 5 24 6.9233 -4.8470
0 5 25 -1.0099 13.9596
0 5 26 -16.9119 -8.5837
0 5 27 2.4441 -3.5774
0 5 28 6.3532 0.7973
0 5 29 -4.5864 0.3306
0 5 30 7.2115 -1.4815
0 5 31 4.7314 2.3564
0 5 32 -3.7973 2.2766
0 5 33 -3.5468 -7.7361
0 5 34 -7.2227 0.1174
0 5 35 0.6493 -6.1816
0 5 36 6.1198 -4.0000
0 5 37 1.7191 -11.0568
0 5 38 5.8327 -2.7736
0 5 39 -1.3690 -1.2903
0 5 40 -10.8469 -5.7120
0 5 41 1.3059 -0.0551
0 5 42 2.3553 -7.6136
0 5 43 -0.8673 2.8042
0 5 44 6.5267 0.9635
0 6 0 -8.5607 22.6218
0 6 1 19.6641 2.2351
0 6 2 -31.0689 -9.4984
0 6 3 -5.2784 -10.1884
0 6 4 18.8897 -7.3279
0 6 5 -5.9563 10.1578
0 6 6 6.3167 8.9778
0 6 7 -11.6908 3.0849
0 6 8 3.8242 4.2349
0 6 9 -14.9353 -15.3852
0 6 10 -13.5577 -5.4876
0 6 11 -12.6047 12.9582
0 6 12 3.9892 -9.9833
0 6 13 8.5322 -2.1002
0 6 14 -8.0889 19.7361
0 6 15 8.9491 -1.1729
0 6 16 -1.0402 -7.9108
0 6 17 -4.7808 -3.4178
0 6 18 2.0411 -10.1252
0 6 19 -1.6039 3.7137
0 6 20 3.4758 10.7999
0 6 21 0.0484 6.6157
0 6 22 5.3125 1.0569
0 6 23 -3.5131 -13.6981
0 6 24 5.2577 -4.9783
0 6 25 1.9788 7.6498
0 6 26 -1.1644 -5.4140
0 6 27 4.4402 2.7943
0 6 28 -10.9939 13.3713
0 6 29 2.0329 -5.5905
0 6 30 6.2797 -4.2733
0 6 31 3.9006 0.6827
0 6 32 -0.0289 -9.0521
0 6 33 3.8350 1.1997
0 6 34 4.4620 8.9727
0 6 35 -1.1412 4.0842
0 6 36 7.7111 0.8808
0 6 37 -1.5996 -6.6147
0 6 38 9.3164 -4.9894
0 6 39 -1.2245 1.5450
0 6 40 6.9175 -1.3104
0 6 41 -0.9351 4.5414
0 6 42 -2.7712 6.9443
0 6 43 1.4173 -4.8992
0 7 1 10.4810 -16.3105
0 7 2 12.0671 -1.5602
0 7 3 -18.4637 -6.6384
0 7 4 -11.4906 24.7431
0 7 5 3.4697 -8.4713
0 7 6 6.7147 -20.6712
0 7 7 7.1833 -9.4453
0 7 8 -3.7185 -17.6989
0 7 9 1.9333 -4.8358
0 7 10 5.5469 -13.4112
0 7 11 -14.4333 8.2897
0 7 12 -5.1017 3.2938
0 7 13 7.6964 0.8613
0 7 14 -5.4069 -4.7957
0 7 15 11.2360 -4.1233
0 7 16 13.9838 5.2602
0 7 17 -17.3800 -8.6941
0 7 18 -11.0975 4.8710
0 7 19 3.4022 10.5922
0 7 20 2.9728 -0.1967
0 7 21 7.7944 2.5323
0 7 22 2.8756 -0.0094
0 7 23 -0.3743 7.3520
0 7 24 -1.6027 0.8115
0 7 25 -9.7329 5.1555
0 7 26 -0.5599 -5.4929
0 7 27 5.0814 7.4032
0 7 28 -4.6057 8.6909
0 7 29 8.6800 1.2954
0 7 30 9.1798 6.7240
0 7 31 -13.0249 1.1210
0 7 32 -5.2425 -5.5936
0 7 33 1.4393 2.7728
0 7 34 -2.0799 2.2793
0 7 35 7.0651 0.5378
0 7 36 5.9058 0.3086
0 7 37 -1.6831 6.5150
0 7 38 -2.8999 -4.1717
0 7 39 -5.5608 8.4323
0 7 40 -0.6383 -7.4116
0 7 41 3.6784 1.5756
0 7 42 0.1036 1.6802
0 8 0 13.6874 -8.3614
0 8 1 -25.3291 -22.1042
0 8 2 -3.9003 5.8714
0 8 3 7.3084 1.5025
0 8 4 17.3307 -0.0041
0 8 5 3.7445 11.8096
0 8 6 24.4672 -1.3987
0 8 7 6.1146 -3.9860
0 8 8 -2.0091 -0.6806
0 8 9 -1.1408 -5.6335
0 8 10 -3.4393 -1.5443
0 8 11 6.1276 -3.8656
0 8 12 -5.2247 6.4236
0 8 13 12.5045 19.0870
0 8 14 1.4002 -7.4678
0 8 15 6.0774 -16.5512
0 8 16 -7.8129 3.7315
0 8 17 -6.1879 -3.7118
0 8 18 3.7651 1.5605
0 8 19 -3.2073 16.8146
0 8 20 5.3117 -2.2341
0 8 21 -2.6933 -7.5548
0 8 22 -13.4540 -0.0054
0 8 23 -7.4106 -4.1178
0 8 24 -0.6343 -2.0601
0 8 25 -9.7230 0.0317
0 8 26 -9.5184 5.0541
0 8 27 -2.6858 10.2965
0 8 28 -7.2778 -5.1146
0 8 29 3.7210 -8.7155
0 8 30 0.3084 1.5807
0 8 31 -2.8248 -6.2103
0 8 32 0.3723 2.0769
0 8 33 6.2943 14.2647
0 8 34 -7.3994 -1.9943
0 8 35 5.2486 -4.9493
0 8 36 -1.3458 0.4226
0 8 37 -1.9891 -5.4933
0 8 38 0.4268 -0.7977
0 8 39 5.8475 4.1096
0 8 40 -7.5293 2.6517
0 8 41 2.5012 3.0676
0 9 1 5.3328 -9.1095
0 9 2 -15.5927 11.3307
0 9 3 -6.0899 27.3165
0 9 4 14.5090 -0.8562
0 9 5 -5.4012 -2.3130
0 9 6 -2.5059 -1.1093
0 9 7 13.4566 7.9582
0 9 8 0.9479 -11.9334
0 9 9 -6.3618 0.3326
0 9 10 -9.0266 10.2715
0 9 11 -6.0135 4.9267
0 9 12 8.4114 2.9920
0 9 13 6.0474 1.0314
0 9 14 5.7611 9.4789
0 9 15 3.1180 -9.0692
0 9 16 -17.8342 9.1842
0 9 17 -5.5589 6.6198
0 9 18 12.7767 13.9663
0 9 19 -4.3002 -8.5749
0 9 20 1.2576 -17.0397
0 9 21 12.0608 -3.9877
0 9 22 -4.4925 -8.9295
0 9 23 -5.6332 -6.6908
0 9 24 -2.0920 -3.4267
0 9 25 -5.0640 -1.3334
0 9 26 3.3241 -7.7015
0 9 27 6.3274 4.1056
0 9 28 5.6320 -4.0706
0 9 29 1.4164 -2.6589
0 9 30 -12.2334 5.3103
0 9 31 -4.3089 -1.3451
0 9 32 6.1861 4.0259
0 9 33 -3.1086 2.5369
0 9 34 5.2864 1.8099
0 9 35 7.8377 -7.4366
0 9 36 -6.4575 9.6838
0 9 37 -4.1984 -0.4642
0 9 38 0.5872 0.0547
0 9 39 -3.3434 -0.3189
0 9 40 2.9790 -0.1030
0 10 0 -24.8126 -10.8371
0 10 1 -5.5384 9.2078
0 10 2 14.3665 0.8812
0 10 3 -9.3555 -8.4944
0 10 4 -2.2164 13.7311
0 10 5 9.0323 4.3414
0 10 6 -0.7455 -9.3083
0 10 7 -5.6042 2.5899
0 10 8 -4.3025 -8.4676
0 10 9 9.9814 -9.7508
0 10 10 -12.3604 13.5202
0 10 11 -7.5940 11.5156
0 10 12 -2.4808 -0.1886
0 10 13 -5.8531 -8.0187
0 10 14 -13.9903 -9.6379
0 10 15 -13.6329 3.7402
0 10 16 -0.2348 0.6757
0 10 17 -1.8879 -0.9764
0 10 18 14.0763 12.8073
0 10 19 8.6944 -1.4283
0 10 20 8.3393 -8.7150
0 10 21 -8.3992 5.1713
0 10 22 0.2459 -7.3138
0 10 23 4.8480 -8.3823
0 10 24 -0.3105 12.1012
0 10 25 -2.0943 7.8899
0 10 26 3.5914 -1.2345
0 10 27 3.2435 -2.4890
0 10 28 -4.4377 -7.2945
0 10 29 -2.6413 -2.0370
0 10 30 -4.9690 0.4778
0 10 31 0.3703 3.5487
0 10 32 3.5941 9.1081
0 10 33 -6.1336 -2.6841
0 10 34 -0.0727 -6.0763
0 10 35 -1.8557 2.6958
0 10 36 1.3905 -5.9838
0 10 37 -3.4774 -2.0533
0 10 38 4.7273 7.9940
0 11 1 -2.9367 0.4485
0 11 2 -5.9284 1.2885
0 11 3 5.0826 -1.8102
0 11 4 -3.9288 -6.2940
0 11 5 2.1742 9.9458
0 11 6 19.4136 3.0092
0 11 7 -7.1990 -0.0165
0 11 8 -18.1407 -5.2954
0 11 9 2.4776 -2.1799
0 11 10 0.1153 -10.0425
0 11 11 3.3235 -24.9736
0 11 12 11.6714 6.3368
0 11 13 -1.4921 -4.1058
0 11 14 -6.3716 -4.7552
0 11 15 -4.2850 -0.6967
0 11 16 -2.2443 15.2097
0 11 17 4.3272 7.9118
0 11 18 -2.4682 -9.4966
0 11 19 3.2827 -3.1930
0 11 20 13.4532 1.9625
0 11 21 -7.6158 -2.6174
0 11 22 -11.0523 -6.0397
0 11 23 2.9431 3.1103
0 11 24 -4.1353 -2.2010
0 11 25 2.2280 2.4110
0 11 26 12.9223 -6.7786
0 11 27 -0.6823 -0.0094
0 11 28 -6.9485 0.3962
0 11 29 -2.8380 3.4428
0 11 30 -2.8197 -2.5768
0 11 31 1.9084 1.9200
0 11 32 1.6231 -0.5834
0 11 33 4.3324 -1.1307
0 11 34 5.3979 -2.1860
0 11 35 -6.6664 8.7544
0 11 36 -4.5329 -0.9607
0 12 0 6.0224 -5.4055
0 12 1 -2.4216 -0.7194
0 12 2 -14.9863 0.9125
0 12 3 -1.5904 11.8162
0 12 4 -9.5949 4.9154
0 12 5 -1.6777 -13.4185
0 12 6 -3.5451 -3.0674
0 12 7 13.5152 -2.8501
0 12 8 15.3896 -4.4873
0 12 9 7.3729 17.3574
0 12 10 -15.0684 6.8801
0 12 11 1.9247 -13.7967
0 12 12 -0.4094 0.1151
0 12 13 -14.9330 0.2220
0 12 14 7.8846 -6.1592
0 12 15 -2.4072 2.4857
0 12 16 0.4028 4.3147
0 12 17 -4.0097 5.6868
0 12 18 4.6070 1.7872
0 12 19 4.6066 -7.1868
0 12 20 -0.2777 -2.0455
0 12 21 4.0561 -5.2706
0 12 22 9.1870 -3.3740
0 12 23 -5.2841 14.9994
0 12 24 1.9832 5.0614
0 12 25 -3.2512 -9.1081
0 12 26 -5.0928 1.0336
0 12 27 -1.1743 -2.8879
0 12 28 -9.8516 -7.0124
0 12 29 1.1818 5.8058
0 12 30 2.2339 5.7159
0 12 31 -0.7242 1.4428
0 12 32 -9.0965 -0.5042
0 12 33 2.0784 -3.3668
0 12 34 -0.1426 -2.3834
0 13 1 -6.3134 -26.1405
0 13 2 -3.3412 -3.3381
0 13 3 9.3793 0.6055
0 13 4 7.0675 3.6699
0 13 5 4.4927 -0.4577
0 13 6 -10.3034 14.1410
0 13 7 -13.4342 -5.6182
0 13 8 8.3211 -10.2738
0 13 9 3.0046 -13.2080
0 13 10 -2.8409 -4.4013
0 13 11 11.2027 1.4693
0 13 12 -1.0989 18.6473
0 13 13 -9.6944 -15.0546
0 13 14 3.2840 -3.2329
0 13 15 -3.5943 2.6556
0 13 16 -4.9688 -7.6752
0 13 17 8.3477 -0.3403
0 13 18 7.4298 9.9612
0 13 19 1.9386 10.8139
0 13 20 -6.9049 -0.7680
0 13 21 -8.9517 -6.2160
0 13 22 2.6887 -4.0002
0 13 23 0.3186 -1.0211
0 13 24 1.5356 -15.8097
0 13 25 10.7679 -2.2426
0 13 26 -3.3901 -13.3759
0 13 27 -8.8907 8.6750
0 13 28 2.3563 -6.5160
0 13 29 -2.0044 -7.8941
0 13 30 -3.5221 2.5760
0 13 31 8.4433 3.2070
0 13 32 3.3669 -1.4070
0 14 0 -2.4070 4.4531
0 14 1 -11.7074 14.3479
0 14 2 23.2554 0.7475
0 14 3 -17.7904 -2.4793
0 14 4 6.2637 -7.5881
0 14 5 10.6050 -6.2345
0 14 6 10.2759 3.4473
0 14 7 8.0158 2.4955
0 14 8 0.3466 6.9951
0 14 9 -13.9293 2.5690
0 14 10 -4.5977 -9.2280
0 14 11 3.4338 2.9044
0 14 12 6.5420 0.7532
0 14 13 1.7371 -12.4507
0 14 14 21.1572 6.1644
0 14 15 -20.8473 11.4365
0 14 16 -3.6333 -1.7489
0 14 17 -5.4723 0.4063
0 14 18 4.7072 -3.2400
0 14 19 3.7405 -8.9862
0 14 20 10.9404 0.0529
0 14 21 6.7333 5.0516
0 14 22 9.1461 6.9521
0 14 23 10.1978 1.2194
0 14 24 0.1103 -6.3340
0 14 25 7.5532 -0.2608
0 14 26 -2.0492 -0.7327
0 14 27 11.1699 -7.7059
0 14 28 -10.3500 7.3932
0 14 29 5.7017 6.5677
0 15 1 -2.5907 6.5544
0 15 2 12.8639 13.2539
0 15 3 5.4094 9.7459
0 15 4 -10.7064 -10.0017
0 15 5 -3.4551 22.5971
0 15 6 -0.8417 -8.5244
0 15 7 0.8341 -13.1438
0 15 8 1.6126 2.9586
0 15 9 0.0717 2.5370
0 15 10 7.5763 7.0719
0 15 11 0.8710 8.9777
0 15 12 -9.2669 0.4832
0 15 13 0.4796 -5.0120
0 15 14 -2.2492 -5.8526
0 15 15 -4.5873 2.9413
0 15 16 13.3445 -9.0798
0 15 17 5.9700 25.1620
0 15 18 -9.2453 -1.1939
0 15 19 -3.0933 4.4125
0 15 20 -1.8484 3.9965
0 15 21 -1.9210 11.4011
0 15 22 3.7141 0.8593
0 15 23 3.3175 1.1148
0 15 24 4.1587 1.3394
0 15 25 -2.7324 2.3539
0 16 0 -11.1235 13.1418
0 16 1 6.0461 -8.5794
0 16 2 -9.6144 -6.0824
0 16 3 -7.8272 2.5306
0 16 4 5.2766 -5.9716
0 16 5 -0.8571 1.2214
0 16 6 -15.7274 6.8514
0 16 7 4.8700 -0.6469
0 16 8 -8.4855 1.8207
0 16 9 -8.3130 0.5022
0 16 10 1.7939 -3.0866
0 16 11 -1.0442 -4.1074
0 16 12 0.2001 -5.2336
0 16 13 4.7286 8.2354
0 16 14 -6.3429 10.1212
0 16 15 -8.1643 -5.9416
0 16 16 3.6940 -2.5942
0 16 17 5.0220 -0.3286
0 16 18 -8.6859 -8.0906
0 16 19 2.7718 1.8738
0 16 20 -5.9241 8.8597
0 16 21 2.6587 -0.4077
0 17 1 5.6594 -10.4150
0 17 2 2.6360 -5.3126
0 17 3 -10.4146 -14.3388
0 17 4 1.4142 -3.3576
0 17 5 3.7743 -4.7898
0 17 6 -7.9702 -9.0767
0 17 7 2.3675 -4.5907
0 17 8 7.7849 4.3517
0 17 9 1.7195 -12.6344
0 17 10 -2.1837 -0.1535
0 17 11 -5.5878 2.9965
0 17 12 -3.1704 -0.0588
0 17 13 1.2449 -2.0825
0 17 14 1.4880 9.7380
0 17 15 8.0628 3.7051
0 17 16 1.7495 5.5492
0 18 0 15.7402 -6.2078
0 18 1 0.7772 -2.6058
0 18 2 10.5566 4.1421
0 18 3 1.6551 -4.4440
0 18 4 3.4938 -2.3097
0 18 5 -2.1001 8.4891
1 0 6 -11.8633 2.5674
1 0 7 -4.2479 -9.5246
1 0 8 30.8994 1.3277
1 0 9 2.2491 25.7385
1 0 10 35.3410 -1.7092
1 0 11 14.1460 -47.6498
1 0 12 -8.6717 -3.0278
1 0 13 10.5330 6.3975
1 0 14 -9.3628 9.2241
1 0 15 7.2615 2.1223
1 0 16 -7.0873 5.4381
1 0 17 -7.2835 -2.5524
1 0 18 -4.4537 -8.2333
1 0 19 -12.9998 14.5376
1 0 20 -14.5750 -1.9219
1 0 21 -9.0877 0.0242
1 0 22 -11.1235 6.6819
1 0 23 -3.7132 -8.0106
1 0 24 25.8606 2.6479
1 0 25 5.9464 -16.4659
1 0 26 3.8601 -8.1604
1 0 27 7.5314 3.5833
1 0 28 -6.3874 0.9597
1 0 29 8.9958 -9.7488
1 0 30 -3.1522 7.9365
1 0 31 5.2967 18.2689
1 0 32 3.1289 -1.3711
1 0 33 -3.6328 -2.7933
1 0 34 9.9582 -5.8776
1 0 35 -6.3610 -2.9491
1 0 36 -8.3305 -0.9802
1 0 37 -6.0086 1.2565
1 0 38 0.4791 3.8996
1 0 39 -1.7725 3.6416
1 0 40 6.4745 -1.3547
1 0 41 1.0062 -4.2683
1 0 42 -2.1006 -2.4944
1 0 43 3.2136 0.9010
1 0 44 6.3884 2.6389
1 0 45 4.1478 2.1782
1 0 46 6.6565 3.1947
1 1 5 -25.5296 42.1616
1 1 6 17.3537 -7.4331
1 1 7 -7.7640 26.5667
1 1 8 15.4020 30.4263
1 1 9 17.4247 9.4998
1 1 10 15.0018 -2.6237
1 1 11 17.2697 18.6111
1 1 12 -27.7136 -3.2359
1 1 13 -26.1063 2.1082
1 1 14 26.0046 13.1089
1 1 15 7.2568 -22.6451
1 1 16 -15.2390 -5.6828
1 1 17 -18.3833 -27.7774
1 1 18 8.5390 -6.3555
1 1 19 -2.3503 -18.6823
1 1 20 -11.9823 -15.7498
1 1 21 -0.8797 15.2573
1 1 22 8.2368 3.8374
1 1 23 12.3841 11.6506
1 1 24 3.0340 -0.3577
1 1 25 -9.4793 3.6930
1 1 26 13.1264 -7.0227
1 1 27 -3.8307 10.4035
1 1 28 -12.6670 7.4358
1 1 29 -7.2251 -1.6075
1 1 30 -3.7075 2.1634
1 1 31 -4.6053 -5.4096
1 1 32 8.6538 12.1991
1 1 33 8.5127 -10.1982
1 1 34 -1.4121 -1.6502
1 1 35 -5.2678 1.2239
1 1 36 -1.0321 -7.9061
1 1 37 -0.8756 8.2460
1 1 38 -0.6772 5.6307
1 1 39 4.4254 1.0324
1 1 40 4.8905 -0.5426
1 1 41 0.6546 4.4778
1 1 42 -4.2835 3.2113
1 1 43 -0.8839 5.8496
1 1 44 -1.7759 4.1107
1 1 45 -0.0170 4.3505
1 1 46 1.9987 2.2171
1 2 3 -20.0207 -6.5829
1 2 4 3.7289 9.3843
1 2 5 -14.6247 -6.7868
1 2 6 -28.0203 9.5312
1 2 7 14.4814 21.9930
1 2 8 -24.5363 18.7438
1 2 9 -0.9110 -2.5067
1 2 10 1.1489 -28.0417
1 2 11 -25.5877 0.1676
1 2 12 -1.2257 30.4951
1 2 13 17.1027 -13.0920
1 2 14 10.8162 -4.9432
1 2 15 12.2705 -5.6449
1 2 16 22.8836 -14.9651
1 2 17 3.2532 -0.5174
1 2 18 8.3531 -2.6236
1 2 19 -8.7538 2.6970
1 2 20 2.5084 -1.2560
1 2 21 -8.0836 8.7489
1 2 22 1.3489 1.3796
1 2 23 19.5735 -1.1769
1 2 24 -13.2240 -5.6394
1 2 25 -3.3618 -4.0005
1 2 26 -8.9099 -0.4759
1 2 27 4.4102 -5.1600
1 2 28 3.7440 -16.5575
1 2 29 -0.9098 3.4604
1 2 30 0.7022 14.4424
1 2 31 -4.8815 0.6997
1 2 32 -1.6394 -5.5050
1 2 33 -0.1683 1.2631
1 2 34 7.7722 -1.8290
1 2 35 -15.6514 -5.7172
1 2 36 1.0044 -0.3896
1 2 37 0.6699 8.8303
1 2 38 -6.8849 -0.3717
1 2 39 0.7310 0.5359
1 2 40 -2.3967 -0.9189
1 2 41 -4.9226 -0.7593
1 2 42 -2.4652 1.6823
1 2 43 -1.1364 3.7656
1 2 44 -2.9362 6.0524
1 2 45 -2.0820 4.8670
1 3 0 6.7317 0.1358
1 3 1 14.8246 -3.7054
1 3 2 33.3086 9.1952
1 3 3 -42.2377 -5.5480
1 3 4 4.1539 -5.9611
1 3 5 2.0362 6.7798
1 3 6 0.0852 -7.4413
1 3 7 -8.0094 9.1943
1 3 8 7.2026 -18.3283
1 3 9 -1.8403 -16.2867
1 3 10 -7.7520 5.7359
1 3 11 -14.4590 4.1323
1 3 12 4.2925 3.5434
1 3 13 23.2281 26.3350
1 3 14 24.3034 -1.5116
1 3 15 -26.4974 -1.0935
1 3 16 3.3152 5.1723
1 3 17 4.7226 -4.0378
1 3 18 -3.7973 -10.9429
1 3 19 -7.9914 4.8615
1 3 20 -1.8851 16.4983
1 3 21 13.4895 5.4777
1 3 22 5.4042 -7.1903
1 3 23 -4.5674 -1.5076
1 3 24 0.0248 -3.8699
1 3 25 14.1637 -0.1096
1 3 26 1.8958 19.0323
1 3 27 -3.5654 -2.5212
1 3 28 -2.9023 -5.3604
1 3 29 -0.6671 -5.5702
1 3 30 0.3528 -4.6729
1 3 31 2.7894 6.7674
1 3 32 9.8092 -8.1579
1 3 33 -1.9636 -1.8285
1 3 34 -3.3864 0.5677
1 3 35 1.9333 -4.7204
1 3 36 2.7343 -7.0275
1 3 37 -4.7242 7.2976
1 3 38 3.1910 -7.0666
1 3 39 5.4169 -0.9869
1 3 40 -10.0295 3.6170
1 3 41 -5.9498 -1.0009
1 3 42 -10.5703 -3.9620
1 3 43 -5.9993 0.0271
1 3 44 -4.3530 0.1725
1 3 45 0.5110 1.0520
1 4 0 2.2029 -3.4644
1 4 1 -7.1140 -29.7976
1 4 2 -1.6031 31.7846
1 4 3 -15.3671 17.3952
1 4 4 -7.0989 -16.1536
1 4 5 -0.6996 9.6444
1 4 6 7.0941 -8.6314
1 4 7 11.7013 1.1534
1 4 8 -4.9363 -16.5969
1 4 9 2.2711 -6.4951
1 4 10 -27.4873 20.1304
1 4 11 4.7716 29.2869
1 4 12 -3.7538 -2.5055
1 4 13 -3.8332 -5.2640
1 4 14 2.5977 -4.2764
1 4 15 19.6734 -0.2574
1 4 16 -1.3410 -13.4391
1 4 17 -9.3087 13.4565
1 4 18 -5.2842 -6.6393
1 4 19 -6.1465 12.1956
1 4 20 -0.3320 -2.5592
1 4 21 9.5355 1.4186
1 4 22 6.5099 3.3079
1 4 23 -22.2563 -0.6081
1 4 24 -11.3988 3.7746
1 4 25 6.6577 7.8942
1 4 26 2.3052 -5.5336
1 4 27 3.7146 -6.2161
1 4 28 5.9437 13.0238
1 4 29 -4.8423 5.8085
1 4 30 -1.2217 0.6443
1 4 31 5.8000 -1.4981
1 4 32 0.0518 0.2188
1 4 33 9.3609 6.3470
1 4 34 -2.9177 -5.7334
1 4 35 5.7647 6.8372
1 4 36 1.5518 5.8770
1 4 37 -6.4339 0.9359
1 4 38 -4.7037 -10.0267
1 4 39 7.1242 -4.9567
1 4 40 -2.3005 -12.0898
1 4 41 -0.2569 -7.3561
1 4 42 -1.3083 4.7654
1 4 43 -2.7302 -1.7185
1 4 44 -3.8913 4.4645
1 5 0 -2.0155 -22.7837
1 5 1 -23.4161 2.1624
1 5 2 -9.3082 -28.5714
1 5 3 -8.7078 3.4326
1 5 4 30.4198 3.8511
1 5 5 3.0548 6.8520
1 5 6 -7.5623 -6.5509
1 5 7 -0.3611 -20.5398
1 5 8 -24.4455 -0.0155
1 5 9 -13.8312 -12.2756
1 5 10 -14.1359 -9.1043
1 5 11 -0.5394 -4.5814
1 5 12 16.7219 18.3383
1 5 13 7.7854 -4.8803
1 5 14 -16.2560 10.2654
1 5 15 -0.5749 -1.5332
1 5 16 1.2891 -15.1554
1 5 17 -2.0357 -3.4862
1 5 18 -8.9220 14.0155
1 5 19 11.3666 12.1888
1 5 20 -6.1997 -10.3825
1 5 21 5.1981 -15.5578
1 5 22 -17.9639 -0.9414
1 5 23 3.1518 -1.6563
1 5 24 6.8227 4.4650
1 5 25 -6.5571 14.8378
1 5 26 -10.1507 -7.6012
1 5 27 1.5549 -10.5511
1 5 28 -5.5054 6.2045
1 5 29 -0.8121 2.9732
1 5 30 6.1518 -0.8621
1 5 31 -2.4653 7.7288
1 5 32 -3.4025 8.5353
1 5 33 -4.9002 -0.5208
1 5 34 -5.0422 -1.1879
1 5 35 3.0328 -8.9019
1 5 36 -2.0545 3.2884
1 5 37 14.1652 -2.2486
1 5 38 5.6924 4.4223
1 5 39 3.1455 -0.2875
1 5 40 -8.6157 -4.8502
1 5 41 -2.0584 -10.3552
1 5 42 -1.7753 0.7740
1 5 43 7.0896 2.7117
1 5 44 8.3556 3.6154
1 6 0 8.0589 -25.9025
1 6 1 6.8435 28.7778
1 6 2 -12.4295 7.9806
1 6 3 15.6204 3.2633
1 6 4 0.2105 -14.3528
1 6 5 17.1225 -0.3276
1 6 6 8.2129 -26.0941
1 6 7 13.9534 -15.3177
1 6 8 13.4376 -9.7516
1 6 9 -2.9623 0.2727
1 6 10 15.0304 16.6745
1 6 11 -17.2534 -10.1310
1 6 12 -8.7709 -7.1158
1 6 13 18.2693 1.7653
1 6 14 11.0088 -9.6019
1 6 15 -15.1913 -4.8925
1 6 16 -8.8251 9.7633
1 6 17 -3.8323 0.9623
1 6 18 -3.4623 -5.3757
1 6 19 15.3222 -5.9601
1 6 20 4.2399 -7.1226
1 6 21 -9.1338 -3.6191
1 6 22 -16.0341 7.6580
1 6 23 -5.3755 -8.8642
1 6 24 15.7835 4.3978
1 6 25 -4.6248 -11.1778
1 6 26 0.1652 -2.0062
1 6 27 5.8671 6.4954
1 6 28 -10.9563 5.4893
1 6 29 -9.0866 -6.6946
1 6 30 0.6551 4.7757
1 6 31 -1.8679 -2.8392
1 6 32 0.1928 -4.0269
1 6 33 10.4210 -1.4588
1 6 34 3.2005 4.7531
1 6 35 -7.9703 7.3382
1 6 36 -4.6673 4.7930
1 6 37 0.4438 -3.7425
1 6 38 12.7988 -2.2687
1 6 39 0.6541 -11.4134
1 6 40 6.1204 5.7876
1 6 41 -2.9440 3.1900
1 6 42 -3.1099 9.2374
1 6 43 -3.8723 0.3865
1 7 0 -3.0618 10.4467
1 7 1 -7.0025 -9.8649
1 7 2 1.7267 18.7615
1 7 3 28.5212 7.2947
1 7 4 5.0841 8.8325
1 7 5 5.2313 5.6448
1 7 6 2.6402 22.9486
1 7 7 11.0243 10.9339
1 7 8 -10.2257 -0.0006
1 7 9 0.6784 -11.7353
1 7 10 4.8226 3.7369
1 7 11 7.5943 19.2382
1 7 12 11.2380 -10.2829
1 7 13 -10.5325 4.8541
1 7 14 -3.0858 -10.2364
1 7 15 10.5700 -21.5023
1 7 16 -0.9051 13.5308
1 7 17 12.3098 13.1899
1 7 18 14.9064 -9.2642
1 7 19 0.8170 -17.9004
1 7 20 -9.4662 -4.7835
1 7 21 3.3542 -8.5416
1 7 22 0.8065 4.0594
1 7 23 7.4155 3.4709
1 7 24 1.5479 0.4776
1 7 25 -8.9630 -3.4315
1 7 26 3.2705 -13.7554
1 7 27 -8.0589 7.4871
1 7 28 -2.1852 -6.1948
1 7 29 0.6022 -5.8613
1 7 30 2.4153 16.0300
1 7 31 -5.1434 7.7128
1 7 32 2.6984 -5.7392
1 7 33 -7.8951 -4.4733
1 7 34 -2.0844 -1.1092
1 7 35 -0.3003 -3.0196
1 7 36 5.1858 6.0342
1 7 37 5.4620 7.0188
1 7 38 0.2246 1.0105
1 7 39 -6.3478 -1.1293
1 7 40 -2.4477 -7.4274
1 7 41 -3.2637 7.5815
1 7 42 12.7648 -0.9717
1 8 0 -13.3333 18.0177
1 8 1 4.5186 17.7595
1 8 2 1.9805 -15.8894
1 8 3 -27.3900 -0.0431
1 8 4 -5.6731 13.4382
1 8 5 -11.7585 -2.3429
1 8 6 -0.4280 -2.6222
1 8 7 6.6067 2.9430
1 8 8 -0.4022 6.9314
1 8 9 -11.0270 -3.0304
1 8 10 -5.6698 6.9596
1 8 11 2.5105 -5.4799
1 8 12 19.8706 4.5634
1 8 13 3.8506 3.0834
1 8 14 -21.1135 8.6651
1 8 15 8.4355 22.0783
1 8 16 4.3696 11.4699
1 8 17 1.9855 -9.1830
1 8 18 21.6374 4.7527
1 8 19 2.6518 -6.6492
1 8 20 -9.1351 1.8772
1 8 21 3.4611 11.8481
1 8 22 9.8586 3.8177
1 8 23 -0.2781 -10.5942
1 8 24 3.8526 0.8638
1 8 25 2.3037 -6.9430
1 8 26 2.5498 -3.2353
1 8 27 -7.1761 0.2945
1 8 28 -13.7122 -5.2987
1 8 29 4.6272 4.8863
1 8 30 -2.1803 -0.5281
1 8 31 -1.6335 -7.7396
1 8 32 13.6166 -2.4988
1 8 33 -2.3081 2.3690
1 8 34 -9.0524 -1.3288
1 8 35 1.7136 6.7775
1 8 36 3.1664 -0.7072
1 8 37 -1.5717 -2.7797
1 8 38 2.2948 -0.3270
1 8 39 0.2039 2.0299
1 8 40 -4.2067 7.9129
1 8 41 -3.5305 9.3872
1 9 0 9.9280 -24.7968
1 9 1 2.4438 -2.3719
1 9 2 0.9488 -4.5917
1 9 3 0.1897 -17.7195
1 9 4 -18.8482 8.2158
1 9 5 3.1246 19.6763
1 9 6 8.1772 -19.0677
1 9 7 -5.2191 -5.4993
1 9 8 -5.4859 1.2488
1 9 9 7.0559 4.5807
1 9 10 -1.2000 6.8116
1 9 11 -21.2864 -1.5952
1 9 12 -6.7680 -8.8081
1 9 13 -17.5216 -0.8951
1 9 14 1.9071 -6.5132
1 9 15 -5.2385 14.0741
1 9 16 6.2272 12.4415
1 9 17 8.6704 -14.5953
1 9 18 -9.9116 9.8956
1 9 19 -19.6903 10.9871
1 9 20 11.5840 -5.0171
1 9 21 0.3285 5.2078
1 9 22 0.1132 10.4476
1 9 23 11.5688 -7.8783
1 9 24 -1.6105 -2.9114
1 9 25 -2.6292 -0.6689
1 9 26 4.2140 -7.7584
1 9 27 -6.1324 -0.4153
1 9 28 2.6561 -0.2066
1 9 29 7.3660 10.2381
1 9 30 -1.2847 2.7154
1 9 31 2.7882 -7.2236
1 9 32 0.8364 1.3557
1 9 33 -8.9049 7.1605
1 9 34 2.7315 -6.4667
1 9 35 1.3505 3.9732
1 9 36 -1.4570 7.5251
1 9 37 -0.7926 -4.1250
1 9 38 -9.1334 -1.9795
1 9 39 -8.0777 -2.4337
1 10 0 5.7333 -2.4639
1 10 1 8.1093 -18.4521
1 10 2 -30.3262 -2.0853
1 10 3 7.5622 3.9102
1 10 4 11.5463 2.2090
1 10 5 -10.6787 -9.1702
1 10 6 8.6473 15.0861
1 10 7 1.1475 -3.3756
1 10 8 -18.8065 -18.0529
1 10 9 15.0837 -10.9050
1 10 10 12.7465 -2.3579
1 10 11 1.5255 -9.7788
1 10 12 -2.2490 -0.0263
1 10 13 0.7977 14.6869
1 10 14 -0.7763 -2.4145
1 10 15 0.3577 4.6445
1 10 16 -15.0207 -15.5393
1 10 17 3.3142 1.0304
1 10 18 -1.9721 0.1181
1 10 19 -15.2097 -0.8185
1 10 20 11.7726 11.8075
1 10 21 2.8225 9.2533
1 10 22 -8.8598 -18.6449
1 10 23 6.4717 4.3301
1 10 24 9.0825 3.6862
1 10 25 -13.2910 -9.7440
1 10 26 -5.3644 8.3362
1 10 27 -0.5543 5.3323
1 10 28 -5.4391 0.9556
1 10 29 3.9292 5.5628
1 10 30 -5.0354 -7.0702
1 10 31 4.2614 -5.0724
1 10 32 -4.9898 6.7243
1 10 33 -4.4824 0.3164
1 10 34 -1.6491 -3.2648
1 10 35 0.3972 2.3490
1 10 36 -5.0283 -8.1820
1 10 37 4.2499 -2.7498
1 10 38 8.7740 0.8823
1 11 0 0.6283 -15.6423
1 11 1 -0.4568 5.9188
1 11 2 -2.3446 -5.7374
1 11 3 -7.6195 0.9755
1 11 4 1.0203 9.3066
1 11 5 4.4511 -21.0006
1 11 6 11.0244 -0.0583
1 11 7 -1.2595 29.2368
1 11 8 15.8625 -5.5020
1 11 9 -9.8543 1.6565
1 11 10 -17.9636 13.3160
1 11 11 -1.5570 -7.8760
1 11 12 9.9615 -0.9093
1 11 13 -8.6540 -0.6490
1 11 14 2.1810 -5.9883
1 11 15 8.1454 -10.0966
1 11 16 -5.1515 0.7113
1 11 17 -8.0101 1.6748
1 11 18 -11.4697 6.6583
1 11 19 10.8258 -10.0360
1 11 20 7.6196 2.3634
1 11 21 -4.5972 10.4755
1 11 22 2.6668 -11.8435
1 11 23 6.6162 -8.9778
1 11 24 -20.6540 2.7123
1 11 25 2.2329 -14.1723
1 11 26 -7.1695 -4.2782
1 11 27 -1.7873 7.5890
1 11 28 7.6426 -2.6288
1 11 29 -2.8049 -7.6580
1 11 30 -6.2695 5.0938
1 11 31 3.5158 -6.1426
1 11 32 -5.7346 0.8836
1 11 33 1.0418 -9.6697
1 11 34 8.7721 3.4709
1 11 35 -0.7226 2.8267
1 11 36 -3.5285 0.6768
1 12 0 -1.3320 -1.2610
1 12 1 2.8880 5.9850
1 12 2 5.1769 -7.4906
1 12 3 15.5609 -0.0792
1 12 4 -20.5652 3.5853
1 12 5 -5.7817 4.7738
1 12 6 0.5373 -1.5579
1 12 7 -13.1986 -19.0285
1 12 8 4.7785 -9.9047
1 12 9 13.7458 14.8009
1 12 10 -18.6464 -11.2383
1 12 11 9.6960 4.3175
1 12 12 15.4402 3.5417
1 12 13 -4.7510 -1.0503
1 12 14 -6.2318 -15.0954
1 12 15 1.9218 8.5142
1 12 16 0.0021 -3.2561
1 12 17 -3.8498 4.5573
1 12 18 0.0672 3.0103
1 12 19 -1.1109 5.0269
1 12 20 3.0059 0.8813
1 12 21 0.5441 -11.5583
1 12 22 14.0515 -7.2849
1 12 23 10.2441 -4.9500
1 12 24 -3.7624 -2.8730
1 12 25 -2.3038 -10.3054
1 12 26 14.8572 14.5521
1 12 27 -10.9860 -14.8870
1 12 28 4.0946 4.1096
1 12 29 4.0109 -10.3284
1 12 30 1.2810 -0.1997
1 12 31 -2.5394 8.2640
1 12 32 6.8781 5.7276
1 12 33 -7.1034 -6.8026
1 12 34 2.4706 4.9962
1 13 0 -2.7167 8.7504
1 13 1 1.7523 1.0001
1 13 2 7.3388 -6.1251
1 13 3 1.1862 -12.3105
1 13 4 -2.4080 0.7783
1 13 5 14.6938 -2.6719
1 13 6 5.2653 17.6021
1 13 7 -8.4581 -8.4352
1 13 8 3.6943 -4.9340
1 13 9 -8.8746 16.0348
1 13 10 5.9193 -2.7168
1 13 11 16.4650 -10.4027
1 13 12 -19.5547 11.1461
1 13 13 2.7667 -13.8516
1 13 14 -0.4301 -3.6819
1 13 15 -0.4368 4.0696
1 13 16 -15.1649 -1.9780
1 13 17 11.0271 -16.3785
1 13 18 -0.9923 1.7524
1 13 19 6.0112 8.5878
1 13 20 1.2123 7.1800
1 13 21 8.8950 3.2299
1 13 22 8.8399 4.4312
1 13 23 -3.8583 4.7429
1 13 24 1.0609 -3.4680
1 13 25 1.5909 1.9338
1 13 26 13.5249 3.6520
1 13 27 -5.6187 1.6498
1 13 28 4.4892 -11.2121
1 13 29 -17.6819 13.4764
1 13 30 8.7499 -8.8008
1 13 31 -10.6857 -3.7901
1 13 32 -0.0785 1.2365
1 14 0 9.9347 8.1246
1 14 1 3.5169 -17.7205
1 14 2 -2.6682 4.3819
1 14 3 -5.0008 12.8877
1 14 4 -5.6366 -7.8322
1 14 5 -3.6794 -0.3151
1 14 6 5.4035 2.7970
1 14 7 -6.3151 -0.2126
1 14 8 5.3384 7.2709
1 14 9 -3.4906 4.9232
1 14 10 3.4865 -15.4325
1 14 11 16.1604 8.0001
1 14 12 -9.7698 -1.4109
1 14 13 0.0897 -11.7675
1 14 14 24.5477 16.2255
1 14 15 0.0990 -4.2882
1 14 16 3.8630 -2.8985
1 14 17 1.1025 -3.5322
1 14 18 -4.2981 6.5015
1 14 19 -14.6491 -0.3864
1 14 20 5.3177 7.1770
1 14 21 -0.5019 -2.9530
1 14 22 -2.4779 -1.3519
1 14 23 -5.5485 3.5850
1 14 24 4.7190 1.2913
1 14 25 1.3037 2.2201
1 14 26 -3.0074 -8.1356
1 14 27 4.2852 -2.6786
1 14 28 7.4475 -10.0036
1 14 29 2.5184 2.8165
1 15 0 0.6925 4.4457
1 15 1 8.3095 -9.3212
1 15 2 -2.8846 -6.7208
1 15 3 -11.9493 3.9794
1 15 4 4.3847 3.5640
1 15 5 2.9567 -8.4193
1 15 6 -17.8254 2.0051
1 15 7 3.1811 4.8381
1 15 8 4.1852 -0.9860
1 15 9 -7.5393 4.0950
1 15 10 -3.7339 -2.7180
1 15 11 -5.5123 9.4975
1 15 12 -11.2163 10.6303
1 15 13 10.1552 -0.1414
1 15 14 2.8940 17.4543
1 15 15 -0.5932 -3.5954
1 15 16 15.2897 -15.8730
1 15 17 -4.4614 8.5510
1 15 18 -6.9442 0.5103
1 15 19 7.0697 -5.8394
1 15 20 6.2487 -0.5687
1 15 21 3.3984 6.6723
1 15 22 -0.8298 -6.3778
1 15 23 -0.2416 1.9390
1 15 24 6.2785 2.2030
1 15 25 8.6579 8.2857
1 16 0 -9.8247 -13.7115
1 16 1 -2.1260 0.1314
1 16 2 10.6105 9.5982
1 16 3 -6.8306 -13.7340
1 16 4 -1.1221 -2.2769
1 16 5 3.6070 5.4566
1 16 6 2.0403 -9.1107
1 16 7 -6.7941 -13.3225
1 16 8 5.4130 -2.1782
1 16 9 -2.0830 -12.2053
1 16 10 -10.5130 -5.5482
1 16 11 -5.1847 7.1351
1 16 12 -4.5124 -0.4213
1 16 13 8.1780 12.5957
1 16 14 -2.1863 11.3912
1 16 15 -7.5576 -4.9510
1 16 16 9.8269 1.3452
1 16 17 -5.4707 9.4849
1 16 18 -8.6229 5.0301
1 16 19 8.0034 8.8271
1 16 20 -1.3363 3.8999
1 16 21 -7.9802 -4.9538
1 17 0 -5.2876 0.1477
1 17 1 0.3107 -9.1834
1 17 2 -5.5636 6.7115
1 17 3 0.9417 1.2016
1 17 4 13.5931 -12.0436
1 17 5 -4.6200 15.2698
1 17 6 8.2875 -0.7072
1 17 7 13.0301 -6.8902
1 17 8 -5.5818 -5.0472
1 17 9 -3.5613 3.9321
1 17 10 2.6716 -2.2082
1 17 11 -10.8853 0.5846
1 17 12 -10.4293 0.4862
1 17 13 1.3919 -2.9872
1 17 14 -7.6730 -0.2564
1 17 15 2.3730 -10.9630
1 18 0 0.3646 -9.5202
1 18 1 9.4302 1.1605
1 18 2 -4.9841 -4.1242
1 18 3 -7.4479 0.4782
1 18 4 5.7626 -0.1952
1 18 5 5.9112 3.9109
2 0 3 -14.3311 29.3264
2 0 4 50.9635 -2.0519
2 0 5 -7.8852 -2.7730
2 0 6 -7.7190 9.1270
2 0 7 -0.7217 0.5593
2 0 8 3.1353 16.4689
2 0 9 -3.1561 24.9368
2 0 10 -10.8284 7.7930
2 0 11 -11.8635 -1.9150
2 0 12 50.8269 -2.8775
2 0 13 2.5792 -8.7149
2 0 14 -0.1156 -8.0892
2 0 15 13.4095 -3.1999
2 0 16 -12.2596 -5.3020
2 0 17 5.9175 -14.0155
2 0 18 12.5982 -8.6353
2 0 19 -1.3554 -7.5719
2 0 20 8.3007 -6.4582
2 0 21 -3.8446 9.0111
2 0 22 -1.4589 5.3650
2 0 23 -4.8069 -6.8105
2 0 24 -3.9666 12.7364
2 0 25 -6.1084 0.2572
2 0 26 15.7095 8.6348
2 0 27 -1.9154 -7.4835
2 0 28 -9.8728 -0.6078
2 0 29 -1.1523 -3.7366
2 0 30 1.1953 -5.1746
2 0 31 2.2413 2.9599
2 0 32 -5.2129 -5.7405
2 0 33 9.0207 0.4875
2 0 34 2.8937 -7.2009
2 0 35 3.3825 6.2985
2 0 36 -7.7912 -4.2245
2 0 37 -6.4878 -3.6925
2 0 38 0.8514 2.6101
2 0 39 -4.8398 6.2445
2 0 40 -5.3233 9.0270
2 0 41 2.5821 14.0831
2 0 42 -4.6185 7.2274
2 0 43 -1.0417 -2.2848
2 0 44 -4.6483 -0.2430
2 0 45 -4.8026 4.2582
2 1 0 -53.2826 -18.1614
2 1 2 -32.3543 -4.8182
2 1 3 28.3686 15.1858
2 1 4 -17.1084 5.0723
2 1 5 -0.5163 -9.5954
2 1 6 -37.6979 -40.5595
2 1 7 -13.6841 22.9001
2 1 8 -5.1203 -8.6564
2 1 9 -4.1901 -5.9033
2 1 10 15.0761 17.3094
2 1 11 7.4617 26.2858
2 1 12 6.6862 9.8580
2 1 13 7.9474 2.3743
2 1 14 10.4408 -31.3399
2 1 15 6.4771 35.5105
2 1 16 8.5617 19.3832
2 1 17 10.3812 -10.3278
2 1 18 -5.1366 9.9989
2 1 19 -7.5193 4.6356
2 1 20 -4.7429 -3.2236
2 1 21 2.5008 -7.8660
2 1 22 -15.5677 -17.9440
2 1 23 2.9638 12.3811
2 1 24 -4.0993 6.9085
2 1 25 -0.2561 -1.1970
2 1 26 18.7876 -10.4368
2 1 27 2.4727 5.0648
2 1 28 9.1882 -7.2348
2 1 29 -6.6866 0.6184
2 1 30 3.0671 5.1055
2 1 31 3.4114 3.9102
2 1 32 -3.6733 3.7635
2 1 33 1.0968 1.5174
2 1 34 -1.1135 -0.2642
2 1 35 4.3355 -10.2923
2 1 36 -8.1600 -3.7013
2 1 37 1.1511 -5.8059
2 1 38 -14.2156 2.4201
2 1 39 -10.9224 -0.8617
2 1 40 -1.9057 -2.7406
2 1 41 2.5949 1.1664
2 1 42 0.7404 1.1175
2 1 43 0.6959 -7.3810
2 1 44 0.9328 9.6332
2 1 45 -2.0009 5.0020
2 2 0 -17.2267 -0.8268
2 2 1 -23.0432 7.8239
2 2 2 7.3226 11.7040
2 2 3 48.5304 -50.9846
2 2 4 -2.4101 7.7994
2 2 5 -7.7953 -30.6626
2 2 6 11.8557 -0.6232
2 2 7 8.9373 1.5212
2 2 8 -38.4301 13.2488
2 2 9 -8.7386 -4.5320
2 2 10 -6.2099 9.2943
2 2 11 15.5553 11.6376
2 2 12 5.0522 1.0719
2 2 13 -23.4877 11.8945
2 2 14 -17.9245 8.4109
2 2 15 6.0020 -2.3316
2 2 16 -28.2402 -8.2638
2 2 17 13.9392 -9.9384
2 2 18 -0.9762 -8.5746
2 2 19 3.2981 -12.0864
2 2 20 8.6543 3.2373
2 2 21 -4.8585 -7.3135
2 2 22 -11.4935 0.2046
2 2 23 -0.2636 2.4138
2 2 24 -3.9261 25.8176
2 2 25 17.1320 -1.3047
2 2 26 -0.5712 6.5647
2 2 27 -5.0247 0.4457
2 2 28 -5.7403 -2.2509
2 2 29 6.7841 5.1791
2 2 30 -9.0035 -4.0959
2 2 31 -7.2483 1.5052
2 2 32 6.3974 -4.2888
2 2 33 10.5784 -3.9292
2 2 34 3.0927 2.4274
2 2 35 3.1604 -5.7821
2 2 36 0.3223 -7.7771
2 2 37 -0.1703 -6.7755
2 2 38 -0.7819 6.2606
2 2 39 -3.7819 0.1080
2 2 40 4.9209 4.5350
2 2 41 -1.5882 3.3898
2 2 42 -4.0237 -2.1601
2 2 43 -7.5985 -1.0037
2 2 44 -3.7482 5.1931
2 2 45 -9.7427 2.6555
2 3 0 11.7723 -8.1057
2 3 1 28.6604 21.9907
2 3 2 -6.1796 18.5925
2 3 3 16.5870 2.8641
2 3 4 5.3076 -7.8572
2 3 5 -16.7029 -26.6945
2 3 6 24.2479 6.0897
2 3 7 -10.1560 -7.4637
2 3 8 -1.9411 -9.5113
2 3 9 0.7521 13.2121
2 3 10 -16.1295 17.6640
2 3 11 -12.6035 -17.3972
2 3 12 2.2056 -20.8293
2 3 13 0.5206 -12.6014
2 3 14 9.8198 1.3490
2 3 15 17.8379 9.4563
2 3 16 15.4896 -4.2454
2 3 17 -3.3870 -11.3282
2 3 18 6.0741 24.7738
2 3 19 3.6075 -20.6435
2 3 20 -0.2028 -11.1677
2 3 21 -15.2295 -9.4620
2 3 22 -3.7779 11.0703
2 3 23 -9.7322 7.1409
2 3 24 -0.1349 -1.3668
2 3 25 -3.0742 -8.1350
2 3 26 3.2911 7.4907
2 3 27 -14.6024 -7.0925
2 3 28 3.9302 -3.3329
2 3 29 4.7363 -1.1696
2 3 30 5.7184 5.1142
2 3 31 -0.9617 1.7751
2 3 32 2.9296 9.5318
2 3 33 4.2585 6.1434
2 3 34 2.7355 -6.0660
2 3 35 -2.6542 -2.2513
2 3 36 -1.0130 4.9166
2 3 37 -3.9459 -3.3494
2 3 38 -4.3282 2.3469
2 3 39 -0.1525 -1.8987
2 3 40 1.8812 0.6734
2 3 41 -1.9051 -0.2345
2 3 42 -7.3856 -8.5056
2 3 43 1.5705 0.6708
2 3 44 -1.9648 -1.6382
2 3 45 -2.6632 3.4136
2 4 0 -20.0800 -4.0753
2 4 1 26.5285 1.7036
2 4 2 16.1513 -4.9086
2 4 3 6.7068 5.6731
2 4 4 0.0040 22.6477
2 4 5 10.9391 -5.8996
2 4 6 3.8675 8.9813
2 4 7 -29.4420 -4.2943
2 4 8 -0.1980 -25.9566
2 4 9 10.5290 -0.2210
2 4 10 14.4299 -7.2180
2 4 11 8.0493 -4.6539
2 4 12 -9.9368 30.3227
2 4 13 -1.6253 7.3872
2 4 14 1.5002 -1.5563
2 4 15 -3.4685 9.6166
2 4 16 -1.5139 -1.2731
2 4 17 16.7138 0.0238
2 4 18 11.7963 -7.9960
2 4 19 -7.9023 3.3485
2 4 20 9.4975 -15.2961
2 4 21 -14.2104 0.3852
2 4 22 3.1903 3.3101
2 4 23 2.0395 1.0804
2 4 24 9.2110 -14.3374
2 4 25 -3.3958 -5.6850
2 4 26 0.0449 2.4817
2 4 27 0.9919 5.5550
2 4 28 6.0238 1.7274
2 4 29 -10.0908 6.2673
2 4 30 -9.4852 -2.0186
2 4 31 3.7446 1.9783
2 4 32 4.4893 -0.7084
2 4 33 -5.2697 3.3809
2 4 34 -0.0107 -9.8830
2 4 35 3.0274 0.7024
2 4 36 -5.0620 3.0592
2 4 37 -0.0246 3.9350
2 4 38 0.5644 -1.7363
2 4 39 -4.3970 -5.1252
2 4 40 6.0386 -0.0793
2 4 41 -2.4175 -4.7372
2 4 42 -0.4589 -0.3752
2 4 43 -1.9039 -3.1229
2 4 44 -7.8707 6.4422
2 5 0 6.6351 2.6289
2 5 1 -23.4082 33.3613
2 5 2 -9.3064 -0.6439
2 5 3 -6.3288 -3.5090
2 5 4 -7.1508 -3.8856
2 5 5 9.3692 0.4053
2 5 6 17.7816 -4.9159
2 5 7 8.1331 -0.2036
2 5 8 13.6690 6.2139
2 5 9 -16.6823 16.9036
2 5 10 -18.6273 -9.1196
2 5 11 6.0656 -8.9846
2 5 12 -6.8103 -3.2131
2 5 13 -6.7656 0.8215
2 5 14 17.9254 12.2918
2 5 15 -11.0516 -1.4700
2 5 16 -0.5542 4.7719
2 5 17 17.3293 3.6632
2 5 18 1.2537 -2.5533
2 5 19 -6.7631 -13.5748
2 5 20 -6.2768 1.7486
2 5 21 13.0724 18.0977
2 5 22 1.0595 -7.5286
2 5 23 9.5057 1.2356
2 5 24 -1.2809 2.9185
2 5 25 -8.9434 4.6452
2 5 26 -8.2392 -2.1672
2 5 27 3.9773 -0.9492
2 5 28 3.8461 -2.7746
2 5 29 -6.2975 3.0473
2 5 30 -1.5452 -0.9874
2 5 31 6.8952 1.6369
2 5 32 2.0671 2.7801
2 5 33 -4.2990 -7.2373
2 5 34 -6.7242 0.0704
2 5 35 -0.8640 4.7101
2 5 36 -5.2604 -4.2754
2 5 37 4.2516 -2.1733
2 5 38 2.5844 5.6190
2 5 39 1.0758 -1.9028
2 5 40 -0.1979 -1.3366
2 5 41 -1.3790 -2.6137
2 5 42 3.8063 -9.5975
2 5 43 -3.1757 3.8521
2 5 44 3.1170 4.4308
2 6 0 -0.4726 5.8135
2 6 1 11.1611 -17.4726
2 6 2 -24.6083 -4.7681
2 6 3 11.7315 16.5513
2 6 4 -5.0782 7.7062
2 6 5 9.0698 14.4606
2 6 6 -17.3956 2.1054
2 6 7 -5.8481 -14.5982
2 6 8 2.2738 -9.0162
2 6 9 9.3623 -5.0013
2 6 10 -1.8555 -0.4431
2 6 11 -1.2644 10.0379
2 6 12 -1.6396 -5.9749
2 6 13 -3.9710 -13.5804
2 6 14 0.3771 16.9713
2 6 15 4.2671 11.2097
2 6 16 15.5609 -13.0849
2 6 17 -0.9180 5.9347
2 6 18 -4.2391 -3.5125
2 6 19 -2.7415 -0.3604
2 6 20 1.3648 11.6307
2 6 21 -4.5992 10.5130
2 6 22 -1.8003 -11.8777
2 6 23 3.0134 -14.2250
2 6 24 -10.9250 4.8372
2 6 25 0.0926 1.7613
2 6 26 4.5864 -0.0641
2 6 27 -7.0443 -0.9814
2 6 28 -3.8996 2.8168
2 6 29 -1.8110 -1.5897
2 6 30 2.8951 0.3532
2 6 31 1.6169 2.9103
2 6 32 -3.6986 -7.9585
2 6 33 -0.6018 -8.5461
2 6 34 3.2969 0.8633
2 6 35 -6.4632 5.3245
2 6 36 -0.8188 -5.7933
2 6 37 1.2203 -2.2332
2 6 38 -1.2945 1.3543
2 6 39 5.3658 0.7043
2 6 40 4.9471 -0.3027
2 6 41 -5.2083 -0.2651
2 6 42 -2.2184 4.0240
2 6 43 -3.0563 5.9538
2 7 0 -6.8148 -0.8551
2 7 1 -14.5922 -10.8904
2 7 2 8.0768 0.6484
2 7 3 -21.3776 -11.2670
2 7 4 5.1369 12.3642
2 7 5 18.1292 -22.5237
2 7 6 4.0477 7.2803
2 7 7 0.8039 -4.9375
2 7 8 -7.0314 12.3294
2 7 9 3.3345 -2.3662
2 7 10 15.7574 -9.0149
2 7 11 -2.4586 0.8889
2 7 12 -4.7374 13.8843
2 7 13 -1.8459 13.9384
2 7 14 -6.5527 -0.4560
2 7 15 -0.5098 7.3370
2 7 16 13.6968 -3.1490
2 7 17 -12.7110 -3.5229
2 7 18 -18.6304 -3.1971
2 7 19 10.3562 4.9678
2 7 20 6.6463 0.1569
2 7 21 6.1920 -9.9559
2 7 22 -0.0691 -3.8916
2 7 23 0.6193 1.3713
2 7 24 -14.0386 -2.8472
2 7 25 3.4993 -8.4466
2 7 26 6.2654 -2.2558
2 7 27 -3.6362 -1.0579
2 7 28 -4.4256 -3.9741
2 7 29 1.8102 5.6004
2 7 30 8.3629 -4.2543
2 7 31 -3.1986 2.2176
2 7 32 -3.3553 -4.4159
2 7 33 6.2854 -0.4810
2 7 34 2.6081 -0.0424
2 7 35 -0.5938 -0.8702
2 7 36 1.6685 1.4504
2 7 37 5.6165 4.3462
2 7 38 -8.9509 -1.1750
2 7 39 3.0390 -1.9929
2 7 40 -2.5090 -3.2116
2 7 41 -5.7989 -3.7493
2 7 42 -5.4678 3.1860
2 8 0 16.6253 1.3103
2 8 1 -12.1458 -10.0766
2 8 2 7.0263 17.2030
2 8 3 5.9025 11.0576
2 8 4 7.4413 -13.3653
2 8 5 -19.7786 9.0017
2 8 6 9.7086 -10.3535
2 8 7 -5.3991 5.2506
2 8 8 12.2823 18.0821
2 8 9 -16.5206 3.3705
2 8 10 -12.6430 -3.9093
2 8 11 -7.2324 -12.3018
2 8 12 -12.2146 -4.4283
2 8 13 4.3126 10.8299
2 8 14 8.7206 -5.1269
2 8 15 4.0653 -11.9865
2 8 16 -9.9061 0.3851
2 8 17 4.4623 3.3640
2 8 18 1.7679 -0.1580
2 8 19 3.4225 15.7563
2 8 20 6.0913 -1.3303
2 8 21 4.0819 -17.8757
2 8 22 1.9891 -0.3314
2 8 23 0.9703 4.7706
2 8 24 11.1485 0.0539
2 8 25 2.2293 -6.3834
2 8 26 -4.1163 10.5679
2 8 27 -0.0020 -6.6315
2 8 28 -0.3051 -1.9646
2 8 29 1.9729 0.4345
2 8 30 -4.8997 -1.0929
2 8 31 2.4533 0.3996
2 8 32 -3.4083 -0.4053
2 8 33 0.6803 5.0343
2 8 34 -6.5990 2.4580
2 8 35 0.1024 -5.6468
2 8 36 0.8952 -1.4507
2 8 37 1.2415 4.4063
2 8 38 5.8183 -3.3441
2 8 39 -0.1837 -11.0388
2 8 40 -2.8086 7.1492
2 8 41 -2.4983 -3.0611
2 9 0 -11.8107 0.8552
2 9 1 7.8115 6.2638
2 9 2 -0.7641 -15.8136
2 9 3 5.8636 8.1747
2 9 4 12.6945 -5.7769
2 9 5 -17.3401 2.7562
2 9 6 -23.6139 -0.3500
2 9 7 13.1441 2.3024
2 9 8 1.4504 -27.7926
2 9 9 8.7667 -4.6597
2 9 10 7.7064 -2.0042
2 9 11 -3.2613 16.4186
2 9 12 2.4464 4.3258
2 9 13 -1.2769 -5.6099
2 9 14 3.4823 9.0290
2 9 15 -2.3701 -3.3803
2 9 16 -13.2471 -4.5459
2 9 17 -3.3119 9.7056
2 9 18 10.5447 11.0502
2 9 19 2.8742 -3.2389
2 9 20 -3.7825 0.6064
2 9 21 6.6192 10.2561
2 9 22 -3.8486 4.8266
2 9 23 -8.7389 -2.1931
2 9 24 4.9600 0.6655
2 9 25 4.5474 -0.6621
2 9 26 -3.6126 -4.2460
2 9 27 -1.0723 -0.2139
2 9 28 13.4599 -1.1666
2 9 29 -8.9859 -6.2522
2 9 30 -1.0404 0.1092
2 9 31 4.3283 -5.3948
2 9 32 2.2282 -1.8601
2 9 33 0.7020 -2.1760
2 9 34 -1.8935 -0.9649
2 9 35 2.3640 1.5463
2 9 36 4.9417 2.9728
2 9 37 -0.7892 2.0152
2 9 38 -6.1492 1.1232
2 9 39 -0.0251 0.2892
2 10 0 5.5278 2.8268
2 10 1 0.2810 17.0259
2 10 2 3.4532 -5.4441
2 10 3 -3.4494 -28.0482
2 10 4 -19.2144 5.1661
2 10 5 19.5272 -0.8345
2 10 6 10.1816 2.2560
2 10 7 -5.2166 20.7637
2 10 8 -10.4252 5.7787
2 10 9 -3.3768 -15.1942
2 10 10 -13.5162 7.2773
2 10 11 0.5713 -0.0481
2 10 12 -2.6262 -9.5332
2 10 13 7.4781 -5.8217
2 10 14 -6.0426 -1.5985
2 10 15 -7.3400 5.7937
2 10 16 4.3638 -5.7877
2 10 17 -4.5176 1.6212
2 10 18 -11.5538 4.5781
2 10 19 4.1105 -6.1197
2 10 20 -2.6612 -4.8518
2 10 21 -5.4117 4.9654
2 10 22 2.6998 0.2385
2 10 23 7.9045 -5.9301
2 10 24 0.2237 -0.1659
2 10 25 -6.3150 9.1772
2 10 26 9.9288 -5.6414
2 10 27 1.5838 -2.5075
2 10 28 2.0162 7.2954
2 10 29 -0.0936 7.0345
2 10 30 1.8572 -4.9049
2 10 31 2.7685 8.4139
2 10 32 4.5167 -2.1067
2 10 33 -1.2676 -1.1564
2 10 34 -2.0682 3.5368
2 10 35 0.6662 -1.4693
2 10 36 -5.6805 -5.6376
2 10 37 0.9468 -10.3467
2 10 38 -4.6989 -6.1729
2 11 0 17.4937 -1.1683
2 11 1 8.5652 -10.4016
2 11 2 0.5945 -8.4060
2 11 3 3.0045 6.5284
2 11 4 -19.0577 -5.4511
2 11 5 -16.3107 -7.3229
2 11 6 19.1611 -5.3161
2 11 7 -4.9783 -20.7947
2 11 8 -4.2961 -3.8467
2 11 9 16.0662 9.5155
2 11 10 6.2020 -4.6478
2 11 11 -8.1490 -8.7558
2 11 12 4.8626 7.8723
2 11 13 -3.4736 5.3772
2 11 14 -2.8946 -2.5829
2 11 15 2.2363 -12.5829
2 11 16 6.8397 5.0655
2 11 17 -0.1166 -0.8904
2 11 18 -12.9726 -7.9491
2 11 19 1.5639 2.0100
2 11 20 8.0905 13.0713
2 11 21 -5.1981 -3.1985
2 11 22 2.8254 -2.4803
2 11 23 6.1949 2.0508
2 11 24 -2.6168 2.6059
2 11 25 -1.8223 1.2362
2 11 26 -6.8209 -2.7379
2 11 27 1.6626 2.4605
2 11 28 -12.8164 -7.0913
2 11 29 2.0199 9.2903
2 11 30 5.1237 0.0258
2 11 31 -0.5076 4.1425
2 11 32 -7.2116 1.9974
2 11 33 8.4113 -3.4834
2 11 34 6.6512 -1.8025
2 11 35 8.6807 0.0067
2 11 36 6.0686 0.0671
2 12 0 12.8620 6.9455
2 12 1 -3.4082 -13.3124
2 12 2 4.3696 -17.0544
2 12 3 11.6173 5.6284
2 12 4 14.6482 3.9358
2 12 5 12.6210 -4.0948
2 12 6 -13.1497 11.5477
2 12 7 3.3268 5.8567
2 12 8 8.3240 -6.7409
2 12 9 -4.1590 8.1583
2 12 10 -8.7215 -3.2871
2 12 11 3.5400 -17.2193
2 12 12 -1.0347 3.4110
2 12 13 -0.1666 15.1134
2 12 14 8.1181 -9.3599
2 12 15 8.1542 -9.3935
2 12 16 -7.9624 -8.0322
2 12 17 -8.7680 -1.7226
2 12 18 2.4020 -4.4981
2 12 19 -2.2090 6.9969
2 12 20 -2.5306 9.1403
2 12 21 1.1151 -0.6199
2 12 22 1.4754 -6.9580
2 12 23 -4.2437 9.2998
2 12 24 -0.4932 -10.3814
2 12 25 6.2294 -8.1106
2 12 26 3.1566 1.3583
2 12 27 -3.3168 0.9899
2 12 28 -7.1351 5.1777
2 12 29 -1.1791 -7.1423
2 12 30 -3.3651 7.0482
2 12 31 6.4711 -1.7672
2 12 32 -7.3651 7.2410
2 12 33 1.3351 10.2883
2 12 34 2.9578 5.6977
2 13 0 17.5237 0.9894
2 13 1 -9.7845 10.7226
2 13 2 3.2435 7.0925
2 13 3 -6.5268 7.2922
2 13 4 -3.0229 -7.7304
2 13 5 5.1270 -4.9891
2 13 6 -8.8486 2.7791
2 13 7 -1.5313 -2.2724
2 13 8 15.9424 8.0197
2 13 9 2.3156 -10.7538
2 13 10 -5.8131 2.0908
2 13 11 -0.3816 13.4634
2 13 12 6.0498 13.6635
2 13 13 2.5384 -8.2640
2 13 14 17.6503 -2.6753
2 13 15 12.4585 2.8201
2 13 16 -13.4729 -3.4880
2 13 17 -5.1781 -9.5644
2 13 18 0.0551 9.9198
2 13 19 -0.9216 -3.3511
2 13 20 -7.9644 -8.4218
2 13 21 8.4872 -4.6074
2 13 22 3.4365 0.2699
2 13 23 3.4024 6.4658
2 13 24 -7.8679 1.7457
2 13 25 9.4320 -5.6053
2 13 26 -12.6782 -2.7996
2 13 27 2.0911 0.2795
2 13 28 4.5843 -1.0067
2 13 29 -2.6477 -0.0234
2 13 30 -6.6192 -0.5984
2 13 31 -10.9824 1.1064
2 14 0 -15.3365 -3.1945
2 14 1 3.9059 3.7845
2 14 2 12.8390 -7.0949
2 14 3 5.7239 5.2789
2 14 4 -5.4585 -2.7103
2 14 5 -0.1294 0.4184
2 14 6 -2.3767 7.2481
2 14 7 -2.5958 -1.7002
2 14 8 -8.7143 4.9774
2 14 9 -16.6776 -9.0473
2 14 10 1.0397 -4.6550
2 14 11 -7.4916 16.0115
2 14 12 -1.6645 9.8302
2 14 13 1.1730 -0.5982
2 14 14 6.2559 -8.8811
2 14 15 -8.6823 4.6676
2 14 16 1.2749 -10.1932
2 14 17 12.5064 -6.6306
2 14 18 8.2279 9.1421
2 14 19 2.9668 -0.9794
2 14 20 7.5684 -2.8593
2 14 21 -9.0418 3.9593
2 14 22 -0.3038 6.1231
2 14 23 5.5253 -12.8901
2 14 24 -2.6005 2.3720
2 14 25 2.5166 -0.8719
2 14 26 -2.5185 9.3802
2 14 27 -4.6983 -12.3783
2 14 28 -1.6036 5.5082
2 15 0 -0.6640 -2.4477
2 15 1 -7.7891 12.3021
2 15 2 1.5827 3.4148
2 15 3 3.0498 -6.8318
2 15 4 -11.0743 -9.9918
2 15 5 1.6660 -1.8548
2 15 6 10.4024 -3.7714
2 15 7 -0.7111 -13.7873
2 15 8 5.5094 -4.7757
2 15 9 -8.4496 -1.6909
2 15 10 3.7159 -4.5031
2 15 11 -4.8698 0.2729
2 15 12 2.1058 -7.9935
2 15 13 11.4368 4.4901
2 15 14 1.9486 8.2528
2 15 15 -3.7462 6.2013
2 15 16 -0.4136 6.4816
2 15 17 9.2172 13.6211
2 15 18 -9.7046 -0.6118
2 15 19 -6.6693 -12.1970
2 15 20 8.4574 3.8704
2 15 21 -2.1297 1.7426
2 15 22 -4.3062 0.6532
2 15 23 2.3848 -1.4456
2 15 24 2.3206 -7.1551
2 15 25 -10.0170 -7.5069
2 16 0 -1.3795 1.7421
2 16 1 16.7329 -10.6058
2 16 2 -9.0690 -0.6163
2 16 3 4.9845 12.0891
2 16 4 2.4688 -3.1797
2 16 5 3.0411 -0.0643
2 16 6 -3.6223 9.0640
2 16 7 4.3486 -3.4429
2 16 8 8.1265 -8.9341
2 16 9 -0.8683 9.3134
2 16 10 -0.8622 -0.0963
2 16 11 -5.4929 3.7823
2 16 12 -10.4579 -6.2371
2 16 13 -2.6928 4.2348
2 16 14 -10.2173 2.9430
2 16 15 -3.0566 -5.7967
2 16 16 9.0140 -3.6793
2 16 17 3.9615 4.5352
2 16 18 2.6595 -7.0061
2 16 19 -2.6713 -6.6529
2 16 20 -1.5666 4.5710
2 16 21 0.0296 3.5984
2 17 0 -7.2895 3.7651
2 17 1 -1.8268 -4.5503
2 17 2 3.0613 -3.8341
2 17 3 -6.7599 -14.4057
2 17 4 4.3797 11.0068
2 17 5 11.4990 -4.3118
2 17 6 -7.3967 2.5361
2 17 7 -1.8078 -1.4422
2 17 8 9.3877 -1.2503
2 17 9 1.4204 -13.0389
2 17 10 -0.6989 -11.6685
2 17 11 4.8474 0.9585
2 17 12 2.7737 0.0193
2 17 13 -1.7993 1.4851
2 17 14 -1.9665 8.6216
2 17 15 4.5508 6.1835
2 18 0 16.9206 -5.5625
2 18 1 -4.0205 5.0931
2 18 2 7.0893 11.0571
3 0 1 -4.6037 43.2455
3 0 2 7.9842 0.0764
3 0 3 -5.5242 -11.7423
3 0 4 19.0065 -8.7488
3 0 5 -11.9212 20.0690
3 0 6 9.3232 -6.5380
3 0 7 -10.6936 -33.3182
3 0 8 -5.2196 -3.1266
3 0 9 3.3751 38.0469
3 0 10 -19.4483 2.1136
3 0 11 17.4876 3.9098
3 0 12 11.3685 1.8861
3 0 13 6.6727 -3.2783
3 0 14 6.0558 3.5668
3 0 15 -5.5747 -6.7644
3 0 16 8.4822 3.5308
3 0 17 2.0047 2.7439
3 0 18 1.8443 -1.2691
3 0 19 3.6486 -8.7693
3 0 20 6.0650 -4.7825
3 0 21 -13.8379 -9.9447
3 0 22 4.3542 -3.2049
3 0 23 -13.6602 12.1348
3 0 24 9.8337 -1.1213
3 0 25 7.2629 1.3032
3 0 26 4.5707 -0.2039
3 0 27 14.5283 6.5488
3 0 28 4.2255 3.5834
3 0 29 0.8274 -6.8817
3 0 30 -2.4318 5.2709
3 0 31 -2.0157 2.6676
3 0 32 0.7058 1.3531
3 0 33 4.0583 0.0626
3 0 34 6.7697 -2.4805
3 0 35 -1.5738 2.3338
3 0 36 -6.5881 -3.5860
3 0 37 -11.1943 -12.6672
3 0 38 -6.1076 -3.9212
3 0 39 -6.9780 7.6238
3 0 40 3.1951 -2.4395
3 0 41 4.6144 3.0640
3 0 42 -3.9284 1.6671
3 0 43 7.8649 9.2672
3 0 44 -2.8483 3.9513
3 0 45 4.1615 10.6445
3 1 0 5.0289 2.8840
3 1 1 -1.3080 -0.4847
3 1 2 -2.4282 20.3794
3 1 3 34.7705 -1.5456
3 1 4 -5.7162 2.8899
3 1 5 16.1653 10.9643
3 1 6 0.1694 -17.9816
3 1 7 -8.9094 -2.1322
3 1 8 -37.3622 -11.4361
3 1 9 -20.7911 17.7566
3 1 10 11.6933 17.4821
3 1 11 9.8247 -0.7013
3 1 12 -18.3948 9.4493
3 1 13 -11.7997 -13.9213
3 1 14 14.3404 1.2150
3 1 15 -1.4719 -2.4989
3 1 16 3.6213 -7.4700
3 1 17 -1.8173 3.6955
3 1 18 24.0721 -6.0204
3 1 19 12.6058 -4.1306
3 1 20 -9.4584 -6.5927
3 1 21 -8.3132 -2.4423
3 1 22 -0.3562 -2.6232
3 1 23 6.4228 18.6727
3 1 24 -10.8703 -2.8137
3 1 25 -0.7823 23.5591
3 1 26 -4.8444 -3.1078
3 1 27 4.7222 8.0391
3 1 28 -3.2295 -0.3086
3 1 29 -0.0166 -7.0457
3 1 30 2.2221 -2.1806
3 1 31 -4.4037 -0.0802
3 1 32 4.4290 5.0199
3 1 33 -2.3121 -4.0674
3 1 34 3.2522 -6.3328
3 1 35 3.9039 -8.2537
3 1 36 -0.9209 -7.4887
3 1 37 -0.7376 -1.9896
3 1 38 -3.0004 3.6942
3 1 39 -11.4573 5.6399
3 1 40 -0.1624 1.4077
3 1 41 -1.6703 7.1247
3 1 42 -9.3538 1.0704
3 1 43 -4.4192 0.1905
3 1 44 -2.7208 2.6602
3 1 45 1.6581 -7.0902
3 2 0 4.8950 43.0732
3 2 1 -25.9327 12.4450
3 2 2 -9.7468 -5.0920
3 2 3 4.1983 20.7286
3 2 4 27.5675 28.5116
3 2 5 -1.2584 -56.1420
3 2 6 10.8741 -20.4400
3 2 7 -10.5301 -6.4230
3 2 8 -26.7505 10.9063
3 2 9 -0.7522 -5.1685
3 2 10 1.8411 -18.1719
3 2 11 9.8199 -2.7592
3 2 12 14.5749 -0.9549
3 2 13 -2.4004 2.3819
3 2 14 14.4523 -0.9467
3 2 15 -1.4474 14.8860
3 2 16 5.7412 10.4264
3 2 17 0.9999 9.2290
3 2 18 1.4033 -10.3972
3 2 19 8.5771 -4.8831
3 2 20 -3.3381 -4.4711
3 2 21 -11.4239 -1.4849
3 2 22 -5.9384 6.5729
3 2 23 -9.9891 -10.0478
3 2 24 -10.9681 -2.5508
3 2 25 2.0946 -4.5920
3 2 26 -10.8324 11.1106
3 2 27 20.2193 -1.2200
3 2 28 -4.0466 -3.4470
3 2 29 6.6750 -0.7337
3 2 30 -4.7263 6.6621
3 2 31 0.8460 -2.6249
3 2 32 2.9331 -5.6883
3 2 33 5.5582 3.3816
3 2 34 7.9807 0.6049
3 2 35 -4.4373 -1.4139
3 2 36 -1.0136 -8.3903
3 2 37 -4.6152 -8.0206
3 2 38 -3.0348 2.2037
3 2 39 -6.1511 -2.0343
3 2 40 -1.2233 -5.4200
3 2 41 0.0303 7.3942
3 2 42 -0.7850 -4.8532
3 2 43 2.8488 1.9255
3 2 44 -0.9332 1.3122
3 2 45 -2.5320 3.9284
3 3 0 -8.6309 -5.5719
3 3 1 -21.3076 34.3482
3 3 2 24.5757 3.9197
3 3 3 9.8537 21.3529
3 3 4 5.1497 8.5975
3 3 5 13.3388 -19.5378
3 3 6 3.5572 -23.5856
3 3 7 -29.2885 7.0830
3 3 8 23.3323 -4.2394
3 3 9 21.4977 18.6127
3 3 10 -3.0193 13.4466
3 3 11 -0.4049 -0.4057
3 3 12 -14.9504 6.2410
3 3 13 5.4017 11.4592
3 3 14 -9.7658 -12.4720
3 3 15 -4.3673 8.2406
3 3 16 6.4026 -3.2198
3 3 17 18.1530 6.3803
3 3 18 9.2167 -7.4008
3 3 19 -12.2644 -5.1808
3 3 20 -1.2171 -5.7948
3 3 21 10.0906 -10.8615
3 3 22 10.4128 -6.5309
3 3 23 -10.0598 1.8096
3 3 24 0.9510 -4.8778
3 3 25 -4.1414 13.8003
3 3 26 5.2655 7.8308
3 3 27 -5.1608 -3.8597
3 3 28 -0.2751 2.8239
3 3 29 5.3442 -10.8734
3 3 30 -1.9111 9.4843
3 3 31 2.6453 -0.9201
3 3 32 2.1397 2.7401
3 3 33 -3.5142 -4.1064
3 3 34 5.7983 -0.1744
3 3 35 8.0171 -1.0754
3 3 36 1.3709 -6.4944
3 3 37 -6.2750 4.5746
3 3 38 -2.7482 -0.9374
3 3 39 -5.0142 3.5851
3 3 40 4.4795 0.4169
3 3 41 -2.4588 4.8326
3 3 42 -7.8793 -2.1355
3 3 43 4.4419 -1.0191
3 3 44 -12.0334 1.2436
3 4 0 5.7421 9.2865
3 4 1 -39.8161 -5.8652
3 4 2 8.8490 14.8991
3 4 3 24.1591 10.4362
3 4 4 -2.6311 -36.9510
3 4 5 8.5192 -7.6084
3 4 6 -0.8976 27.0808
3 4 7 -20.9183 6.1797
3 4 8 -4.0552 1.4953
3 4 9 0.0209 1.0812
3 4 10 -12.6039 -11.2975
3 4 11 5.6613 -3.6862
3 4 12 -2.6537 3.9253
3 4 13 -4.3781 -10.2529
3 4 14 0.5772 27.4991
3 4 15 11.9345 9.8877
3 4 16 -12.8327 4.6901
3 4 17 14.7225 -3.5274
3 4 18 1.8201 0.2305
3 4 19 8.2036 10.1812
3 4 20 -1.0821 -2.5395
3 4 21 3.3799 12.0934
3 4 22 -2.9946 -8.4422
3 4 23 -15.1087 -2.0344
3 4 24 -5.5832 -0.8557
3 4 25 5.1389 6.6685
3 4 26 -2.7668 -6.0263
3 4 27 6.0272 0.7114
3 4 28 -3.1311 1.9979
3 4 29 -4.0232 4.3971
3 4 30 4.1780 -1.7327
3 4 31 3.2577 -10.5477
3 4 32 3.3635 14.0383
3 4 33 -1.2395 3.4983
3 4 34 -1.8956 -4.8203
3 4 35 -3.1237 -1.6481
3 4 36 -5.4509 -8.4775
3 4 37 -6.0127 0.3038
3 4 38 -9.6437 1.2350
3 4 39 2.8372 3.3618
3 4 40 -0.3858 -4.5578
3 4 41 -3.3780 2.0364
3 4 42 -4.3297 -7.4024
3 4 43 -0.6062 -3.2334
3 4 44 -3.9033 3.8807
3 5 0 3.1939 10.4653
3 5 1 10.7202 18.7690
3 5 2 20.4018 -19.1906
3 5 3 -6.0223 24.7239
3 5 4 8.1179 -14.6240
3 5 5 -11.5520 -9.3899
3 5 6 -15.6213 4.7098
3 5 7 9.6041 -8.3017
3 5 8 24.4330 -1.5673
3 5 9 -5.3821 2.7836
3 5 10 1.9084 -18.0268
3 5 11 -6.8895 3.6698
3 5 12 -12.7703 7.8068
3 5 13 -8.0444 -7.1923
3 5 14 -3.2705 5.1386
3 5 15 -8.8617 2.9649
3 5 16 12.5367 0.6111
3 5 17 -8.7084 -5.5693
3 5 18 -13.3671 16.9347
3 5 19 -3.0403 -11.4502
3 5 20 3.9882 -4.5037
3 5 21 2.5518 -12.1245
3 5 22 -11.9140 -3.0984
3 5 23 10.6395 0.2005
3 5 24 -2.0905 -0.0567
3 5 25 -0.3698 5.5167
3 5 26 -2.4385 -10.3049
3 5 27 0.3190 -3.1041
3 5 28 4.0937 9.4910
3 5 29 1.0447 4.1278
3 5 30 -2.8235 -0.3338
3 5 31 -1.9143 -1.5623
3 5 32 1.3412 1.3711
3 5 33 -2.3755 -9.0399
3 5 34 14.0987 -4.3109
3 5 35 -5.5225 -12.3761
3 5 36 -8.2943 -0.9023
3 5 37 1.2000 -3.1385
3 5 38 -4.8371 1.2141
3 5 39 2.3227 -4.2150
3 5 40 -0.4579 -3.7045
3 5 41 2.7130 -6.5112
3 5 42 -1.7203 -4.8101
3 5 43 3.5490 4.3933
3 6 0 1.3793 18.2960
3 6 1 -5.8841 1.5978
3 6 2 9.0181 7.4864
3 6 3 4.2292 -16.2501
3 6 4 -15.9351 -6.7116
3 6 5 17.9381 29.1305
3 6 6 -11.1395 4.7431
3 6 7 8.5031 9.7227
3 6 8 13.9014 -2.9691
3 6 9 -5.5607 -2.6749
3 6 10 2.1626 -4.6752
3 6 11 -2.0557 1.1416
3 6 12 -12.4687 -3.2644
3 6 13 14.6571 4.5654
3 6 14 4.4530 2.1850
3 6 15 -13.8907 -11.9605
3 6 16 3.4117 -6.7287
3 6 17 5.3512 0.7933
3 6 18 6.8687 -9.6030
3 6 19 9.0115 -2.8406
3 6 20 13.0481 4.0899
3 6 21 -10.4303 -0.3155
3 6 22 -0.1472 -3.1662
3 6 23 4.6770 2.2280
3 6 24 6.6082 -1.0788
3 6 25 0.9233 -7.1824
3 6 26 -8.0109 5.7770
3 6 27 2.4432 4.1700
3 6 28 -7.1822 -2.0563
3 6 29 1.9301 -0.7342
3 6 30 3.8486 -4.3855
3 6 31 1.4224 6.9728
3 6 32 2.8744 0.9523
3 6 33 5.6427 -6.1080
3 6 34 9.0144 -2.9510
3 6 35 -9.3961 0.4563
3 6 36 1.8518 -8.9713
3 6 37 -1.7295 3.0917
3 6 38 13.8556 -0.9273
3 6 39 -0.0203 -1.4904
3 6 40 2.7347 4.4005
3 6 41 -0.0735 -3.2652
3 6 42 -2.6085 0.3005
3 7 0 -2.9248 6.0387
3 7 1 1.2387 -9.9736
3 7 2 -1.8591 -0.4430
3 7 3 -20.0442 2.1752
3 7 4 -5.1778 -9.3814
3 7 5 -14.5234 5.8417
3 7 6 2.1068 19.2529
3 7 7 9.0271 -13.0457
3 7 8 -16.2342 4.4472
3 7 9 -8.0318 -12.7621
3 7 10 -9.6340 -5.0607
3 7 11 1.5092 13.8221
3 7 12 4.5382 -8.0198
3 7 13 -1.9624 -1.6411
3 7 14 6.7684 5.9956
3 7 15 9.3117 -3.4864
3 7 16 6.1783 13.7980
3 7 17 -3.3814 21.9482
3 7 18 3.2315 -4.5553
3 7 19 3.1427 -3.7468
3 7 20 -4.7812 5.0729
3 7 21 3.1596 0.4665
3 7 22 13.5614 5.7200
3 7 23 0.8180 5.8908
3 7 24 -6.0956 -3.4177
3 7 25 4.0681 -5.8721
3 7 26 -5.1938 0.7231
3 7 27 3.5266 2.9935
3 7 28 2.3093 -1.8577
3 7 29 -0.6994 -7.1480
3 7 30 1.0235 6.8642
3 7 31 4.1897 3.3624
3 7 32 -4.3091 -4.6353
3 7 33 5.9857 -4.5941
3 7 34 -0.4221 -2.3050
3 7 35 -1.9091 3.6050
3 7 36 3.1641 -0.2985
3 7 37 -1.1293 8.0869
3 7 38 -4.0878 0.0032
3 7 39 5.2203 2.4456
3 7 40 -3.5424 -7.5347
3 7 41 0.4809 5.3203
3 8 0 -0.2743 -8.4369
3 8 1 10.2215 -9.9326
3 8 2 3.3620 -8.3646
3 8 3 -13.5056 -6.7860
3 8 4 -1.4463 8.2653
3 8 5 3.4314 0.2456
3 8 6 -1.4492 -27.4747
3 8 7 13.6363 -8.4254
3 8 8 12.9650 -6.5862
3 8 9 -14.8854 -1.0785
3 8 10 10.8462 2.8466
3 8 11 -1.9422 -0.8202
3 8 12 -2.3588 8.5784
3 8 13 -1.7344 3.3180
3 8 14 -25.2017 2.2133
3 8 15 -4.4350 6.3753
3 8 16 -0.4524 -4.6526
3 8 17 -5.5829 -4.0683
3 8 18 2.8573 4.1194
3 8 19 -0.8031 10.9568
3 8 20 -17.3984 6.9940
3 8 21 -1.4608 3.2532
3 8 22 7.2367 3.7682
3 8 23 -6.8990 -3.7533
3 8 24 2.9466 -5.9983
3 8 25 0.4256 11.7619
3 8 26 4.6521 4.5798
3 8 27 0.2413 -5.7203
3 8 28 -0.3534 10.5741
3 8 29 5.9412 -3.9645
3 8 30 0.8979 0.6806
3 8 31 4.0118 -0.3322
3 8 32 5.8162 -3.1056
3 8 33 1.3373 -1.3855
3 8 34 -7.7272 4.4174
3 8 35 -1.2331 -7.4428
3 8 36 -0.0133 0.7949
3 8 37 -1.0462 2.0678
3 8 38 -5.3719 -2.4924
3 8 39 -1.1608 -1.1422
3 8 40 1.1650 -2.7722
3 9 0 6.1078 -5.1257
3 9 1 -3.6897 -5.1357
3 9 2 -3.5602 -0.3260
3 9 3 8.8140 -7.1877
3 9 4 12.9392 6.7077
3 9 5 6.5743 17.7772
3 9 6 4.9982 -5.6441
3 9 7 -3.0963 -1.0688
3 9 8 -10.1481 9.8007
3 9 9 9.1227 -4.6841
3 9 10 -2.0288 -10.5394
3 9 11 -10.1067 2.0837
3 9 12 -6.1133 -21.1089
3 9 13 5.7378 -0.7630
3 9 14 11.6626 -1.6866
3 9 15 -4.4518 -3.7365
3 9 16 -2.2954 6.8804
3 9 17 -5.4527 -17.4658
3 9 18 -10.7770 -4.5774
3 9 19 -7.4180 1.7120
3 9 20 5.2932 -7.4572
3 9 21 6.0735 -0.0917
3 9 22 -5.8670 8.8831
3 9 23 -8.8234 -5.4026
3 9 24 -1.6824 -1.1617
3 9 25 -4.2142 10.0843
3 9 26 -8.0147 -4.1108
3 9 27 5.5170 4.6432
3 9 28 -4.5975 4.5286
3 9 29 -3.5913 7.1668
3 9 30 9.9911 3.5694
3 9 31 -6.4617 -8.0970
3 9 32 4.2091 2.1655
3 9 33 3.5285 -0.2375
3 9 34 -0.2058 -2.3512
3 9 35 -1.0430 -9.6140
3 9 36 6.0783 -0.7049
3 9 37 0.0132 -3.8048
3 9 38 4.5069 -4.9631
3 9 39 2.8126 -2.6967
3 10 0 3.7677 -1.5093
3 10 1 1.8142 6.7375
3 10 2 -10.4433 -0.8349
3 10 3 2.4079 6.5179
3 10 4 3.7765 -12.3573
3 10 5 -6.1846 -11.4875
3 10 6 2.5715 8.7599
3 10 7 10.0174 6.0470
3 10 8 -7.5165 -4.7444
3 10 9 12.0856 -11.2584
3 10 10 11.0990 3.7996
3 10 11 -7.2258 4.1724
3 10 12 -4.9692 8.2751
3 10 13 10.3008 7.3412
3 10 14 -4.6925 -1.7698
3 10 15 7.4927 -12.4728
3 10 16 0.8712 -6.4622
3 10 17 1.0750 8.2765
3 10 18 7.1783 -1.7878
3 10 19 -14.4382 3.2130
3 10 20 4.2170 0.3001
3 10 21 4.6121 -6.1104
3 10 22 -10.5324 -7.4346
3 10 23 3.4573 -6.5100
3 10 24 5.0849 3.9413
3 10 25 -11.4807 -4.7727
3 10 26 -7.0306 -10.3287
3 10 27 2.7482 -0.4944
3 10 28 -4.1573 4.8367
3 10 29 5.4094 -4.9469
3 10 30 -0.3284 4.0642
3 10 31 -0.6484 2.9451
3 10 32 5.2879 -3.1139
3 10 33 3.1968 9.2616
3 10 34 9.2986 -0.8634
3 10 35 4.9678 3.5458
3 10 36 4.2011 2.3886
3 10 37 -1.0027 3.0669
3 11 0 -5.0502 -0.4444
3 11 1 17.8586 5.5328
3 11 2 12.2334 1.0887
3 11 3 4.5644 2.6780
3 11 4 -11.1196 7.3318
3 11 5 -1.5646 -9.9125
3 11 6 -7.3986 3.0025
3 11 7 5.8358 11.7876
3 11 8 11.5441 -6.9519
3 11 9 -15.1377 -12.3647
3 11 10 -12.4684 9.5531
3 11 11 -6.2183 -5.6583
3 11 12 13.4594 -2.1774
3 11 13 0.7941 5.4120
3 11 14 -5.9830 -3.8973
3 11 15 2.3568 -6.6318
3 11 16 1.2010 2.4685
3 11 17 -12.3350 -3.9688
3 11 18 1.6711 -2.5640
3 11 19 8.6068 -2.6326
3 11 20 -2.6606 -2.3764
3 11 21 -1.0012 11.1242
3 11 22 2.2478 -6.5071
3 11 23 3.6598 -9.6672
3 11 24 12.5038 7.4361
3 11 25 -3.8181 -9.0564
3 11 26 4.6744 2.1761
3 11 27 -1.9143 8.0509
3 11 28 -3.0155 -0.4992
3 11 29 2.1937 -7.7580
3 11 30 -2.4454 7.6578
3 11 31 -5.8001 3.9846
3 11 32 -1.6519 8.4708
3 11 33 -1.7741 4.2486
3 11 34 -1.9984 0.9214
3 11 35 4.7174 4.6232
3 12 0 -2.6354 27.2698
3 12 1 -8.3151 -14.9733
3 12 2 4.9760 4.5219
3 12 3 4.1602 -25.6438
3 12 4 0.1205 1.1943
3 12 5 -0.0750 11.5218
3 12 6 13.0312 -1.9766
3 12 7 -1.7322 -15.4111
3 12 8 5.4660 -1.5236
3 12 9 5.9040 1.3887
3 12 10 -11.0572 -3.3525
3 12 11 3.6667 7.0473
3 12 12 16.5333 -3.4935
3 12 13 -3.4835 3.4263
3 12 14 -4.6502 -10.6032
3 12 15 9.0751 4.1322
3 12 16 -0.3120 3.2335
3 12 17 -0.2898 -10.4853
3 12 18 -2.7360 -8.1895
3 12 19 -1.2433 4.6197
3 12 20 -0.8682 -6.1917
3 12 21 -0.2977 3.9981
3 12 22 3.7976 7.9440
3 12 23 1.7524 2.5405
3 12 24 -6.9177 -4.6051
3 12 25 -8.1849 1.1226
3 12 26 13.5578 -7.2657
3 12 27 -7.5487 11.5573
3 12 28 4.1920 -6.6826
3 12 29 -5.2778 -4.4310
3 12 30 -4.0992 0.1475
3 12 31 -6.5439 -0.6816
3 12 32 5.6391 6.2071
3 12 33 -4.8679 -2.1743
3 13 0 7.8144 -1.2424
3 13 1 5.7737 8.4670
3 13 2 11.6038 -0.6634
3 13 3 -16.6498 9.6017
3 13 4 14.4773 1.4852
3 13 5 -8.9319 10.0583
3 13 6 9.7837 -3.0550
3 13 7 6.3392 0.8648
3 13 8 -13.8981 -9.4902
3 13 9 -1.1804 11.2871
3 13 10 5.1091 6.9349
3 13 11 1.3823 -7.9665
3 13 12 -10.2152 8.9248
3 13 13 -0.3879 -9.5730
3 13 14 6.7904 -4.4714
3 13 15 14.9596 4.9321
3 13 16 -1.7256 0.7876
3 13 17 12.1719 -13.2726
3 13 18 6.5540 2.1257
3 13 19 -11.4551 1.1779
3 13 20 -3.1863 1.0537
3 13 21 4.5935 -5.9236
3 13 22 1.4371 -2.1541
3 13 23 6.2358 1.5802
3 13 24 -5.4473 -4.1668
3 13 25 -2.9999 6.3093
3 13 26 -0.5649 0.4781
3 13 27 5.9991 1.1872
3 13 28 -9.1505 -10.3381
3 13 29 4.5354 12.5502
3 13 30 -6.5720 -4.8681
3 13 31 -1.5229 6.8373
3 14 0 -0.5629 -1.0392
3 14 1 -5.2984 -9.4156
3 14 2 -7.5395 -2.1701
3 14 3 10.1708 6.9447
3 14 4 -4.9976 -0.1063
3 14 5 7.4412 1.2160
3 14 6 0.7059 -13.2085
3 14 7 -0.0280 10.2786
3 14 8 -14.4741 -4.4367
3 14 9 4.7619 -13.4000
3 14 10 1.8860 6.1035
3 14 11 9.9804 -4.6777
3 14 12 2.4375 9.8233
3 14 13 -13.6700 6.1341
3 14 14 16.1179 12.6558
3 14 15 -6.3105 9.3105
3 14 16 1.2883 -5.4368
3 14 17 5.9753 -6.5049
3 14 18 2.2814 4.5304
3 14 19 -5.8940 -2.0470
3 14 20 5.6133 2.2753
3 14 21 2.2678 7.5328
3 14 22 -1.4808 -10.7897
3 14 23 -5.7567 -1.6527
3 14 24 2.0262 -1.6136
3 14 25 1.3475 -4.8620
3 14 26 -8.9426 3.1702
3 14 27 0.6317 -5.0506
3 14 28 -7.5278 -1.9308
3 15 0 -0.1605 10.2375
3 15 1 4.9012 7.9780
3 15 2 -5.4830 1.1604
3 15 3 -0.6398 6.9720
3 15 4 2.8745 5.7619
3 15 5 4.8272 -19.1183
3 15 6 4.6359 1.8319
3 15 7 1.1542 0.2375
3 15 8 2.2305 -1.1136
3 15 9 1.6687 3.4325
3 15 10 -9.6789 -1.2175
3 15 11 -15.4217 -10.7782
3 15 12 3.3037 -7.6058
3 15 13 -6.5624 -2.4913
3 15 14 5.5336 1.7925
3 15 15 -0.1563 12.7641
3 15 16 5.0954 -15.8122
3 15 17 3.7687 8.6738
3 15 18 -9.9466 1.0769
3 15 19 3.0800 -6.5746
3 15 20 9.5734 0.8672
3 15 21 2.8492 5.3320
3 15 22 1.2113 -3.4126
3 15 23 2.6825 -2.8383
3 15 24 -5.0881 -2.6967
3 16 0 -2.9469 -8.4010
3 16 1 -12.4092 1.5314
3 16 2 15.4367 5.6487
3 16 3 0.0424 -2.3157
3 16 4 -3.8100 3.4081
3 16 5 7.6940 5.9864
3 16 6 1.5463 0.3925
3 16 7 -5.1361 -4.6283
3 16 8 17.7214 -9.2131
3 16 9 22.4228 1.5774
3 16 10 4.0367 -3.5764
3 16 11 11.7119 1.7934
3 16 12 -7.1513 2.0518
3 16 13 2.2603 6.1123
3 16 14 -4.8011 2.2892
3 16 15 3.2437 1.0094
3 16 16 4.3763 -2.4201
3 16 17 7.7184 3.7038
3 16 18 -15.2560 5.5626
3 16 19 5.1114 1.0833
3 16 20 -0.4995 1.2776
3 17 0 4.3672 3.3583
3 17 1 -3.0596 -3.1906
3 17 2 -3.8293 -6.6241
3 17 3 2.0914 7.7179
3 17 4 -0.5114 -13.6200
3 17 5 -2.0287 15.2252
3 17 6 -0.3634 23.4041
3 17 7 5.9023 6.1409
3 17 8 -5.5009 16.9235
3 17 9 -3.6712 7.5130
3 17 10 -1.9460 -3.9181
3 17 11 0.6648 -10.8849
3 17 12 -7.3859 9.1444
3 17 13 -1.5816 -3.7037
4 0 0 -1.9435 -1.7110
4 0 1 -4.3507 13.4978
4 0 2 -15.7385 -7.9576
4 0 3 3.0345 9.7727
4 0 4 50.8257 -7.6901
4 0 5 2.2656 19.8495
4 0 6 -32.8277 6.0312
4 0 7 -12.6542 -7.5101
4 0 8 14.7972 16.3523
4 0 9 -10.0048 -7.9271
4 0 10 -11.9031 3.8588
4 0 11 4.0095 21.0718
4 0 12 -3.6490 -3.7135
4 0 13 8.0938 32.1287
4 0 14 -6.7005 -1.8402
4 0 15 0.6470 -25.6300
4 0 16 9.2709 -5.2379
4 0 17 0.8930 3.7567
4 0 18 8.3227 -9.1420
4 0 19 6.8536 7.5266
4 0 20 1.6711 -1.9845
4 0 21 2.8979 -11.5577
4 0 22 7.0844 5.6154
4 0 23 -8.8290 -3.7277
4 0 24 -2.5135 8.9768
4 0 25 -9.3187 11.2163
4 0 26 7.9271 7.4439
4 0 27 -0.5335 3.2502
4 0 28 1.9716 2.8762
4 0 29 4.9512 3.7839
4 0 30 3.5953 -5.7932
4 0 31 2.8601 1.5108
4 0 32 -1.7182 -6.7364
4 0 33 0.8373 0.8021
4 0 34 3.8591 -2.8700
4 0 35 4.0740 -2.4526
4 0 36 -2.1661 -3.9254
4 0 37 3.4845 -1.2975
4 0 38 6.6725 -1.1198
4 0 39 -4.3155 -0.4805
4 0 40 -16.8738 8.2051
4 0 41 -8.0608 1.6747
4 0 42 -0.9827 9.1450
4 0 43 -1.2365 0.1879
4 0 44 4.8965 -0.4580
4 1 0 -2.5649 -2.4612
4 1 1 18.9721 13.2379
4 1 2 -17.0398 9.7890
4 1 3 3.2852 -9.8729
4 1 4 -2.8800 -6.6386
4 1 5 22.3580 -9.5858
4 1 6 -21.4004 -18.3467
4 1 7 27.4436 17.0152
4 1 8 -5.8989 1.9344
4 1 9 -5.0159 -18.0343
4 1 10 -7.5035 -9.7195
4 1 11 -23.7896 23.1045
4 1 12 8.1264 8.8574
4 1 13 24.9144 -10.1921
4 1 14 -9.5883 5.2587
4 1 15 8.1022 7.1942
4 1 16 -7.8105 9.3563
4 1 17 -14.5536 -4.3451
4 1 18 10.6931 -8.3221
4 1 19 6.5961 12.3001
4 1 20 -9.8083 3.2201
4 1 21 8.7340 -11.0419
4 1 22 -14.3859 -5.7551
4 1 23 -9.5434 -2.4149
4 1 24 -6.8815 4.2567
4 1 25 -3.4376 7.0139
4 1 26 2.5733 0.4388
4 1 27 3.4208 10.5948
4 1 28 6.3500 2.8220
4 1 29 -1.6466 4.1125
4 1 30 3.2006 -2.3867
4 1 31 3.8391 -1.8653
4 1 32 -2.2451 -0.3452
4 1 33 4.7688 0.1106
4 1 34 -1.0975 0.2874
4 1 35 6.5693 4.0247
4 1 36 -4.6130 -1.9408
4 1 37 -0.6005 -4.0942
4 1 38 -10.1238 -6.2517
4 1 39 -1.1058 -6.2431
4 1 40 -9.0593 -5.2438
4 1 41 -3.7115 6.8415
4 1 42 5.7754 14.0437
4 1 43 -9.0645 -0.1968
4 1 44 2.4499 1.8715
4 2 0 -0.4056 -8.0640
4 2 1 -7.6571 5.7878
4 2 2 13.5700 11.0471
4 2 3 27.1938 -2.0346
4 2 4 -18.3015 28.4532
4 2 5 -17.7486 6.0941
4 2 6 26.9087 13.7664
4 2 7 20.5936 -16.6542
4 2 8 -16.4888 12.9827
4 2 9 -10.7363 -32.6209
4 2 10 -12.8074 21.7316
4 2 11 2.1783 12.4310
4 2 12 -8.9971 0.5766
4 2 13 -1.1673 2.1062
4 2 14 2.2763 -24.5198
4 2 15 5.6960 -12.7918
4 2 16 8.6312 12.7630
4 2 17 -3.4951 -7.3637
4 2 18 -0.1024 -6.3437
4 2 19 9.6436 2.4032
4 2 20 3.4673 -12.5401
4 2 21 7.9468 -11.5446
4 2 22 -2.0233 4.8107
4 2 23 -14.7638 -15.7805
4 2 24 0.7274 19.4910
4 2 25 -8.7138 -0.9654
4 2 26 -4.1173 10.4550
4 2 27 -6.0116 -4.5841
4 2 28 -0.6052 4.7663
4 2 29 9.8398 3.1276
4 2 30 3.3994 -5.6463
4 2 31 -3.2197 4.0293
4 2 32 -1.5700 -4.3691
4 2 33 4.7056 -0.6214
4 2 34 -1.1419 -0.6468
4 2 35 -0.6211 -6.0379
4 2 36 0.4722 -0.3728
4 2 37 8.4768 -10.6193
4 2 38 -4.2527 3.1082
4 2 39 -7.2328 -4.4795
4 2 40 -11.1326 7.6793
4 2 41 0.1991 -6.2108
4 2 42 -8.3048 6.3544
4 2 43 -1.1268 -2.7088
4 2 44 2.5380 -9.0959
4 3 0 -14.1918 9.3051
4 3 1 -7.8218 -9.1847
4 3 2 -29.7209 -8.4143
4 3 3 -7.1130 17.7280
4 3 4 0.0354 6.6088
4 3 5 -9.4682 2.4858
4 3 6 21.3988 15.9147
4 3 7 -1.2291 -17.4345
4 3 8 -6.2573 -30.7104
4 3 9 -27.3430 -3.7837
4 3 10 4.6587 12.4173
4 3 11 -2.9989 -9.2970
4 3 12 32.9422 6.5142
4 3 13 6.4957 1.5177
4 3 14 -9.5975 17.1131
4 3 15 13.9324 0.5641
4 3 16 -5.7213 -4.6754
4 3 17 7.1919 7.5528
4 3 18 12.2653 10.5613
4 3 19 1.2555 10.4505
4 3 20 3.2824 -6.9292
4 3 21 7.3788 -11.3725
4 3 22 -9.1518 4.0997
4 3 23 -10.9422 -4.8145
4 3 24 8.0272 -11.4506
4 3 25 -14.1488 0.9447
4 3 26 11.6693 -5.1837
4 3 27 -12.2225 12.8852
4 3 28 12.2472 -0.0708
4 3 29 -2.4684 -1.5156
4 3 30 9.8516 1.5995
4 3 31 2.5722 -0.6566
4 3 32 -4.3695 -0.5654
4 3 33 7.1638 1.8872
4 3 34 -2.0206 -3.3387
4 3 35 4.0650 -2.5185
4 3 36 -1.2648 3.9886
4 3 37 -2.3405 -5.2586
4 3 38 -0.6454 -5.4072
4 3 39 -12.6807 -8.2465
4 3 40 0.8731 5.7314
4 3 41 -4.3583 -1.4985
4 3 42 4.8836 4.3594
4 3 43 -4.2126 -10.1412
4 3 44 5.6457 5.4026
4 4 0 -6.8139 -12.4349
4 4 1 -4.4050 -10.0457
4 4 2 3.8308 2.1933
4 4 3 -29.2607 10.4105
4 4 4 -5.4724 15.5229
4 4 5 39.5957 -3.7202
4 4 6 9.2789 -19.1763
4 4 7 -4.3503 -7.8867
4 4 8 6.1398 -18.0359
4 4 9 -2.9325 17.2384
4 4 10 -0.5045 17.5071
4 4 11 -7.7075 10.1155
4 4 12 -0.2928 -5.7639
4 4 13 -7.1029 -1.8053
4 4 14 9.9982 -6.8755
4 4 15 -11.9444 8.5580
4 4 16 -6.6529 15.4036
4 4 17 -3.4812 -11.8914
4 4 18 0.5000 16.2861
4 4 19 5.3665 0.3619
4 4 20 -2.2403 -5.2425
4 4 21 7.3785 -0.0491
4 4 22 -0.5858 1.3567
4 4 23 4.1416 -3.2329
4 4 24 6.1270 4.6077
4 4 25 -8.1707 4.4934
4 4 26 -6.6522 -2.1037
4 4 27 6.4930 16.7613
4 4 28 -0.5304 -0.4520
4 4 29 3.0963 7.9765
4 4 30 -5.5889 -10.2504
4 4 31 1.2613 5.1895
4 4 32 8.6775 -1.8434
4 4 33 -4.9669 1.2068
4 4 34 -5.4697 2.0636
4 4 35 4.4367 -7.0172
4 4 36 0.3984 -0.7076
4 4 37 -2.5759 -10.2210
4 4 38 -3.8282 -3.4559
4 4 39 -7.2694 -3.8049
4 4 40 0.5336 1.3150
4 4 41 -2.7432 7.5662
4 4 42 6.4700 -4.5391
4 4 43 -5.8750 -1.8280
4 5 0 -27.5425 -8.5255
4 5 1 -8.6284 -7.1629
4 5 2 -14.7122 9.6401
4 5 3 11.7694 14.2382
4 5 4 4.5385 -1.1257
4 5 5 18.3444 19.6175
4 5 6 5.7121 -6.4283
4 5 7 -11.0753 -16.1140
4 5 8 -22.8566 13.7706
4 5 9 1.9640 3.2693
4 5 10 -2.3492 -3.2478
4 5 11 17.8778 3.6296
4 5 12 -1.0264 -2.5375
4 5 13 -10.7425 6.1854
4 5 14 -3.2425 -8.0181
4 5 15 -4.2721 0.2914
4 5 16 -6.2369 -2.6312
4 5 17 -0.9214 7.6999
4 5 18 5.9709 2.2072
4 5 19 -14.2512 -5.5008
4 5 20 7.4603 5.3590
4 5 21 -7.2261 5.8260
4 5 22 -8.4911 3.2214
4 5 23 -2.0329 -11.7472
4 5 24 -6.9073 2.5810
4 5 25 -13.1498 0.6327
4 5 26 -3.2362 0.4758
4 5 27 3.5960 2.2205
4 5 28 -0.0138 -2.8817
4 5 29 0.7207 1.1011
4 5 30 -3.3105 -0.2336
4 5 31 0.1946 -3.8337
4 5 32 -1.9538 -2.1801
4 5 33 3.0291 -2.1095
4 5 34 1.9429 -7.3764
4 5 35 4.4920 1.1567
4 5 36 4.4634 -9.6322
4 5 37 -5.7101 -12.5593
4 5 38 -2.3630 0.3651
4 5 39 -6.6156 1.0709
4 5 40 1.0836 0.8867
4 5 41 -1.2872 -1.9902
4 5 42 1.0249 -6.6607
4 5 43 -0.2506 -0.0660
4 6 0 -7.4084 0.3338
4 6 1 -4.1017 -12.2464
4 6 2 -13.1815 25.3108
4 6 3 -2.3417 -3.9179
4 6 4 13.8725 9.4868
4 6 5 6.0216 -22.5639
4 6 6 -20.6310 -0.0868
4 6 7 6.3012 -8.5262
4 6 8 -8.5417 4.2701
4 6 9 -4.3134 7.2334
4 6 10 3.7394 2.8787
4 6 11 -8.3484 -17.5761
4 6 12 3.0858 -1.5934
4 6 13 1.2454 -10.8120
4 6 14 -8.3451 7.3937
4 6 15 0.3257 1.9269
4 6 16 -3.1205 -6.3314
4 6 17 -3.3241 -2.6382
4 6 18 -3.8771 -2.1428
4 6 19 -3.6453 -6.9898
4 6 20 4.5619 -8.2538
4 6 21 -1.8198 0.6901
4 6 22 6.1905 -13.1708
4 6 23 1.2238 -5.7489
4 6 24 -3.5758 1.9249
4 6 25 -2.4953 -1.5176
4 6 26 7.4197 0.2667
4 6 27 -0.1373 -1.5382
4 6 28 2.4420 -3.9092
4 6 29 4.9202 -5.0134
4 6 30 1.6996 1.6448
4 6 31 7.7047 3.3595
4 6 32 -2.5443 -3.9041
4 6 33 5.5197 0.7116
4 6 34 11.8915 -4.3446
4 6 35 7.0069 -2.7195
4 6 36 -4.6993 -9.0292
4 6 37 3.6730 -6.5825
4 6 38 -1.3143 -2.7381
4 6 39 0.5338 5.5176
4 6 40 9.0937 -4.8983
4 6 41 1.9374 -5.6970
4 6 42 4.9586 -5.0948
4 7 0 -6.0051 -0.2782
4 7 1 -0.0519 -0.5869
4 7 2 10.1587 9.4657
4 7 3 -6.2831 -0.6554
4 7 4 17.2527 -3.2718
4 7 5 -8.6583 -4.9519
4 7 6 8.1833 -7.3109
4 7 7 -13.0142 -2.6251
4 7 8 15.1436 11.1514
4 7 9 9.9480 -14.5675
4 7 10 3.9501 3.5983
4 7 11 -0.1287 -0.7170
4 7 12 -6.7261 -2.0908
4 7 13 -7.6779 0.6491
4 7 14 6.8516 -14.9614
4 7 15 -2.4662 -4.1010
4 7 16 11.7048 0.1106
4 7 17 -1.5659 -1.8504
4 7 18 2.4452 -2.4575
4 7 19 2.7253 9.0798
4 7 20 4.7499 -0.7111
4 7 21 0.2179 0.4146
4 7 22 0.7342 -5.8865
4 7 23 -1.4090 6.7912
4 7 24 -0.1927 2.5355
4 7 25 4.0756 0.9920
4 7 26 7.6266 7.8199
4 7 27 -1.7729 2.7338
4 7 28 -2.4222 2.6150
4 7 29 1.6567 3.6554
4 7 30 6.6070 -0.7452
4 7 31 0.1432 4.4756
4 7 32 5.0255 7.6010
4 7 33 9.3866 -4.2929
4 7 34 5.0595 0.9413
4 7 35 6.3102 -1.6859
4 7 36 -4.4667 -2.4541
4 7 37 3.7010 3.4142
4 7 38 1.1073 9.2807
4 7 39 6.5269 0.9682
4 7 40 5.0047 3.8604
4 7 41 8.7288 5.5874
4 8 0 -4.3037 0.2079
4 8 1 -1.4231 8.0694
4 8 2 1.2206 1.1674
4 8 3 4.1764 -2.6356
4 8 4 1.0462 -3.9279
4 8 5 -6.4684 12.0143
4 8 6 -0.7396 -1.6402
4 8 7 8.2579 14.6564
4 8 8 -1.9001 -4.0236
4 8 9 -9.9259 -0.8291
4 8 10 4.0056 -16.4867
4 8 11 0.2532 -8.5593
4 8 12 16.8117 5.4702
4 8 13 3.9943 0.4080
4 8 14 2.0390 4.4407
4 8 15 0.8874 0.6979
4 8 16 -9.4782 -1.9798
4 8 17 3.0323 2.5516
4 8 18 1.7454 -7.7742
4 8 19 3.9990 8.4246
4 8 20 -2.7569 -5.7149
4 8 21 5.1799 -0.7857
4 8 22 -10.2752 0.8743
4 8 23 -1.6091 4.4340
4 8 24 -3.9665 -1.5115
4 8 25 -0.4386 0.8710
4 8 26 -3.9115 -1.8590
4 8 27 -5.7487 2.8447
4 8 28 3.7637 3.4348
4 8 29 -4.0501 3.1943
4 8 30 0.5035 6.1382
4 8 31 3.9493 4.8302
4 8 32 4.8743 2.5759
4 8 33 4.6916 5.1597
4 8 34 -0.0437 -2.7146
4 8 35 -6.3373 -3.1863
4 8 36 -2.7150 2.1972
4 8 37 -0.1002 7.1771
4 8 38 -6.4097 8.9294
4 8 39 -5.5068 -2.2451
4 8 40 1.6052 0.5119
4 9 0 -1.1106 -3.3687
4 9 1 3.4903 0.0359
4 9 2 -4.2872 -8.9804
4 9 3 -0.9072 -1.6080
4 9 4 -2.6214 2.2670
4 9 5 -11.4779 1.8410
4 9 6 -0.8174 -2.7866
4 9 7 15.7839 -7.0582
4 9 8 4.8647 -7.4354
4 9 9 10.7656 5.1206
4 9 10 -0.9392 15.1224
4 9 11 -0.3084 11.3856
4 9 12 -5.0482 -8.6044
4 9 13 -4.7606 -3.5580
4 9 14 3.9924 -3.7180
4 9 15 -0.0269 9.3273
4 9 16 2.0429 -0.1485
4 9 17 -1.2360 3.6612
4 9 18 0.5234 8.8872
4 9 19 -0.6661 -6.0794
4 9 20 -3.9412 -3.9760
4 9 21 8.7971 -0.4754
4 9 22 -5.2280 5.1779
4 9 23 2.9808 -6.0651
4 9 24 2.3859 1.8696
4 9 25 -2.2970 -6.2740
4 9 26 -5.5435 0.3624
4 9 27 1.1509 1.7866
4 9 28 -1.8928 0.2171
4 9 29 -5.4316 8.0184
4 9 30 -3.3978 4.8388
4 9 31 -3.7141 5.2127
4 9 32 8.0987 -2.6522
4 9 33 1.8059 -1.5307
4 9 34 -4.2567 -1.6393
4 9 35 -2.5998 -1.5121
4 9 36 -2.6160 -2.8556
4 9 37 -0.6237 -4.0078
4 9 38 -1.2625 -0.4123
4 10 0 11.0698 3.3985
4 10 1 -3.3036 -4.1366
4 10 2 0.1243 -4.9710
4 10 3 -1.4319 -11.3439
4 10 4 -2.7354 -0.4022
4 10 5 18.5247 2.0715
4 10 6 3.9434 -0.2389
4 10 7 -10.6222 11.9824
4 10 8 -13.7247 -1.5081
4 10 9 -0.1784 -8.7652
4 10 10 1.8916 2.0300
4 10 11 8.9907 -8.8219
4 10 12 -5.5505 -3.3980
4 10 13 -4.8120 -0.9628
4 10 14 -11.0150 4.4942
4 10 15 -1.3834 0.5016
4 10 16 -2.5756 -6.6529
4 10 17 4.5655 -2.7571
4 10 18 -6.4303 4.1676
4 10 19 -1.8300 2.7930
4 10 20 -0.8138 -1.1343
4 10 21 -8.3702 6.5168
4 10 22 1.3246 1.4871
4 10 23 6.2490 -6.2057
4 10 24 0.5080 6.0774
4 10 25 -8.0074 -0.3008
4 10 26 0.5142 -2.1333
4 10 27 -6.1398 -3.2620
4 10 28 -3.5454 -3.7398
4 10 29 -2.1907 -1.1290
4 10 30 -3.4813 5.0367
4 10 31 4.9519 4.1872
4 10 32 2.2719 -4.2797
4 10 33 -0.4170 2.8056
4 10 34 -1.1090 -5.4358
4 10 35 4.5030 2.9384
4 10 36 2.8862 1.8949
4 10 37 7.1362 -4.1778
4 11 0 11.6033 -1.7501
4 11 1 8.3205 -0.3474
4 11 2 11.1409 3.8611
4 11 3 7.3988 13.6468
4 11 4 2.0087 -3.6095
4 11 5 -0.0139 -6.0768
4 11 6 6.5564 -3.5156
4 11 7 3.1653 -12.0392
4 11 8 -0.1047 13.7427
4 11 9 13.5040 6.0395
4 11 10 5.7185 -9.0186
4 11 11 -4.7155 -18.7396
4 11 12 3.1544 0.7120
4 11 13 -5.0854 -2.6143
4 11 14 4.8383 3.4767
4 11 15 0.3433 -9.0522
4 11 16 0.5089 -0.1208
4 11 17 -5.2536 -6.8701
4 11 18 -6.3283 -9.8384
4 11 19 -3.7806 -8.3060
4 11 20 0.9827 3.6500
4 11 21 -4.8792 3.7580
4 11 22 -7.3965 -6.2379
4 11 23 4.5506 -2.3906
4 11 24 -2.5889 -3.0747
4 11 25 -0.7343 -2.0493
4 11 26 9.5146 -1.6207
4 11 27 -5.5909 -0.5674
4 11 28 -4.2610 -2.9908
4 11 29 -0.6991 6.4983
4 11 30 0.9689 2.2975
4 11 31 1.4448 -0.1459
4 11 32 -0.4931 2.1422
4 11 33 -1.9392 -1.4579
4 11 34 -1.3418 4.2984
4 11 35 10.9416 10.3748
4 12 0 -7.2378 3.9220
4 12 1 -3.0534 16.8525
4 12 2 -2.2544 5.1236
4 12 3 4.2302 5.0238
4 12 4 10.5964 6.5669
4 12 5 -4.6782 0.0413
4 12 6 -14.7257 4.9615
4 12 7 3.2971 4.2887
4 12 8 15.2237 4.1228
4 12 9 0.6377 4.5878
4 12 10 9.1489 -3.5676
4 12 11 -1.1453 -6.8989
4 12 12 -1.0626 -1.6271
4 12 13 0.5998 8.1530
4 12 14 12.6376 -8.8003
4 12 15 9.4475 -2.7712
4 12 16 9.0555 -6.7065
4 12 17 1.2205 -1.8834
4 12 18 5.2822 -7.8218
4 12 19 -1.0342 -5.5447
4 12 20 -2.5486 -2.3627
4 12 21 6.8266 -1.7702
4 12 22 -0.2345 -4.1014
4 12 23 3.8868 3.1085
4 12 24 -7.3456 2.0274
4 12 25 2.1397 -8.7202
4 12 26 -0.7736 -0.1708
4 12 27 -4.3143 3.3576
4 12 28 -9.5411 -4.3453
4 12 29 -1.4326 9.8808
4 12 30 0.6057 -4.5294
4 12 31 4.1219 -2.1888
4 12 32 -8.7583 5.9923
4 13 0 -11.3466 2.1281
4 13 1 2.8396 2.2617
4 13 2 -6.2780 -0.8949
4 13 3 2.9543 -9.8225
4 13 4 1.7967 -3.0806
4 13 5 -4.1340 0.5686
4 13 6 -0.8892 -5.0300
4 13 7 -3.6401 13.5265
4 13 8 5.8462 1.8540
4 13 9 5.7515 -7.4842
4 13 10 -0.0964 -3.4807
4 13 11 1.3030 13.2518
4 13 12 -4.2791 7.2171
4 13 13 2.6400 3.6664
4 13 14 1.7422 6.7407
4 13 15 11.4269 8.1562
4 13 16 -2.9817 1.1318
4 13 17 5.9484 -7.0164
4 13 18 2.9428 2.5530
4 13 19 2.4035 2.5544
4 13 20 -2.4569 -1.9465
4 13 21 4.1523 -4.6692
4 13 22 3.9821 0.7617
4 13 23 3.6669 -6.5262
4 13 24 -2.3716 5.3780
4 13 25 1.3735 -17.6595
4 13 26 -6.1879 -3.0231
4 13 27 -4.8400 -4.6671
4 13 28 1.1560 3.3918
4 13 29 1.5563 -1.5048
4 13 30 -12.8805 -1.2547
4 14 0 7.4507 3.1018
4 14 1 2.0771 2.3715
4 14 2 8.1019 1.0339
4 14 3 7.7114 1.0035
4 14 4 -4.0202 3.9464
4 14 5 -1.3796 -1.2942
4 14 6 10.7254 4.5265
4 14 7 4.4443 9.2185
4 14 8 -9.9156 -1.6158
4 14 9 5.3704 -8.5495
4 14 10 -5.0555 -7.5477
4 14 11 -2.1072 -5.1827
4 14 12 -6.1942 5.0337
4 14 13 -1.3587 -2.6877
4 14 14 4.5730 1.0201
4 14 15 -3.9476 -1.5563
4 14 16 3.3267 -0.3425
4 14 17 4.4205 -9.2602
4 14 18 4.0817 9.5738
4 14 19 -1.6151 0.9390
4 14 20 5.3786 3.1404
4 14 21 -1.8502 -0.0236
4 14 22 4.5555 4.0677
4 14 23 6.1286 -9.1744
4 14 24 10.4691 -1.8047
4 14 25 -2.7335 -4.2363
4 14 26 6.7124 0.6236
4 14 27 -13.6191 -8.0031
4 15 0 -1.9014 -1.1009
4 15 1 -2.2184 7.0716
4 15 2 -7.5034 -1.1298
4 15 3 -0.3742 10.1897
4 15 4 -15.6561 3.9456
4 15 5 -0.8651 -0.6388
4 15 6 7.5114 9.4019
4 15 7 5.4074 1.0388
4 15 8 13.7359 -2.5977
4 15 9 7.9655 6.8210
4 15 10 0.8433 3.5748
4 15 11 -2.8641 -5.8712
4 15 12 8.6604 2.7230
4 15 13 5.7856 -0.3396
4 15 14 12.4547 6.6933
4 15 15 -1.4021 4.4490
4 15 16 -2.3854 -4.2309
4 15 17 0.5488 9.5472
4 15 18 0.0243 -3.3357
4 15 19 -7.4846 -6.1357
4 15 20 12.3589 0.1436
4 15 21 -1.6759 5.2447
4 15 22 2.8947 4.3612
4 15 23 -0.5534 2.3376
4 16 0 -3.3046 2.0767
4 16 1 0.0771 -14.9995
4 16 2 -7.4051 -6.7251
4 16 3 -4.0981 0.0024
4 16 4 -8.4493 4.7078
4 16 5 0.3756 0.7435
4 16 6 -9.7529 17.7308
4 16 7 -10.4552 -2.1155
4 16 8 5.0474 -4.6206
4 16 9 -1.7494 6.1290
4 16 10 -3.0292 4.2499
4 16 11 2.7365 9.9954
4 16 12 -6.3927 5.1244
4 16 13 -0.5222 4.9122
4 16 14 -1.3728 -5.1352
4 16 15 -3.8411 2.3500
4 16 16 6.7141 -1.6656
4 16 17 9.8320 7.4063
4 16 18 -0.3526 5.1515
4 17 0 8.3801 3.7457
4 17 1 -6.6557 -6.7237
4 17 2 8.0296 -7.9331
4 17 3 -6.4742 -5.6428
4 17 4 2.6697 -4.8003
4 17 5 6.7911 -5.4217
4 17 6 1.8614 -0.6918
4 17 7 -4.1431 -1.9482
4 17 8 4.6375 6.4681
4 17 9 -7.2007 0.4169
4 17 10 -2.5253 -7.3769
4 17 11 4.9427 3.2803
4 17 12 2.8417 -0.5499
5 0 1 -6.6379 -2.8172
5 0 2 -24.0679 -1.8781
5 0 3 -12.2786 -28.8363
5 0 4 26.4363 -7.4281
5 0 5 -6.2717 46.9212
5 0 6 17.2080 -9.5026
5 0 7 -1.9360 -27.7001
5 0 8 -14.8794 -7.1797
5 0 9 -2.9432 -8.6239
5 0 10 -4.6254 10.0407
5 0 11 5.8029 -0.7072
5 0 12 15.5169 13.2579
5 0 13 10.5532 27.9970
5 0 14 -19.4265 -1.2054
5 0 15 5.5629 8.2485
5 0 16 8.5802 -3.7216
5 0 17 -4.5686 -5.1458
5 0 18 -3.5667 5.1460
5 0 19 -7.0896 5.9967
5 0 20 -3.7590 -2.8972
5 0 21 -4.2943 0.5111
5 0 22 8.1788 -14.0190
5 0 23 -1.0020 1.4501
5 0 24 5.3014 -2.8854
5 0 25 0.6130 0.3714
5 0 26 -6.7971 12.8201
5 0 27 3.4395 10.8740
5 0 28 3.4823 6.2084
5 0 29 5.5079 -0.9103
5 0 30 0.8989 -2.9178
5 0 31 5.0742 -4.3268
5 0 32 -1.5026 2.2156
5 0 33 -1.6789 0.2312
5 0 34 -5.1133 3.8373
5 0 35 -7.6805 0.3565
5 0 36 5.4581 -4.9883
5 0 37 -4.5899 -14.9442
5 0 38 2.7611 -7.7701
5 0 39 0.2266 8.0575
5 0 40 -1.7319 -0.0170
5 0 41 0.8490 -1.1762
5 0 42 -3.3775 5.2274
5 0 43 1.1163 1.3967
5 0 44 -6.2253 4.1147
5 1 0 3.4009 -12.7258
5 1 1 5.3297 14.1249
5 1 2 -18.6527 23.0983
5 1 3 -14.3372 -2.4636
5 1 4 16.2996 16.4154
5 1 5 2.3752 -0.9411
5 1 6 24.9424 -16.6923
5 1 7 27.9107 -0.6092
5 1 8 -31.1266 -13.9222
5 1 9 -6.8372 17.1985
5 1 10 1.5769 13.7464
5 1 11 -10.8051 -8.4043
5 1 12 -3.2305 -11.7666
5 1 13 -5.4515 3.1935
5 1 14 13.5744 -0.2590
5 1 15 15.4833 -8.7451
5 1 16 -24.3414 -0.3406
5 1 17 0.1783 -18.2597
5 1 18 1.0840 -8.2053
5 1 19 5.7083 7.0618
5 1 20 12.4753 -3.3043
5 1 21 0.7342 3.2831
5 1 22 0.4698 -0.2645
5 1 23 0.8129 5.7720
5 1 24 -24.4218 -7.7277
5 1 25 -4.9309 12.7125
5 1 26 -12.8445 1.4085
5 1 27 3.2262 8.6286
5 1 28 10.5191 10.1340
5 1 29 0.4381 -0.6424
5 1 30 2.6100 -0.2689
5 1 31 -3.2897 -8.0531
5 1 32 -2.8057 -1.4034
5 1 33 1.0242 -10.6786
5 1 34 8.4604 -0.8698
5 1 35 6.8285 -4.6686
5 1 36 8.0866 0.4058
5 1 37 -2.6241 0.6290
5 1 38 -1.2030 -11.5326
5 1 39 -7.2234 9.1865
5 1 40 -3.0688 -4.0609
5 1 41 6.0752 4.0754
5 1 42 -10.5294 -1.2420
5 1 43 -8.4048 7.0907
5 1 44 2.5733 3.7041
5 2 0 2.6725 -18.0492
5 2 1 -31.7115 -3.3994
5 2 2 -0.0304 -10.3059
5 2 3 4.2437 21.9870
5 2 4 12.9643 41.0882
5 2 5 -7.9492 -4.9454
5 2 6 13.3060 -26.3178
5 2 7 -14.0218 18.5158
5 2 8 -5.6871 0.0284
5 2 9 11.8191 -15.6286
5 2 10 5.1133 12.1760
5 2 11 13.6349 2.4308
5 2 12 -2.7069 15.6501
5 2 13 -1.4118 6.0358
5 2 14 8.4502 -13.4958
5 2 15 20.1151 -1.6912
5 2 16 2.5125 -0.6400
5 2 17 -12.1034 1.7428
5 2 18 6.8664 17.1356
5 2 19 -4.3290 -4.0578
5 2 20 1.1849 -1.3841
5 2 21 1.7048 -4.3990
5 2 22 -7.4283 -19.3435
5 2 23 -4.0766 -5.5197
5 2 24 -4.6254 -9.6897
5 2 25 -5.6829 0.7054
5 2 26 -16.7210 19.9275
5 2 27 11.2382 -6.3630
5 2 28 -2.3659 6.0763
5 2 29 7.4775 -8.6060
5 2 30 3.4531 0.2762
5 2 31 1.9620 6.7736
5 2 32 5.0529 -3.4498
5 2 33 -0.8131 7.7640
5 2 34 7.0074 6.7540
5 2 35 -0.5588 0.1449
5 2 36 6.2784 -7.6857
5 2 37 -9.5464 -0.3855
5 2 38 1.7464 1.0049
5 2 39 -5.4228 4.5091
5 2 40 -12.4443 -7.6250
5 2 41 6.2247 0.0898
5 2 42 -10.2500 2.1872
5 2 43 0.6974 -5.7218
5 3 0 0.2216 4.6358
5 3 1 -13.9033 13.8749
5 3 2 -17.8616 -14.9343
5 3 3 2.4517 11.2066
5 3 4 -7.8126 -3.4737
5 3 5 3.8200 -3.6749
5 3 6 10.0372 -8.3366
5 3 7 -16.1826 16.0515
5 3 8 -6.9156 4.4537
5 3 9 7.2031 15.0457
5 3 10 -18.4600 -8.4917
5 3 11 -17.4764 -5.7114
5 3 12 12.4563 15.0904
5 3 13 6.8316 7.7681
5 3 14 2.9664 1.2077
5 3 15 -7.8357 -8.3975
5 3 16 -7.9828 -1.4636
5 3 17 6.6754 1.2693
5 3 18 2.6642 3.4485
5 3 19 4.0793 6.3562
5 3 20 9.4318 -15.4545
5 3 21 9.2284 6.0972
5 3 22 3.7156 -2.4854
5 3 23 -4.0537 -4.1130
5 3 24 -16.4631 -2.9356
5 3 25 4.4997 7.8771
5 3 26 -0.3661 1.4189
5 3 27 2.0155 3.1423
5 3 28 4.0766 5.5191
5 3 29 -9.1090 -12.2514
5 3 30 9.0985 8.4466
5 3 31 -7.5978 -1.9462
5 3 32 0.8585 5.8426
5 3 33 3.2843 0.1254
5 3 34 -5.7672 -3.1360
5 3 35 6.6342 -2.0706
5 3 36 -6.2472 -8.8528
5 3 37 -6.6816 -2.8779
5 3 38 -6.3863 -7.4628
5 3 39 2.5164 10.1082
5 3 40 -1.5035 -12.8167
5 3 41 -4.8622 2.6828
5 3 42 -8.2957 1.8072
5 3 43 1.1381 -10.7397
5 4 0 4.7259 -28.0192
5 4 1 -8.5060 -0.0529
5 4 2 9.2155 3.3675
5 4 3 5.8609 8.6575
5 4 4 -5.6866 -10.0032
5 4 5 -2.0029 -6.8701
5 4 6 -4.5480 12.8916
5 4 7 -3.7860 -8.6461
5 4 8 3.7157 -27.8765
5 4 9 8.3596 0.7649
5 4 10 -10.5641 0.4160
5 4 11 -3.3421 4.8446
5 4 12 -4.2701 -0.2325
5 4 13 4.8081 -0.2458
5 4 14 9.6914 -5.7441
5 4 15 -9.1727 3.0083
5 4 16 -11.2047 1.5715
5 4 17 -0.8607 3.1376
5 4 18 4.1966 5.9331
5 4 19 -1.7282 4.0339
5 4 20 -8.4049 2.3140
5 4 21 0.0733 -6.4215
5 4 22 -13.3046 -4.7226
5 4 23 2.8459 -6.3929
5 4 24 -7.1207 4.9892
5 4 25 -1.4725 1.7950
5 4 26 2.0365 0.7494
5 4 27 11.8961 -6.0767
5 4 28 -6.0203 4.1233
5 4 29 -2.3856 5.3856
5 4 30 2.3248 0.6951
5 4 31 -2.8146 -1.1726
5 4 32 11.0295 -3.3146
5 4 33 -1.1665 6.8322
5 4 34 7.0938 -10.2958
5 4 35 -0.4447 -14.3815
5 4 36 -1.6696 3.1587
5 4 37 -2.0312 -8.7784
5 4 38 -3.2598 -0.5748
5 4 39 1.1701 -9.4178
5 4 40 -4.7835 -6.0001
5 4 41 8.8548 -5.7155
5 4 42 -10.6335 -5.5386
5 5 0 3.2928 4.9220
5 5 1 1.6141 0.3284
5 5 2 -12.8442 -6.1625
5 5 3 3.1050 11.7726
5 5 4 -0.1111 -4.7907
5 5 5 12.4797 4.8311
5 5 6 5.6574 5.4890
5 5 7 6.2622 8.7987
5 5 8 11.1363 -9.1192
5 5 9 -7.3736 -3.9195
5 5 10 -9.2826 -2.2098
5 5 11 14.8233 5.7674
5 5 12 0.5510 7.1903
5 5 13 4.2977 -12.6060
5 5 14 -6.4863 -11.5434
5 5 15 3.5305 -0.7554
5 5 16 -4.2636 -4.2756
5 5 17 -0.6591 1.0758
5 5 18 -4.0809 -7.6374
5 5 19 3.3414 -14.9314
5 5 20 6.4560 -5.5855
5 5 21 3.0866 -3.1807
5 5 22 -5.8680 -0.9420
5 5 23 -1.2985 0.2295
5 5 24 5.4138 10.0479
5 5 25 -0.6818 0.5458
5 5 26 -1.4255 -2.3846
5 5 27 -5.4525 -1.4249
5 5 28 -2.4009 4.1965
5 5 29 2.8167 1.8199
5 5 30 -1.6587 8.5101
5 5 31 2.4770 1.0835
5 5 32 7.5298 -2.8843
5 5 33 1.4568 0.0175
5 5 34 5.5753 -6.9615
5 5 35 4.9203 -0.2988
5 5 36 -0.3749 -3.8968
5 5 37 2.0526 -0.8015
5 5 38 16.9638 -5.3043
5 5 39 -0.8951 -2.2947
5 5 40 5.1130 1.0638
5 5 41 4.5904 1.1945
5 5 42 4.4245 5.3456
5 6 0 -5.0344 -10.1263
5 6 1 0.8997 10.6316
5 6 2 -6.4288 -1.8561
5 6 3 -7.7518 -1.3752
5 6 4 -14.0828 15.9592
5 6 5 7.4001 2.6707
5 6 6 -4.6918 4.8026
5 6 7 5.4404 -9.3829
5 6 8 -3.8846 2.0884
5 6 9 -2.4058 14.5808
5 6 10 -9.4544 -1.5854
5 6 11 6.4084 4.8686
5 6 12 7.7629 1.9944
5 6 13 3.7957 -5.0588
5 6 14 0.0714 2.7866
5 6 15 -4.9988 -4.2525
5 6 16 7.6620 3.6134
5 6 17 15.5212 -2.3730
5 6 18 0.1588 8.3512
5 6 19 4.1971 -4.8036
5 6 20 -3.2764 0.9655
5 6 21 -9.2151 -3.3327
5 6 22 -0.5438 2.4256
5 6 23 -1.3257 -0.4506
5 6 24 1.5351 3.1423
5 6 25 2.2087 -7.9453
5 6 26 -5.2075 -1.3405
5 6 27 -6.3670 3.9915
5 6 28 -7.9079 2.2589
5 6 29 3.6601 1.1856
5 6 30 4.4144 1.8763
5 6 31 2.7656 -0.2070
5 6 32 1.8138 3.9675
5 6 33 2.1657 -4.1320
5 6 34 0.1933 -2.9217
5 6 35 3.8161 11.1022
5 6 36 0.7372 0.6966
5 6 37 2.1635 -0.6331
5 6 38 1.2494 2.1174
5 6 39 -3.9780 9.6970
5 6 40 -6.9639 -1.8770
5 6 41 1.8196 5.3711
5 7 0 1.1461 -9.2569
5 7 1 -6.1728 -11.1823
5 7 2 -8.6942 1.1732
5 7 3 5.1615 -7.6495
5 7 4 -2.4865 -0.4019
5 7 5 -1.5547 -0.6970
5 7 6 5.7481 3.5077
5 7 7 -14.1346 -16.6669
5 7 8 -0.6386 -2.1628
5 7 9 -4.8304 -5.4384
5 7 10 1.5297 0.8251
5 7 11 12.0819 -4.6232
5 7 12 -10.0274 -5.5442
5 7 13 0.5095 -3.4889
5 7 14 -2.4090 4.1603
5 7 15 -0.2594 6.0396
5 7 16 -4.9083 1.7713
5 7 17 -0.9500 -0.3147
5 7 18 4.0166 -5.8361
5 7 19 0.1058 -7.6961
5 7 20 4.4741 3.3601
5 7 21 -8.8296 -1.7293
5 7 22 7.2037 5.0225
5 7 23 0.7176 3.4400
5 7 24 1.8596 -10.4162
5 7 25 -7.5213 -5.8214
5 7 26 0.9026 -1.8844
5 7 27 -4.9184 0.5671
5 7 28 0.3805 4.7426
5 7 29 0.8375 -0.0529
5 7 30 2.9914 5.0342
5 7 31 4.2142 -0.9655
5 7 32 -4.3010 1.9186
5 7 33 -1.2531 -2.6236
5 7 34 2.6091 1.4837
5 7 35 1.3704 -0.7283
5 7 36 -0.8631 -2.5864
5 7 37 0.6093 -8.9622
5 7 38 -6.9169 -2.1412
5 7 39 -3.5340 0.0490
5 7 40 -0.1628 -0.9956
5 8 0 4.6800 -2.4868
5 8 1 4.0791 0.9397
5 8 2 1.8186 0.2150
5 8 3 -5.6095 0.2973
5 8 4 8.3335 5.4179
5 8 5 -0.0239 -13.3426
5 8 6 6.4154 -1.5946
5 8 7 10.0061 5.1513
5 8 8 13.8280 2.2843
5 8 9 1.3371 11.9295
5 8 10 12.5928 -10.2597
5 8 11 0.1267 -3.7630
5 8 12 -1.3761 1.5950
5 8 13 -4.7237 -9.5732
5 8 14 0.6509 2.5308
5 8 15 4.7312 -6.6220
5 8 16 3.7867 3.4395
5 8 17 -0.9067 -1.2526
5 8 18 -0.6549 6.3957
5 8 19 -5.0603 -4.6072
5 8 20 -5.3047 3.0852
5 8 21 -1.8700 3.0558
5 8 22 7.6795 -3.4240
5 8 23 3.5709 1.6437
5 8 24 2.3111 -10.5413
5 8 25 0.2446 2.5210
5 8 26 -5.3164 -2.5366
5 8 27 -0.8080 3.2822
5 8 28 -3.2064 -1.9029
5 8 29 -4.1664 1.0362
5 8 30 -0.8792 -1.5433
5 8 31 3.2720 -3.1246
5 8 32 3.9124 0.9924
5 8 33 1.6469 1.0946
5 8 34 7.2786 9.8416
5 8 35 2.8603 -8.5228
5 8 36 6.6539 -4.2323
5 8 37 4.3010 -1.1824
5 8 38 -0.8547 1.6811
5 8 39 -4.1730 2.4797
5 9 0 0.4591 1.1961
5 9 1 -0.9409 -2.9168
5 9 2 0.2730 -5.3865
5 9 3 6.3134 -0.4639
5 9 4 1.8236 0.8280
5 9 5 -9.3210 13.9260
5 9 6 -0.9866 3.5304
5 9 7 -13.4124 9.7855
5 9 8 9.4791 5.3350
5 9 9 7.2511 -2.4680
5 9 10 -2.6198 -8.8792
5 9 11 5.6099 2.2820
5 9 12 -2.7379 -3.3153
5 9 13 8.5631 6.1261
5 9 14 5.6116 -3.6640
5 9 15 -10.7368 0.5166
5 9 16 -0.7925 -5.8088
5 9 17 -1.1469 -3.7587
5 9 18 0.6821 -5.3554
5 9 19 -6.6892 -0.0092
5 9 20 4.0081 2.3931
5 9 21 -0.8600 7.1112
5 9 22 8.0641 1.1150
5 9 23 -3.2956 -2.4364
5 9 24 -1.6239 -2.8905
5 9 25 7.8456 -2.5517
5 9 26 -2.2746 -5.3698
5 9 27 6.3711 -5.9621
5 9 28 0.6835 1.6591
5 9 29 7.2808 4.9226
5 9 30 0.3613 3.5736
5 9 31 -4.2101 2.3876
5 9 32 0.9322 5.3355
5 9 33 2.2433 2.7323
5 9 34 5.0184 7.8955
5 9 35 -3.2318 3.5269
5 9 36 7.0492 -1.4041
5 9 37 -8.0670 4.4375
5 10 0 -3.5259 5.4673
5 10 1 11.1865 2.9325
5 10 2 -0.9328 -0.4489
5 10 3 -1.3330 -5.8813
5 10 4 -5.3511 -8.5039
5 10 5 1.1681 -4.2765
5 10 6 -1.1605 7.3911
5 10 7 6.3562 5.1066
5 10 8 3.3715 -7.8155
5 10 9 6.9122 4.5646
5 10 10 3.2967 -3.5713
5 10 11 1.2210 9.4905
5 10 12 -0.9393 4.1946
5 10 13 7.6485 -11.4123
5 10 14 -1.6099 -0.8049
5 10 15 2.1522 -6.5973
5 10 16 -1.7313 -2.4488
5 10 17 5.5658 2.1648
5 10 18 -7.5306 -4.9045
5 10 19 -5.3012 -0.2668
5 10 20 -3.2934 3.4523
5 10 21 1.6142 -1.6000
5 10 22 3.8507 -1.7832
5 10 23 3.0794 7.5103
5 10 24 3.3156 1.9051
5 10 25 0.0595 10.1470
5 10 26 -1.8745 3.4922
5 10 27 -6.5045 -1.7198
5 10 28 -3.4531 10.8262
5 10 29 -0.1429 -0.4921
5 10 30 -1.3110 2.8348
5 10 31 -4.3814 -1.7133
5 10 32 -6.4169 4.2049
5 10 33 -3.4207 4.0423
5 10 34 0.9447 -2.1688
5 10 35 -3.8371 1.2437
5 10 36 0.5298 -2.6643
5 11 0 4.0360 3.4935
5 11 1 4.3954 -2.1940
5 11 2 8.9411 8.6487
5 11 3 -4.0937 -2.3647
5 11 4 -0.2790 3.9915
5 11 5 1.6316 -3.0108
5 11 6 -0.4482 6.5935
5 11 7 6.6911 4.7701
5 11 8 4.2401 8.2697
5 11 9 -12.9272 4.6086
5 11 10 -1.2206 2.0827
5 11 11 9.9254 0.9235
5 11 12 5.8117 -4.1082
5 11 13 7.3256 -4.5935
5 11 14 -2.9248 1.4477
5 11 15 -0.2054 -2.4511
5 11 16 13.1079 -2.2713
5 11 17 -4.7494 -5.7484
5 11 18 -0.1386 -4.8804
5 11 19 4.4315 -1.9939
5 11 20 -1.5851 5.5029
5 11 21 -7.1260 -0.7026
5 11 22 -6.1732 -3.9462
5 11 23 -10.0074 -1.8104
5 11 24 3.0402 -9.3180
5 11 25 -3.0874 -4.0838
5 11 26 -12.8027 -4.1584
5 11 27 -2.4517 4.1049
5 11 28 0.4202 -3.4298
5 11 29 -6.4978 -2.5318
5 11 30 5.2948 -4.6444
5 11 31 -5.3584 -1.3050
5 11 32 -0.3146 2.5304
5 11 33 -4.5676 1.3968
5 11 34 2.5841 -1.8210
5 12 0 3.5434 4.4756
5 12 1 -3.5873 -2.8701
5 12 2 3.1776 2.2556
5 12 3 4.4837 -1.1371
5 12 4 4.3406 4.8094
5 12 5 -8.9261 14.2992
5 12 6 -5.4869 -7.6693
5 12 7 -7.3884 -9.2080
5 12 8 3.1820 8.8002
5 12 9 -0.0362 0.6356
5 12 10 4.1160 2.6321
5 12 11 4.9228 9.3318
5 12 12 -0.8273 -8.4828
5 12 13 2.0156 7.0955
5 12 14 -4.5193 3.2378
5 12 15 4.4148 -0.4387
5 12 16 5.5232 6.3024
5 12 17 -2.6649 -2.3163
5 12 18 -0.8200 -9.3012
5 12 19 6.0189 1.6685
5 12 20 4.2850 -10.7595
5 12 21 7.4042 -4.1340
5 12 22 8.2186 0.9247
5 12 23 5.2822 -1.1431
5 12 24 -0.0370 -10.5064
5 12 25 4.4489 -3.8377
5 12 26 -3.8702 -9.7288
5 12 27 6.4807 6.1131
5 12 28 -0.9694 5.0437
5 12 29 0.1147 -5.2484
5 12 30 -10.0154 -7.8052
5 12 31 1.0641 7.3582
5 13 0 -0.2119 7.4393
5 13 1 -3.4139 7.0546
5 13 2 -7.4646 0.7441
5 13 3 -4.7780 -0.4327
5 13 4 7.3335 -2.6699
5 13 5 -7.0346 -1.7901
5 13 6 2.5342 -0.0695
5 13 7 5.8428 3.7971
5 13 8 -10.1331 -1.4105
5 13 9 -0.7867 -0.5947
5 13 10 13.8182 -1.8057
5 13 11 -8.6419 -1.3857
5 13 12 -1.4763 -4.9038
5 13 13 -0.7456 -5.5939
5 13 14 -3.3445 -0.3129
5 13 15 13.7826 -6.6913
5 13 16 -2.3412 7.5449
5 13 17 3.5936 0.6068
5 13 18 12.4071 3.1806
5 13 19 -4.1024 9.7739
5 13 20 -5.7287 1.7906
5 13 21 5.1143 1.2602
5 13 22 3.0636 5.7743
5 13 23 12.9754 2.3112
5 13 24 -1.2708 0.9931
5 13 25 -5.1130 1.0625
5 13 26 -3.5531 0.6265
5 13 27 5.2586 -11.1041
5 13 28 -3.8500 0.2481
5 13 29 3.1883 -5.0188
5 14 0 -3.1838 -3.8381
5 14 1 -1.9218 -2.2338
5 14 2 0.9465 -1.9477
5 14 3 -2.2563 -1.9995
5 14 4 -0.2361 3.8589
5 14 5 0.0290 -1.7838
5 14 6 8.5984 -6.9089
5 14 7 1.5710 17.8068
5 14 8 1.4930 -3.5822
5 14 9 2.4638 -4.3283
5 14 10 9.4720 3.3282
5 14 11 8.3536 1.8356
5 14 12 9.9156 -2.7336
5 14 13 1.2345 13.2811
5 14 14 -0.7889 -4.4178
5 14 15 -3.7237 12.8130
5 14 16 0.1477 -1.2479
5 14 17 -4.4253 -10.1594
5 14 18 9.0158 2.5514
5 14 19 -4.7902 -1.7972
5 14 20 -7.3932 -0.9827
5 14 21 2.5141 10.7173
5 14 22 -6.0252 -3.3442
5 14 23 1.0422 -5.9815
5 14 24 4.7375 -0.8965
5 14 25 3.9493 -7.2167
5 14 26 1.4661 6.8112
5 15 0 -0.0802 -1.6269
5 15 1 5.0127 -0.6535
5 15 2 1.2355 3.5055
5 15 3 -1.1518 4.4394
5 15 4 -2.6573 1.8910
5 15 5 -4.8116 4.4278
5 15 6 2.9815 -2.2134
5 15 7 1.0052 7.7765
5 15 8 -6.5555 1.7439
5 15 9 13.0000 17.3972
5 15 10 -13.8260 2.8677
5 15 11 -0.4053 4.2784
5 15 12 -1.8911 -9.7121
5 15 13 0.0910 0.4530
5 15 14 -0.3258 -0.0764
5 15 15 9.1693 9.2195
5 15 16 -6.4704 0.4534
5 15 17 17.2747 -0.0377
5 15 18 -11.0990 -4.6275
5 15 19 -1.3511 1.7286
5 15 20 8.1034 -7.6805
5 15 21 4.2419 5.6454
5 15 22 0.8002 5.0314
5 16 0 1.3988 -0.5080
5 16 1 -5.5510 -2.6489
5 16 2 4.9986 1.2807
5 16 3 0.0747 -3.5987
5 16 4 -0.1295 0.3897
5 16 5 -1.7127 2.7378
5 16 6 -14.1663 2.9509
5 16 7 -2.4471 0.9449
5 16 8 -5.3875 -2.1592
5 16 9 12.0807 -1.2531
5 16 10 1.2982 10.6542
5 16 11 10.9874 -9.4318
5 16 12 -12.9843 12.1502
5 16 13 2.3525 -5.4545
5 16 14 -7.0966 6.6470
5 16 15 5.5029 1.4971
5 16 16 1.2135 -1.9122
5 16 17 5.2231 0.8635
5 17 0 -0.8185 14.2241
5 17 1 0.8001 2.0392
5 17 2 -1.0465 -2.7624
5 17 3 1.2906 -2.5598
5 17 4 -0.6867 -14.3349
5 17 5 -5.3929 1.4200
5 17 6 0.0297 5.7081
5 17 7 -4.1179 4.1533
5 17 8 -3.9532 15.7368
6 0 0 -5.7829 -14.9583
6 0 1 5.4634 35.7518
6 0 2 -21.6274 -1.4543
6 0 3 4.0726 -15.7042
6 0 4 18.2871 9.9962
6 0 5 1.5779 10.0863
6 0 6 -25.4868 2.3048
6 0 7 -10.8115 21.3173
6 0 8 15.9702 -2.5272
6 0 9 -6.6506 -5.6703
6 0 10 -11.0737 4.8684
6 0 11 -0.2968 -23.5113
6 0 12 -5.3822 8.1835
6 0 13 0.5027 9.2295
6 0 14 1.8478 -6.1666
6 0 15 3.1856 -2.4310
6 0 16 8.6246 -11.3645
6 0 17 8.1593 10.6796
6 0 18 7.1009 -3.3882
6 0 19 3.0883 -0.4916
6 0 20 -7.5448 3.8523
6 0 21 -5.1960 -1.0770
6 0 22 -7.1463 2.6043
6 0 23 -4.6123 3.3262
6 0 24 -6.3849 0.8512
6 0 25 -2.5443 2.6429
6 0 26 8.3857 3.1380
6 0 27 -4.7292 -10.1965
6 0 28 2.3622 4.6462
6 0 29 -0.1536 11.2746
6 0 30 1.3768 -0.4568
6 0 31 7.0592 9.1713
6 0 32 6.1512 -7.8623
6 0 33 4.9293 -0.0038
6 0 34 3.5231 -6.5976
6 0 35 -0.6520 -1.8852
6 0 36 -5.6602 2.9870
6 0 37 -0.1427 5.4790
6 0 38 6.2584 5.1520
6 0 39 -1.7567 -5.3283
6 0 40 -5.8267 -0.3423
6 0 41 -6.7449 -8.8550
6 0 42 -0.9694 1.3575
6 0 43 -4.7738 2.4352
6 1 0 15.6694 2.8906
6 1 1 20.9066 -6.3806
6 1 2 -43.0769 14.3089
6 1 3 8.1141 -9.9926
6 1 4 -24.1236 7.1957
6 1 5 -10.6181 -10.3416
6 1 6 5.3569 6.7270
6 1 7 -1.8938 0.3898
6 1 8 8.5817 14.0298
6 1 9 18.9115 -15.2441
6 1 10 -20.0480 -9.8948
6 1 11 -4.7194 13.7592
6 1 12 17.6591 10.8220
6 1 13 -2.8108 -6.3811
6 1 14 17.0751 8.6607
6 1 15 -2.9442 10.3988
6 1 16 -9.3014 2.8442
6 1 17 8.2479 -6.1260
6 1 18 -15.4972 -11.8184
6 1 19 4.9190 -10.2787
6 1 20 -15.1582 -4.2068
6 1 21 -1.9054 -12.4869
6 1 22 1.4191 -3.0380
6 1 23 -5.2692 -6.0347
6 1 24 5.0077 2.0129
6 1 25 1.0668 -0.8498
6 1 26 -5.8333 1.3187
6 1 27 -5.7950 6.6317
6 1 28 -1.7133 -1.6001
6 1 29 -12.1534 16.7591
6 1 30 9.9900 2.6738
6 1 31 6.5711 4.3512
6 1 32 0.0059 2.1825
6 1 33 4.7781 -3.1217
6 1 34 -12.1615 -0.1789
6 1 35 -0.1939 -0.0605
6 1 36 -11.9729 2.5935
6 1 37 -0.5591 -2.3267
6 1 38 2.9657 -0.1065
6 1 39 8.2776 -11.5093
6 1 40 -0.5824 -6.2776
6 1 41 -7.9045 2.4218
6 1 42 2.4583 3.3739
6 1 43 -6.1523 0.8533
6 2 0 -9.6182 -9.0089
6 2 1 -11.3163 -9.5488
6 2 2 9.8689 -26.6647
6 2 3 1.0930 -10.2627
6 2 4 -7.0639 23.4947
6 2 5 -24.2664 -19.6695
6 2 6 16.7670 20.9367
6 2 7 4.6837 -1.4064
6 2 8 2.3197 -10.2731
6 2 9 -23.0584 1.3981
6 2 10 9.0589 4.3358
6 2 11 -9.5840 1.3681
6 2 12 -9.8012 22.3687
6 2 13 -1.5279 -9.0373
6 2 14 6.9513 -15.2302
6 2 15 3.1366 9.2183
6 2 16 17.7470 -10.0432
6 2 17 10.4106 -5.5576
6 2 18 6.5389 -6.8873
6 2 19 5.8658 -15.0917
6 2 20 7.5567 15.5134
6 2 21 1.0881 -5.9639
6 2 22 10.6931 10.9118
6 2 23 -10.1287 -6.4430
6 2 24 3.8492 -1.6157
6 2 25 -10.3573 2.0233
6 2 26 -3.2723 -10.2692
6 2 27 -15.2624 -3.5748
6 2 28 -4.2759 8.5977
6 2 29 5.2140 5.7084
6 2 30 -3.8474 -0.1258
6 2 31 5.9425 3.0657
6 2 32 -4.7087 -14.7390
6 2 33 1.8297 -6.7320
6 2 34 -0.6635 -8.2598
6 2 35 -4.1448 -6.0573
6 2 36 5.7985 10.6758
6 2 37 9.1109 -3.2521
6 2 38 4.0808 6.8567
6 2 39 -9.6281 -5.2357
6 2 40 -0.7292 1.4446
6 2 41 -6.6772 -8.9464
6 2 42 1.4145 8.7155
6 3 0 22.9441 4.8998
6 3 1 -17.1394 -10.8728
6 3 2 1.9827 -5.0379
6 3 3 4.6523 3.5368
6 3 4 -10.1283 -4.1591
6 3 5 -1.6860 6.6185
6 3 6 13.0870 0.2452
6 3 7 -8.7354 -0.7295
6 3 8 13.5286 -20.2536
6 3 9 -15.8094 -5.2692
6 3 10 -4.6656 -4.1029
6 3 11 10.7917 6.7702
6 3 12 11.0150 -10.3163
6 3 13 -8.4889 12.9309
6 3 14 7.6287 16.9751
6 3 15 1.3221 2.1580
6 3 16 7.0339 -2.8006
6 3 17 10.7862 6.7289
6 3 18 -13.5559 0.0397
6 3 19 -10.5081 8.2545
6 3 20 -2.0980 2.1274
6 3 21 -4.1623 -1.1485
6 3 22 5.5309 -4.4923
6 3 23 -5.3913 1.4128
6 3 24 10.3168 -18.8699
6 3 25 -4.4613 2.1876
6 3 26 -2.1413 -8.9068
6 3 27 -5.1380 14.5661
6 3 28 -4.6996 -2.8756
6 3 29 3.4787 6.4406
6 3 30 14.7952 -6.3439
6 3 31 4.9405 -3.3409
6 3 32 4.1002 1.3027
6 3 33 0.1143 -2.3391
6 3 34 -6.4500 5.3355
6 3 35 -0.3348 2.5786
6 3 36 -4.7582 2.2605
6 3 37 0.7818 -3.8233
6 3 38 4.3316 -10.9265
6 3 39 -9.2408 -7.2165
6 3 40 -2.6825 2.5105
6 3 41 -7.9552 3.4853
6 3 42 2.6886 -10.1116
6 4 0 -1.9038 5.6156
6 4 1 5.9714 -9.4091
6 4 2 -0.6250 -7.9163
6 4 3 -16.0235 11.8041
6 4 4 -4.2089 -4.9872
6 4 5 20.0818 3.4802
6 4 6 6.3291 7.3720
6 4 7 5.6481 -2.0582
6 4 8 4.4226 -1.6334
6 4 9 10.3686 13.3181
6 4 10 -3.5066 -2.1459
6 4 11 -11.6463 8.0355
6 4 12 -1.1069 -6.6820
6 4 13 7.6614 1.2107
6 4 14 0.5520 4.7032
6 4 15 3.0191 10.8137
6 4 16 4.6044 -15.6282
6 4 17 -9.2521 -15.1433
6 4 18 -2.4360 -4.8210
6 4 19 3.7156 -3.5414
6 4 20 -3.4281 4.3073
6 4 21 7.1312 1.1784
6 4 22 2.3955 -1.1419
6 4 23 0.6646 0.9021
6 4 24 -5.8229 1.0211
6 4 25 -5.8991 -6.6773
6 4 26 -16.8155 -5.1661
6 4 27 9.3763 10.2162
6 4 28 -0.2250 6.4424
6 4 29 11.5878 5.9879
6 4 30 -9.5245 -6.6966
6 4 31 5.9356 -1.9112
6 4 32 -2.8679 -7.8938
6 4 33 -1.7859 3.3439
6 4 34 -3.7239 -4.9009
6 4 35 6.7734 2.1408
6 4 36 10.2543 -5.1755
6 4 37 -2.1314 -8.1107
6 4 38 -2.0987 -3.1759
6 4 39 -0.2218 -8.0593
6 4 40 2.2669 -0.2216
6 4 41 -0.8053 0.5384
6 4 42 2.6979 -3.6451
6 5 0 5.8945 -7.7960
6 5 1 -11.0341 -7.9822
6 5 2 12.4176 2.4088
6 5 3 -11.2719 1.1747
6 5 4 -10.7107 9.3312
6 5 5 5.6416 13.6286
6 5 6 -7.6424 7.6306
6 5 7 -1.2619 -4.1918
6 5 8 -4.7500 1.8491
6 5 9 -2.9777 -3.4416
6 5 10 2.6416 2.3871
6 5 11 0.4791 2.6252
6 5 12 -15.1257 8.9984
6 5 13 1.0513 12.1775
6 5 14 6.5045 -6.7626
6 5 15 13.9795 -5.9393
6 5 16 4.4356 2.2664
6 5 17 1.5470 3.0015
6 5 18 -8.3896 -4.3491
6 5 19 -2.7725 5.0387
6 5 20 3.5134 -3.9766
6 5 21 -5.2597 -6.5317
6 5 22 0.7275 -3.6591
6 5 23 6.4331 -19.3728
6 5 24 -1.8661 -6.4471
6 5 25 -7.4047 2.7317
6 5 26 -1.0513 6.7440
6 5 27 -3.7313 -0.4113
6 5 28 6.7922 3.0128
6 5 29 7.9733 -6.4044
6 5 30 -2.0067 5.1003
6 5 31 3.7395 -6.4392
6 5 32 -6.1290 7.3035
6 5 33 7.5522 -0.8196
6 5 34 0.3316 2.1501
6 5 35 11.9124 -2.6533
6 5 36 -0.7658 -2.1195
6 5 37 5.2304 -8.9470
6 5 38 -3.4118 -3.1078
6 5 39 1.2506 5.3296
6 5 40 7.3332 -4.4701
6 5 41 1.8315 -4.5401
6 6 0 9.5464 -0.7807
6 6 1 -8.1928 -7.2247
6 6 2 -10.2626 -9.8720
6 6 3 -8.0784 9.1958
6 6 4 3.4076 -11.9839
6 6 5 -2.5216 6.8630
6 6 6 -0.1607 4.5276
6 6 7 8.6206 -11.2465
6 6 8 -0.9429 1.3309
6 6 9 -7.2376 -10.8613
6 6 10 -6.8138 -8.8122
6 6 11 -1.3994 -3.0116
6 6 12 9.3606 1.7774
6 6 13 0.3291 6.9499
6 6 14 -2.9333 6.9177
6 6 15 -0.6737 -10.5897
6 6 16 -5.4442 -10.0717
6 6 17 -0.7244 -0.1583
6 6 18 8.9426 -0.4693
6 6 19 4.5222 -0.4275
6 6 20 6.3950 2.5419
6 6 21 14.4137 2.2562
6 6 22 4.2717 -3.1717
6 6 23 -3.9165 -1.0583
6 6 24 0.9402 -2.3673
6 6 25 -7.2041 -3.1171
6 6 26 8.2363 8.4395
6 6 27 2.9325 2.0433
6 6 28 -1.3433 -3.3018
6 6 29 -5.5564 -1.2242
6 6 30 0.5055 1.9976
6 6 31 -3.2273 0.5828
6 6 32 2.9892 6.7602
6 6 33 -1.2285 -1.4826
6 6 34 12.9706 4.7568
6 6 35 6.2589 -4.0501
6 6 36 -1.8952 6.1069
6 6 37 3.6088 -5.2130
6 6 38 8.1802 8.2878
6 6 39 0.0660 5.6816
6 6 40 -1.0029 5.9138
6 7 0 9.3707 -5.7733
6 7 1 -3.1538 0.4520
6 7 2 -1.1071 -1.9137
6 7 3 -8.9528 10.1407
6 7 4 -7.8139 0.9760
6 7 5 13.3406 6.0785
6 7 6 -1.8744 -4.3138
6 7 7 12.3415 -0.2336
6 7 8 13.7644 5.2477
6 7 9 -3.4978 -1.7978
6 7 10 2.0777 13.0364
6 7 11 -6.4933 0.0095
6 7 12 2.5837 -3.2238
6 7 13 13.3665 -10.7754
6 7 14 5.0468 -9.7972
6 7 15 1.6727 6.5770
6 7 16 -0.5692 5.4269
6 7 17 -6.5546 2.0965
6 7 18 -6.8703 1.4746
6 7 19 2.6974 7.9038
6 7 20 -4.1115 -2.9648
6 7 21 5.2207 2.7313
6 7 22 1.3554 -5.6038
6 7 23 -2.1266 1.9796
6 7 24 -2.7788 8.0842
6 7 25 1.7536 4.0736
6 7 26 4.6787 -7.4211
6 7 27 -4.5299 0.2955
6 7 28 1.0131 -7.4410
6 7 29 -4.9109 -2.0418
6 7 30 2.7937 -0.9152
6 7 31 -3.4800 5.7569
6 7 32 5.7634 4.7504
6 7 33 -6.1806 2.6814
6 7 34 0.8671 -0.6188
6 7 35 -1.6941 7.3948
6 7 36 -4.9029 0.3857
6 7 37 -3.9749 1.1338
6 7 38 3.3333 6.6232
6 7 39 -12.2837 -2.1657
6 8 0 -17.4979 0.5144
6 8 1 0.3984 -4.7238
6 8 2 -6.0693 -12.2988
6 8 3 3.0485 5.5461
6 8 4 -4.6109 2.0297
6 8 5 1.3155 9.3602
6 8 6 -10.7204 6.7622
6 8 7 -3.4434 -6.3479
6 8 8 -11.4147 3.8885
6 8 9 -0.0528 -2.3902
6 8 10 14.7031 -0.6995
6 8 11 8.5284 11.3207
6 8 12 13.2821 1.6999
6 8 13 -10.7620 -0.3850
6 8 14 -2.2707 -6.1360
6 8 15 -1.6994 -11.3632
6 8 16 2.1881 -2.5477
6 8 17 6.2383 -4.9285
6 8 18 -2.7001 -2.1904
6 8 19 1.4930 4.9129
6 8 20 -0.8520 4.3740
6 8 21 -0.3736 -6.9724
6 8 22 -11.1766 2.7072
6 8 23 3.7304 -2.4823
6 8 24 -1.6283 4.1433
6 8 25 9.8241 -1.0697
6 8 26 5.7731 -4.7850
6 8 27 0.8856 0.2932
6 8 28 0.5752 1.3105
6 8 29 1.7475 4.6582
6 8 30 -2.9400 -4.1689
6 8 31 -1.9180 0.3179
6 8 32 1.8352 -5.2144
6 8 33 0.3260 6.1121
6 8 34 -2.3608 -8.2842
6 8 35 -4.4103 5.9036
6 8 36 0.3797 -3.0322
6 8 37 2.9841 -9.3904
6 8 38 -6.1779 -1.5558
6 9 0 12.7817 -0.7137
6 9 1 -6.7488 -2.8554
6 9 2 2.9126 4.7539
6 9 3 1.9822 -11.9895
6 9 4 -6.7595 -5.6206
6 9 5 3.8594 -10.0161
6 9 6 -4.6133 -2.0753
6 9 7 3.2357 0.0691
6 9 8 -0.2193 13.7814
6 9 9 -4.3253 12.2360
6 9 10 3.3424 7.3735
6 9 11 4.1409 -6.8312
6 9 12 3.1058 -8.8427
6 9 13 8.4343 1.5630
6 9 14 3.4207 5.4684
6 9 15 7.0161 10.2288
6 9 16 0.4808 -8.6222
6 9 17 -7.4838 -1.2782
6 9 18 -2.1570 0.0483
6 9 19 3.5695 -4.8298
6 9 20 1.1629 -2.2467
6 9 21 1.7654 -3.4789
6 9 22 -2.0845 7.4283
6 9 23 -3.0443 7.2242
6 9 24 4.6340 3.5866
6 9 25 -5.8626 -5.2337
6 9 26 -3.3748 10.3959
6 9 27 0.1628 -2.6647
6 9 28 0.4554 -1.5821
6 9 29 1.4935 3.6337
6 9 30 -2.0918 0.7066
6 9 31 -2.7141 1.4032
6 9 32 -2.3281 -4.6340
6 9 33 2.9232 3.6334
6 9 34 0.5278 -1.2666
6 9 35 8.6144 2.0531
6 9 36 1.0110 -3.3809
6 10 0 12.7468 -0.2318
6 10 1 4.3298 4.1155
6 10 2 6.9456 -3.1957
6 10 3 6.4537 -0.1851
6 10 4 3.8332 -7.5992
6 10 5 0.1019 -3.2625
6 10 6 -9.2939 5.1779
6 10 7 -10.0214 -0.9693
6 10 8 -1.7976 4.6298
6 10 9 4.7533 -3.7738
6 10 10 5.7832 2.7355
6 10 11 1.4967 0.9508
6 10 12 -9.4062 1.6842
6 10 13 -1.4635 2.6904
6 10 14 9.0890 2.9992
6 10 15 1.9056 -8.5341
6 10 16 4.4605 -0.3859
6 10 17 0.9300 -0.7748
6 10 18 -3.8260 6.4000
6 10 19 2.5182 2.5146
6 10 20 -6.5069 -3.7536
6 10 21 -5.7179 -9.3885
6 10 22 1.8594 1.9653
6 10 23 -0.2657 -7.6350
6 10 24 1.2510 -4.8486
6 10 25 -1.8446 -1.1582
6 10 26 -3.5360 -1.6886
6 10 27 -3.2289 0.4527
6 10 28 8.5763 -5.2743
6 10 29 -6.3931 -8.7159
6 10 30 -2.0575 3.6122
6 10 31 3.3491 6.0853
6 10 32 -2.5322 2.6250
6 10 33 -0.6299 5.0257
6 10 34 -6.7683 4.3258
6 10 35 3.1248 3.2307
6 11 0 -0.1279 -1.3147
6 11 1 9.7040 13.5682
6 11 2 4.5852 -2.9043
6 11 3 2.1749 7.6107
6 11 4 -0.7080 -2.2516
6 11 5 -0.1243 -4.9992
6 11 6 1.0220 1.9529
6 11 7 7.7148 -5.8406
6 11 8 3.2921 9.7124
6 11 9 1.4428 -3.4040
6 11 10 3.4839 -4.2269
6 11 11 -4.4909 1.2123
6 11 12 5.5050 9.0347
6 11 13 1.3330 2.8239
6 11 14 0.6513 3.7531
6 11 15 -4.0473 -12.0359
6 11 16 -5.3774 -4.8987
6 11 17 -6.2113 4.8642
6 11 18 11.7305 -9.9468
6 11 19 4.6243 -2.3112
6 11 20 5.2923 3.8655
6 11 21 5.0819 3.9531
6 11 22 6.5315 4.2798
6 11 23 -1.2995 -8.5383
6 11 24 8.3850 -2.6317
6 11 25 0.0452 7.4687
6 11 26 7.5750 -1.1158
6 11 27 3.7878 -3.3638
6 11 28 -7.5025 -0.5142
6 11 29 -6.8813 2.0910
6 11 30 -4.6553 -7.1040
6 11 31 -6.9118 1.6528
6 11 32 2.3249 -2.8085
6 11 33 -0.0222 -7.1305
6 12 0 -9.6751 1.5650
6 12 1 -2.4432 4.1344
6 12 2 -7.2617 -1.2002
6 12 3 6.4102 -0.3998
6 12 4 -0.7022 6.8865
6 12 5 3.3669 9.0532
6 12 6 -2.5989 -0.4064
6 12 7 3.6280 0.8086
6 12 8 4.5582 4.2547
6 12 9 -10.9785 -0.5401
6 12 10 0.9603 9.0598
6 12 11 -5.7498 -3.9154
6 12 12 9.6904 -4.0491
6 12 13 11.2096 -4.2009
6 12 14 5.4572 -12.2844
6 12 15 3.4727 0.4551
6 12 16 7.8981 9.2367
6 12 17 -8.2839 5.0808
6 12 18 1.4922 4.4820
6 12 19 -3.4263 2.6926
6 12 20 -5.7399 -1.8285
6 12 21 6.3900 7.1261
6 12 22 -0.6355 4.3776
6 12 23 -3.1755 2.1911
6 12 24 0.3156 3.0277
6 12 25 -5.3663 2.4379
6 12 26 6.5446 -11.5551
6 12 27 7.8193 -6.8535
6 12 28 -6.4842 -5.5766
6 12 29 -0.2846 -1.2115
6 12 30 6.5499 4.6420
6 13 0 2.8915 1.8889
6 13 1 -3.5566 -1.2207
6 13 2 -1.4067 2.8104
6 13 3 0.6296 -0.0083
6 13 4 0.8656 6.3016
6 13 5 3.5270 -0.0277
6 13 6 -0.0415 -1.1903
6 13 7 -3.1768 -2.0710
6 13 8 -7.9342 0.1264
6 13 9 5.7895 -2.1069
6 13 10 9.7290 10.4839
6 13 11 4.8167 13.0448
6 13 12 13.4835 6.0621
6 13 13 -10.9750 6.2950
6 13 14 -1.7059 -5.6147
6 13 15 -4.7539 -0.2541
6 13 16 -4.5117 4.1501
6 13 17 2.4710 -10.6087
6 13 18 4.2808 -3.4548
6 13 19 -7.2572 9.9623
6 13 20 0.1514 -8.0316
6 13 21 -4.2749 -2.1630
6 13 22 -1.5042 -4.6555
6 13 23 3.9052 -1.2335
6 13 24 6.8512 11.2135
6 13 25 4.8014 -1.0753
6 13 26 2.6960 -7.2873
6 13 27 -1.5473 5.3425
6 14 0 -1.8662 -1.1006
6 14 1 -1.5369 8.1939
6 14 2 -4.1101 3.8467
6 14 3 2.0686 4.3522
6 14 4 -5.7772 2.2060
6 14 5 -0.9235 -6.9654
6 14 6 4.4954 5.7388
6 14 7 -5.0984 4.9335
6 14 8 -10.3556 7.8728
6 14 9 -7.0122 6.8187
6 14 10 -1.5167 2.4799
6 14 11 -3.2488 -9.3522
6 14 12 5.9051 -1.5440
6 14 13 -3.2570 -1.8042
6 14 14 6.5955 -9.5129
6 14 15 3.5880 12.2525
6 14 16 -4.3865 -7.0072
6 14 17 1.4106 -0.2987
6 14 18 13.1393 -0.3883
6 14 19 -5.4727 -1.2082
6 14 20 7.0699 -3.0926
6 14 21 0.6596 4.1737
6 14 22 -9.0834 -1.2392
6 14 23 3.9419 5.8569
6 14 24 2.0034 -2.5244
6 15 0 -2.9217 -0.5944
6 15 1 9.4567 -3.8063
6 15 2 -7.5781 -3.2123
6 15 3 1.2188 -4.7012
6 15 4 -7.9815 -0.0476
6 15 5 -9.6039 -12.5070
6 15 6 1.7948 -0.9027
6 15 7 -11.0579 -4.6467
6 15 8 12.7289 -2.4144
6 15 9 1.5840 4.3179
6 15 10 -1.5460 3.4548
6 15 11 5.4098 2.7099
6 15 12 1.9886 -1.5400
6 15 13 -1.0513 1.6780
6 15 14 10.6629 -0.3275
6 15 15 -2.0094 9.6970
6 15 16 -5.7012 -1.9124
6 15 17 9.3574 5.9782
6 15 18 -3.8793 2.9514
6 15 19 2.7913 -1.8706
6 15 20 1.7132 -11.9473
6 16 0 7.3406 -0.3248
6 16 1 4.1466 3.3251
6 16 2 10.6091 -14.4413
6 16 3 6.4652 -6.7188
6 16 4 8.7459 6.9575
6 16 5 1.5156 -0.8721
6 16 6 2.0479 3.4311
6 16 7 -8.7061 2.0255
6 16 8 1.9557 -10.1744
6 16 9 0.0151 10.8392
6 16 10 3.8765 -4.9185
6 16 11 -0.6343 10.5042
6 16 12 -3.8377 9.0054
6 16 13 -0.5154 -8.4208
6 16 14 -6.5067 -0.0366
6 17 0 9.4699 5.9360
6 17 1 -3.3259 13.5194
7 0 1 0.5437 20.8771
7 0 2 -12.8486 -8.0243
7 0 3 -3.2062 -0.2897
7 0 4 16.5855 -9.3312
7 0 5 -3.5621 10.2123
7 0 6 2.4939 2.3083
7 0 7 2.9592 -20.0466
7 0 8 -3.6550 -1.2583
7 0 9 3.0340 19.2946
7 0 10 -4.0990 0.4019
7 0 11 -1.2155 2.0059
7 0 12 3.9893 7.4063
7 0 13 3.1619 -4.9483
7 0 14 -23.2131 10.7527
7 0 15 9.1805 4.3383
7 0 16 -2.3219 1.0721
7 0 17 -2.6799 0.6194
7 0 18 2.9100 -10.5143
7 0 19 -10.4512 -7.1400
7 0 20 2.6886 -9.4100
7 0 21 -0.9779 -5.4715
7 0 22 -0.4886 -1.4880
7 0 23 4.6268 8.8744
7 0 24 0.9330 0.2600
7 0 25 -2.2359 2.4887
7 0 26 -13.7024 -0.5666
7 0 27 -1.3410 -3.3410
7 0 28 5.8538 4.8432
7 0 29 8.0280 -8.5237
7 0 30 3.3310 10.0946
7 0 31 5.3693 0.2892
7 0 32 0.2005 2.8909
7 0 33 -5.1459 2.9579
7 0 34 0.3619 -7.5003
7 0 35 -5.0125 2.5889
7 0 36 6.2566 -6.6828
7 0 37 -0.3171 1.4187
7 0 38 0.3708 -0.2855
7 0 39 -1.0255 12.0596
7 0 40 -2.3361 -1.2691
7 0 41 -1.5232 4.9829
7 1 0 6.1798 -15.2226
7 1 1 -10.0985 15.2685
7 1 2 7.0380 4.4113
7 1 3 2.6165 -5.9501
7 1 4 -7.2886 -0.7000
7 1 5 9.3386 8.1702
7 1 6 -3.0471 0.0832
7 1 7 3.0330 7.2926
7 1 8 -4.3044 -0.6553
7 1 9 -12.7062 7.9301
7 1 10 3.4975 9.8681
7 1 11 11.2341 -11.7390
7 1 12 -20.5531 -1.5188
7 1 13 -1.3384 -1.1850
7 1 14 9.8365 7.4719
7 1 15 3.1733 -11.5576
7 1 16 18.1976 8.6382
7 1 17 8.4645 -19.6269
7 1 18 7.7140 6.8500
7 1 19 9.9863 3.1316
7 1 20 -9.2401 -3.7984
7 1 21 -0.3685 9.6460
7 1 22 -9.5699 -5.1832
7 1 23 -0.0126 -5.8562
7 1 24 -5.3908 -8.4350
7 1 25 4.1629 -1.9180
7 1 26 -5.7684 1.3033
7 1 27 -1.0487 6.5007
7 1 28 -4.3065 8.5501
7 1 29 -1.9122 1.3057
7 1 30 2.2183 -4.5611
7 1 31 -6.9626 -1.9635
7 1 32 14.2985 2.7082
7 1 33 0.0619 -6.6960
7 1 34 3.6248 4.4776
7 1 35 3.6824 3.2198
7 1 36 -6.2603 0.0166
7 1 37 -0.6276 4.1338
7 1 38 -13.1107 -9.8442
7 1 39 -0.3904 4.8013
7 1 40 -3.0846 1.1116
7 1 41 6.0295 -1.6388
7 2 0 1.9564 0.0486
7 2 1 -0.4180 0.5590
7 2 2 4.0914 -18.6698
7 2 3 5.2019 14.4552
7 2 4 -12.1942 2.3348
7 2 5 -11.4183 -2.3045
7 2 6 -6.0434 -10.0227
7 2 7 -1.1471 -1.1670
7 2 8 -2.1647 10.4485
7 2 9 2.6888 -8.8951
7 2 10 2.5887 -9.5731
7 2 11 1.7451 10.0601
7 2 12 -3.4280 5.7810
7 2 13 -6.3887 0.6347
7 2 14 10.6518 22.8794
7 2 15 4.7540 4.8902
7 2 16 6.2102 -0.0012
7 2 17 -18.5761 2.8538
7 2 18 6.8152 -11.7929
7 2 19 -12.2922 -2.3833
7 2 20 10.3095 -8.1801
7 2 21 1.5317 -9.9317
7 2 22 -0.1811 2.4664
7 2 23 9.8273 -6.3444
7 2 24 -1.4188 -1.0787
7 2 25 -6.1649 -8.6588
7 2 26 -5.4649 6.5452
7 2 27 5.7343 -4.2530
7 2 28 2.0107 1.6016
7 2 29 2.5490 0.9440
7 2 30 -0.3475 9.0537
7 2 31 0.2077 -0.5278
7 2 32 -5.3871 1.1099
7 2 33 -4.1273 4.7832
7 2 34 1.0213 -6.7692
7 2 35 -8.4826 -2.4394
7 2 36 5.4462 -11.9686
7 2 37 -6.6673 -4.2693
7 2 38 -2.5132 2.4509
7 2 39 3.0196 -4.6048
7 2 40 -7.3997 -5.0223
7 2 41 8.3797 -12.4926
7 3 0 -2.4798 19.7614
7 3 1 8.6085 -6.5727
7 3 2 -6.4577 -13.5513
7 3 3 6.6330 -8.5662
7 3 4 -2.0217 -2.4401
7 3 5 10.5118 4.1681
7 3 6 -0.4760 2.0146
7 3 7 4.0612 4.2752
7 3 8 -6.9954 5.3349
7 3 9 3.2585 0.0211
7 3 10 -0.5700 -9.3228
7 3 11 -13.8426 -2.2859
7 3 12 -10.8342 7.5823
7 3 13 7.5127 4.8178
7 3 14 -0.3464 0.1582
7 3 15 1.2281 -10.8407
7 3 16 13.9731 -6.7177
7 3 17 7.0809 0.7017
7 3 18 5.2877 -3.9622
7 3 19 8.4200 6.9949
7 3 20 -1.4745 -8.0527
7 3 21 6.3560 12.7027
7 3 22 -0.0401 -3.9360
7 3 23 -1.2311 1.0011
7 3 24 -5.5425 -0.4311
7 3 25 -0.8350 2.1993
7 3 26 -2.9555 4.0661
7 3 27 -6.0201 5.4746
7 3 28 3.0650 -0.7690
7 3 29 -5.0824 -6.5358
7 3 30 1.7754 0.6034
7 3 31 3.0867 -2.7303
7 3 32 5.7192 -2.0594
7 3 33 0.0508 -6.3128
7 3 34 9.4249 -1.8587
7 3 35 3.2190 -4.3087
7 3 36 1.2038 -7.8853
7 3 37 0.0809 3.6455
7 3 38 1.1044 -5.4307
7 3 39 12.1693 11.5949
7 3 40 -1.0604 -1.2525
7 3 41 -5.9663 -0.9104
7 4 0 4.0602 -4.6054
7 4 1 6.9685 -2.8148
7 4 2 2.3915 19.8561
7 4 3 -13.2201 -2.9417
7 4 4 -9.6464 4.7645
7 4 5 -3.7083 -4.8474
7 4 6 -2.9473 5.2729
7 4 7 5.2603 -0.6772
7 4 8 1.3913 -7.5037
7 4 9 5.6613 -7.5030
7 4 10 -3.1164 9.0363
7 4 11 -3.3878 -6.9400
7 4 12 -1.7732 -2.3564
7 4 13 6.8683 8.8869
7 4 14 11.7145 11.3675
7 4 15 -2.6029 -1.1389
7 4 16 1.7308 6.4402
7 4 17 -3.3898 3.1083
7 4 18 5.6517 -0.4120
7 4 19 -4.7535 -2.6015
7 4 20 -6.6014 -1.7076
7 4 21 0.9231 -7.7688
7 4 22 -3.4821 -7.0040
7 4 23 5.3015 -6.2698
7 4 24 -9.7374 -2.3971
7 4 25 -1.8217 -2.3001
7 4 26 -1.0180 3.7109
7 4 27 4.3012 -10.1704
7 4 28 -4.7665 10.1754
7 4 29 -0.7257 7.1352
7 4 30 1.2979 -0.7704
7 4 31 2.3486 3.3398
7 4 32 6.4937 2.8859
7 4 33 1.0468 2.4368
7 4 34 2.1869 -0.8502
7 4 35 -1.5021 -1.2430
7 4 36 0.6320 -0.1083
7 4 37 -3.5110 8.3255
7 4 38 -4.2784 -13.1185
7 4 39 4.7636 -5.0091
7 4 40 -3.2025 -1.5006
7 5 0 -0.0726 -13.4298
7 5 1 -2.9431 -15.6826
7 5 2 0.1332 -7.5765
7 5 3 0.1255 -5.6800
7 5 4 9.3524 3.7500
7 5 5 -7.5479 2.1404
7 5 6 4.7883 5.4218
7 5 7 -3.4991 5.1729
7 5 8 4.9456 -1.0129
7 5 9 9.0489 -6.0963
7 5 10 -1.0751 3.1178
7 5 11 -3.3457 4.1188
7 5 12 4.0138 8.1820
7 5 13 -9.4044 -2.0655
7 5 14 -2.3976 -3.2880
7 5 15 6.4748 2.8703
7 5 16 5.5808 -5.7631
7 5 17 -0.2705 1.0181
7 5 18 6.5301 -7.5250
7 5 19 8.3924 1.1144
7 5 20 8.9120 -0.7599
7 5 21 2.8688 4.5610
7 5 22 0.7708 -3.5303
7 5 23 -1.3628 -4.1500
7 5 24 0.4900 1.4388
7 5 25 5.1520 -5.0162
7 5 26 -7.9723 -2.0084
7 5 27 -6.6899 -6.3250
7 5 28 2.6541 2.0921
7 5 29 -8.3184 0.0354
7 5 30 7.8826 2.9527
7 5 31 -2.5924 -2.0760
7 5 32 -1.9097 -4.8741
7 5 33 1.8230 0.1191
7 5 34 -1.5841 -0.4595
7 5 35 2.0959 1.0149
7 5 36 6.7508 0.8923
7 5 37 4.4231 1.3452
7 5 38 2.9446 -2.5852
7 5 39 3.1413 2.0906
7 5 40 -17.3322 3.1742
7 6 0 1.8635 19.0835
7 6 1 15.5912 6.8457
7 6 2 -14.0433 2.6892
7 6 3 -7.1198 -7.7222
7 6 4 -2.4079 0.8450
7 6 5 -6.4176 1.2755
7 6 6 5.3503 4.5144
7 6 7 -2.5681 12.5475
7 6 8 -0.7838 3.8492
7 6 9 -1.0408 5.7022
7 6 10 -8.0333 -8.9198
7 6 11 -0.8240 -10.6095
7 6 12 5.4621 4.7392
7 6 13 3.8258 8.5381
7 6 14 3.1282 -0.3744
7 6 15 -0.4803 4.8498
7 6 16 0.3698 3.6778
7 6 17 3.0261 -0.2903
7 6 18 -10.1343 6.6556
7 6 19 -1.0074 2.8909
7 6 20 1.5713 -3.4710
7 6 21 1.5079 -4.1595
7 6 22 1.1945 1.2716
7 6 23 2.0271 3.1305
7 6 24 3.6723 -2.7999
7 6 25 1.4225 -5.4785
7 6 26 1.6951 -1.2753
7 6 27 -4.1072 -1.3535
7 6 28 2.5257 5.4909
7 6 29 4.3564 -3.0187
7 6 30 5.9857 -5.0524
7 6 31 -1.2417 4.1962
7 6 32 -5.7441 -4.2288
7 6 33 -2.1767 1.5973
7 6 34 -4.1542 1.7777
7 6 35 3.1327 2.6671
7 6 36 3.0163 0.6424
7 6 37 -1.1124 -9.5434
7 6 38 1.5469 -4.7473
7 6 39 -1.3876 4.8434
7 7 0 -1.6107 -15.6160
7 7 1 -6.1050 -8.9202
7 7 2 20.2954 4.3968
7 7 3 -13.9592 -13.6811
7 7 4 -5.2139 8.7812
7 7 5 -18.4139 -0.3740
7 7 6 -1.1544 -2.9728
7 7 7 -0.1778 -0.3991
7 7 8 13.6868 -10.1618
7 7 9 9.9938 2.3995
7 7 10 0.5061 5.6535
7 7 11 -1.1821 -0.9479
7 7 12 -5.4534 5.8481
7 7 13 -0.0118 -1.4378
7 7 14 9.7970 -3.4461
7 7 15 5.0843 -7.8484
7 7 16 -7.4255 -6.7599
7 7 17 -1.3055 -0.6713
7 7 18 6.9855 2.7221
7 7 19 -0.3922 -2.0553
7 7 20 2.5383 1.8563
7 7 21 -5.4500 -1.0491
7 7 22 -0.0725 -3.5358
7 7 23 3.3895 3.4149
7 7 24 1.4630 -6.1275
7 7 25 -2.0713 0.5822
7 7 26 0.6038 0.3566
7 7 27 3.2809 7.5105
7 7 28 1.1675 -3.9045
7 7 29 1.5972 -1.7445
7 7 30 0.1473 -8.6704
7 7 31 1.0613 -3.9685
7 7 32 -1.3224 -0.2561
7 7 33 2.3908 0.5219
7 7 34 5.6925 5.5859
7 7 35 6.3304 -0.3379
7 7 36 0.9694 1.9940
7 7 37 1.6953 -3.6639
7 7 38 3.5322 -2.6905
7 8 0 0.8330 13.2908
7 8 1 4.6549 -16.3829
7 8 2 -8.5831 -9.7240
7 8 3 -1.1678 -2.9917
7 8 4 8.3837 -16.8600
7 8 5 -8.6380 17.7311
7 8 6 9.6019 3.0950
7 8 7 -1.2074 17.2508
7 8 8 -2.4012 -1.3532
7 8 9 -2.0537 3.3549
7 8 10 -5.4271 -3.4696
7 8 11 4.1436 11.5023
7 8 12 9.5496 11.9187
7 8 13 2.7708 6.4089
7 8 14 9.8020 -5.1830
7 8 15 -1.0602 -0.9245
7 8 16 -3.1319 -0.4957
7 8 17 -3.1323 3.0856
7 8 18 3.2484 2.4579
7 8 19 7.5169 -5.8777
7 8 20 3.1041 -6.7502
7 8 21 -1.2416 5.7870
7 8 22 5.2111 -2.6531
7 8 23 4.2277 2.0406
7 8 24 -7.8747 -0.9343
7 8 25 3.3958 2.2132
7 8 26 -0.4915 1.4825
7 8 27 11.4675 0.1637
7 8 28 2.5644 -5.4664
7 8 29 4.4095 -0.6173
7 8 30 -8.0581 4.1932
7 8 31 7.3813 -3.6098
7 8 32 -4.5440 7.5656
7 8 33 0.1395 0.5866
7 8 34 2.2694 4.2285
7 8 35 -2.5506 0.9283
7 8 36 1.1339 3.7087
7 9 0 7.1024 -0.8329
7 9 1 6.3474 -1.3091
7 9 2 6.7793 -1.8074
7 9 3 -13.7518 -3.0272
7 9 4 3.3255 2.9966
7 9 5 -3.0097 -0.3436
7 9 6 -8.3773 -8.5015
7 9 7 5.3970 2.7849
7 9 8 -11.8544 -6.5723
7 9 9 -4.8912 5.0478
7 9 10 -16.5698 2.2896
7 9 11 -0.8431 7.1894
7 9 12 1.5874 4.4131
7 9 13 9.2910 -3.3456
7 9 14 -4.2299 -8.1469
7 9 15 -5.0689 2.1331
7 9 16 -6.9806 3.2282
7 9 17 11.2883 9.0682
7 9 18 3.4194 -0.6113
7 9 19 -3.1930 1.0710
7 9 20 -2.1096 5.0918
7 9 21 1.6272 -1.5762
7 9 22 -0.5338 -2.3464
7 9 23 0.8641 1.7091
7 9 24 -2.0366 2.5811
7 9 25 9.4265 3.6412
7 9 26 3.5878 6.3769
7 9 27 1.6561 -10.4971
7 9 28 -1.0404 3.0889
7 9 29 6.6713 0.8664
7 9 30 -4.1233 6.8486
7 9 31 -0.2581 -1.2711
7 9 32 3.1484 8.3976
7 9 33 -6.9924 -11.9558
7 9 34 -3.3050 6.7601
7 9 35 -17.6429 -2.5923
7 10 0 -2.3822 -2.1069
7 10 1 2.8322 4.2422
7 10 2 3.3845 3.8803
7 10 3 3.7750 3.1716
7 10 4 1.1825 -3.3005
7 10 5 6.0805 5.8552
7 10 6 2.1772 -15.4039
7 10 7 -1.9527 -3.0387
7 10 8 -5.0575 -8.3377
7 10 9 0.4026 -0.9477
7 10 10 -0.1642 9.6322
7 10 11 6.0844 2.1007
7 10 12 0.5642 -4.8657
7 10 13 3.1555 -13.4918
7 10 14 -7.5726 -5.0383
7 10 15 -5.1258 2.4538
7 10 16 -0.0754 2.1991
7 10 17 3.3390 -5.3219
7 10 18 -0.8263 -1.5485
7 10 19 0.2595 -4.8862
7 10 20 -5.3100 2.2726
7 10 21 3.1669 3.8819
7 10 22 3.2511 4.0666
7 10 23 -7.0887 3.5897
7 10 24 2.2976 6.3023
7 10 25 7.8988 3.3609
7 10 26 0.5749 -0.1703
7 10 27 -10.1080 -0.7810
7 10 28 -4.9143 5.6590
7 10 29 -10.0698 2.6657
7 10 30 6.5949 1.3838
7 10 31 -2.7582 -11.2200
7 10 32 -0.8443 -1.8004
7 10 33 -2.5556 -10.7383
7 11 0 -0.5049 3.9774
7 11 1 -6.6024 0.6936
7 11 2 -3.2223 4.6002
7 11 3 6.2424 3.7820
7 11 4 2.6330 -0.5344
7 11 5 3.9594 -5.3122
7 11 6 -0.7313 -0.0132
7 11 7 3.4224 -2.0758
7 11 8 -14.4390 3.3580
7 11 9 5.3512 3.9442
7 11 10 2.1760 -1.7749
7 11 11 16.4473 -2.3655
7 11 12 8.6726 -7.7995
7 11 13 5.3760 -1.0310
7 11 14 -3.1283 4.3308
7 11 15 8.6669 2.5253
7 11 16 6.6208 4.7349
7 11 17 6.1225 -7.3654
7 11 18 -10.7098 -3.9513
7 11 19 -1.2762 3.3835
7 11 20 -0.7359 -0.9663
7 11 21 -4.3465 -3.0544
7 11 22 -8.1545 6.2583
7 11 23 2.8652 1.1367
7 11 24 6.7811 -4.8652
7 11 25 -2.8171 -4.9453
7 11 26 -6.6952 -12.6406
7 11 27 0.6758 -2.3298
7 11 28 0.7714 -1.1726
7 11 29 7.1639 2.9082
7 11 30 4.5823 -5.2188
7 11 31 7.4454 3.8597
7 12 0 -0.0325 6.1725
7 12 1 -1.4224 -1.2845
7 12 2 1.6473 -0.3403
7 12 3 6.0060 -1.8636
7 12 4 2.5324 4.9329
7 12 5 1.0914 -3.9809
7 12 6 -1.7856 -4.8513
7 12 7 -0.4344 -2.4686
7 12 8 7.9872 5.8130
7 12 9 5.7393 6.1650
7 12 10 2.3260 14.5884
7 12 11 1.4028 -3.0820
7 12 12 -6.8117 10.4072
7 12 13 -3.7588 2.4792
7 12 14 -4.8198 8.4541
7 12 15 10.2548 -8.7752
7 12 16 2.0473 1.0312
7 12 17 0.8535 -8.3896
7 12 18 3.7747 1.5708
7 12 19 -3.3992 -9.2884
7 12 20 2.7256 9.7071
7 12 21 4.6192 -3.2136
7 12 22 -0.9351 6.2435
7 12 23 9.3229 -0.4669
7 12 24 10.7264 2.9013
7 12 25 1.2308 -6.2047
7 12 26 -4.3064 1.1542
7 12 27 1.1755 10.0756
7 12 28 -3.7564 9.3383
7 12 29 4.2692 -4.6190
7 13 0 5.1724 4.8315
7 13 1 -1.6442 -0.3053
7 13 2 3.0612 1.1876
7 13 3 -3.9927 1.7216
7 13 4 6.4304 0.7015
7 13 5 0.0929 1.0853
7 13 6 4.8578 7.3343
7 13 7 -4.5244 5.5937
7 13 8 -3.9494 -0.8307
7 13 9 -4.0668 -2.0600
7 13 10 -3.4549 -6.8951
7 13 11 -1.6200 -3.0590
7 13 12 5.7855 2.4066
7 13 13 -1.0093 1.5860
7 13 14 16.2559 1.9006
7 13 15 3.3404 3.0589
7 13 16 4.8947 3.4960
7 13 17 -7.5599 -3.5559
7 13 18 4.0776 9.3356
7 13 19 -3.1303 1.0802
7 13 20 -0.9690 1.7164
7 13 21 -10.6454 9.3546
7 13 22 13.5074 2.7019
7 13 23 -3.6519 -2.0936
7 13 24 -2.6318 2.3842
7 13 25 -12.7821 -9.3229
7 13 26 1.5268 -1.8607
7 14 0 1.2150 -0.1796
7 14 1 3.9682 1.3320
7 14 2 1.9781 -0.7343
7 14 3 -2.3562 8.6191
7 14 4 0.2218 -0.0907
7 14 5 3.8567 0.1503
7 14 6 1.5854 -1.9234
7 14 7 5.4183 1.4221
7 14 8 2.4773 -2.3704
7 14 9 2.3877 5.5811
7 14 10 -3.9207 0.3887
7 14 11 4.4603 13.8292
7 14 12 -2.3841 12.6656
7 14 13 0.5030 3.9170
7 14 14 -1.7779 0.3278
7 14 15 -0.8860 7.4001
7 14 16 -10.1096 -8.5645
7 14 17 1.1070 1.8485
7 14 18 -2.4733 -1.5125
7 14 19 -5.4580 5.3843
7 14 20 3.5517 3.3099
7 14 21 -3.5902 -1.9644
7 14 22 4.7953 -6.1429
7 15 0 2.9393 5.8710
7 15 1 -5.8706 2.9291
7 15 2 4.0432 16.3225
7 15 3 2.8317 3.7520
7 15 4 -5.3862 4.0909
7 15 5 5.3244 6.1576
7 15 6 -5.7352 2.0265
7 15 7 -3.8370 -3.5325
7 15 8 -0.8809 5.4816
7 15 9 -9.5314 -0.1641
7 15 10 -9.7386 6.0411
7 15 11 0.0748 -3.1564
7 15 12 -14.4401 1.5486
7 15 13 8.9014 -11.0547
7 15 14 2.4892 0.0728
7 15 15 -4.1120 -5.8611
7 15 16 -3.7990 1.2406
7 15 17 0.6699 -7.3953
7 16 0 -2.5355 8.5769
7 16 1 -19.2791 2.7953
7 16 2 1.8411 -3.3461
7 16 3 -4.8980 4.9029
7 16 4 5.8901 -8.1504
7 16 5 -7.3413 -1.8344
7 16 6 -6.6506 8.2781
7 16 7 0.2972 -11.1757
7 16 8 -2.5369 0.8628
7 16 9 -3.0492 -4.7604
7 16 10 11.0878 -4.3361
7 16 11 1.5387 7.2513
8 0 0 -14.1621 -3.2871
8 0 1 8.1246 -1.3070
8 0 2 -24.2020 -2.6959
8 0 3 -13.3017 -5.4637
8 0 4 6.1989 -0.9185
8 0 5 -7.5050 5.0773
8 0 6 -7.7707 1.8558
8 0 7 0.0509 -14.0132
8 0 8 6.6798 5.3607
8 0 9 -3.2800 -4.1406
8 0 10 -12.1396 5.7393
8 0 11 -11.9609 -10.3501
8 0 12 3.3441 -1.8259
8 0 13 -0.1315 3.3702
8 0 14 8.2598 -5.8701
8 0 15 12.4840 -2.2915
8 0 16 -8.5802 0.6941
8 0 17 8.7724 12.4780
8 0 18 -6.5715 1.5831
8 0 19 0.3496 2.2141
8 0 20 -0.4881 -3.8056
8 0 21 -2.6228 -8.6431
8 0 22 -6.8322 0.2809
8 0 23 -4.1300 -7.6408
8 0 24 -5.2271 8.4479
8 0 25 -4.5181 13.5246
8 0 26 2.9398 2.7146
8 0 27 -4.2808 -0.3433
8 0 28 -1.1978 -5.4559
8 0 29 -2.2486 -0.9989
8 0 30 4.3228 -1.8763
8 0 31 5.0966 1.1846
8 0 32 3.3201 1.8494
8 0 33 10.5362 8.0140
8 0 34 6.1034 -2.8459
8 0 35 2.8727 -0.0917
8 0 36 -0.1836 -3.2903
8 0 37 -5.8172 -0.6793
8 0 38 -0.8688 3.2615
8 0 39 -3.2590 0.0973
8 0 40 -0.5860 3.8727
8 1 0 19.3371 -8.9352
8 1 1 4.9182 -27.2781
8 1 2 -9.2334 8.3344
8 1 3 -7.9748 -17.8360
8 1 4 1.2914 2.2415
8 1 5 8.3152 -1.8145
8 1 6 -1.8842 -13.5870
8 1 7 -3.0291 -1.0327
8 1 8 13.7437 -6.1814
8 1 9 -2.5102 -11.0705
8 1 10 8.6404 -3.1564
8 1 11 -4.4044 15.3981
8 1 12 12.9962 12.1537
8 1 13 -1.5347 11.1688
8 1 14 -1.4721 -4.5161
8 1 15 -4.6488 1.1002
8 1 16 -5.2551 0.9854
8 1 17 5.2012 -10.6650
8 1 18 3.8674 7.7835
8 1 19 7.8497 -17.5245
8 1 20 0.1664 -1.1126
8 1 21 3.0202 -12.8022
8 1 22 -10.7879 -4.0850
8 1 23 -7.9360 -6.9465
8 1 24 0.6310 2.0001
8 1 25 -4.2390 -2.7849
8 1 26 6.0378 1.2389
8 1 27 2.8068 4.9277
8 1 28 -2.7949 -7.7795
8 1 29 -4.3671 7.7076
8 1 30 -2.3621 2.8114
8 1 31 -2.7535 10.2890
8 1 32 -0.4815 1.1265
8 1 33 -1.9582 8.1883
8 1 34 1.4870 -1.7369
8 1 35 1.6170 -12.8189
8 1 36 -10.7683 0.6090
8 1 37 -3.8754 -2.6608
8 1 38 -3.2317 3.9282
8 1 39 2.2349 -3.3349
8 1 40 3.0535 -1.4919
8 2 0 -4.9759 -0.9147
8 2 1 5.1669 -3.9281
8 2 2 10.2990 -11.3160
8 2 3 5.6097 10.6643
8 2 4 20.7603 5.3417
8 2 5 -8.7489 3.9746
8 2 6 15.6599 2.4178
8 2 7 14.4825 1.9639
8 2 8 -13.1509 8.9100
8 2 9 -11.1540 7.5490
8 2 10 -2.7992 -6.3471
8 2 11 -11.7316 11.3911
8 2 12 -0.8165 -6.1875
8 2 13 6.8902 4.7278
8 2 14 1.1028 -11.4910
8 2 15 8.1002 10.8163
8 2 16 -1.9520 4.0769
8 2 17 10.8131 4.6545
8 2 18 18.1248 -1.9376
8 2 19 0.4029 -5.0510
8 2 20 13.1550 -2.5262
8 2 21 -6.5157 -1.7271
8 2 22 7.4314 -2.8361
8 2 23 -12.0929 -3.9838
8 2 24 0.3488 8.1198
8 2 25 -6.9857 -2.8056
8 2 26 8.4898 -6.7964
8 2 27 -10.1919 -0.2232
8 2 28 -0.5219 -3.1558
8 2 29 1.6970 1.5627
8 2 30 -13.1801 -4.5018
8 2 31 4.8601 2.9367
8 2 32 3.8868 -6.3158
8 2 33 12.7713 -0.4968
8 2 34 -2.4397 -10.2409
8 2 35 3.0797 -3.4524
8 2 36 -2.1072 -3.2412
8 2 37 -6.1763 -1.2993
8 2 38 4.2256 7.1132
8 2 39 -13.3645 -2.0515
8 2 40 2.3511 0.5600
8 3 0 3.7663 -0.9723
8 3 1 -13.6894 9.6328
8 3 2 -6.1768 15.0116
8 3 3 3.6208 -1.6531
8 3 4 -5.4408 8.7916
8 3 5 -0.8872 5.0847
8 3 6 -9.6528 -10.9321
8 3 7 2.3724 8.4094
8 3 8 -1.0367 -12.3738
8 3 9 -3.2990 -9.8261
8 3 10 1.7917 10.2559
8 3 11 5.2787 7.4065
8 3 12 -1.3713 -7.4249
8 3 13 1.8771 9.2748
8 3 14 -10.9589 -0.4434
8 3 15 9.7643 6.5736
8 3 16 -5.1564 14.3437
8 3 17 10.8204 -0.7037
8 3 18 -5.2744 7.3262
8 3 19 3.6579 -6.6175
8 3 20 -0.2245 -11.2263
8 3 21 1.0703 -2.9516
8 3 22 -0.8389 -9.3133
8 3 23 4.8590 1.5038
8 3 24 0.9376 -6.2453
8 3 25 0.0468 4.5526
8 3 26 2.6469 -7.3848
8 3 27 -4.2315 5.1374
8 3 28 -1.2913 -10.1003
8 3 29 5.9719 14.9730
8 3 30 1.7941 0.6970
8 3 31 5.9213 3.3236
8 3 32 -3.3055 10.2858
8 3 33 12.3193 -6.8434
8 3 34 -6.1929 -3.6358
8 3 35 4.9308 -6.0774
8 3 36 -6.7304 -1.0153
8 3 37 3.1575 -13.0788
8 3 38 4.6034 -10.6250
8 3 39 1.5752 -0.6476
8 3 40 7.9033 -1.8164
8 4 0 5.0195 -3.4443
8 4 1 7.3357 -3.1222
8 4 2 -2.4416 0.2190
8 4 3 -4.2967 2.4891
8 4 4 2.7213 -2.6381
8 4 5 -3.0604 -4.1003
8 4 6 10.0331 4.6718
8 4 7 -2.5941 2.9465
8 4 8 -9.8717 5.5791
8 4 9 11.9984 -0.3674
8 4 10 -8.6624 5.5935
8 4 11 -4.4240 2.7171
8 4 12 6.6856 -0.7740
8 4 13 1.9042 1.5529
8 4 14 -14.6678 1.3714
8 4 15 2.1610 4.4758
8 4 16 2.1595 4.2148
8 4 17 10.7964 -9.2897
8 4 18 14.3752 9.3570
8 4 19 0.3633 -3.8754
8 4 20 10.9005 7.0347
8 4 21 -3.7063 -6.0695
8 4 22 -2.1221 1.9283
8 4 23 1.6505 -1.1514
8 4 24 3.4655 -1.2369
8 4 25 -2.5365 -6.3763
8 4 26 -6.6682 1.4202
8 4 27 -1.6852 3.0584
8 4 28 -7.6510 3.2632
8 4 29 -0.2992 -0.9024
8 4 30 -10.5829 1.0786
8 4 31 13.1670 -0.8996
8 4 32 0.9238 4.4726
8 4 33 1.9938 -1.3928
8 4 34 7.6354 5.6890
8 4 35 7.5313 -8.6001
8 4 36 9.7091 12.5520
8 4 37 0.4955 -2.1323
8 4 38 -0.1375 7.1084
8 4 39 1.0733 -1.2624
8 5 0 -5.4920 -5.9472
8 5 1 -1.4827 18.1142
8 5 2 3.3366 -19.3258
8 5 3 -0.0952 6.0438
8 5 4 -6.9192 2.9835
8 5 5 -2.6890 1.6149
8 5 6 -3.1457 2.1851
8 5 7 -4.9954 2.4248
8 5 8 -6.0468 -8.2612
8 5 9 -1.9362 3.6494
8 5 10 -0.6691 9.2232
8 5 11 0.2409 -12.5761
8 5 12 -2.0198 3.8663
8 5 13 -2.6035 -0.6909
8 5 14 -1.9695 1.0456
8 5 15 -0.7074 7.5285
8 5 16 -8.1595 13.8791
8 5 17 1.7511 3.3829
8 5 18 1.4367 -3.2831
8 5 19 -1.8579 -5.0492
8 5 20 8.5526 -5.5473
8 5 21 -3.2403 5.5343
8 5 22 7.4474 -3.7844
8 5 23 -1.7500 -1.3950
8 5 24 4.5677 -5.7549
8 5 25 -3.3710 -4.9047
8 5 26 -1.1589 -7.0500
8 5 27 1.4371 -1.4816
8 5 28 1.5321 -1.4195
8 5 29 -4.3015 -1.0256
8 5 30 -3.3075 7.0766
8 5 31 -7.3869 -0.6961
8 5 32 1.4761 4.3152
8 5 33 -2.6026 -1.1742
8 5 34 -1.8879 3.1364
8 5 35 -4.5337 1.3269
8 5 36 0.8316 0.6146
8 5 37 -7.6929 1.6136
8 5 38 6.8395 5.4613
8 6 0 12.0963 -1.4958
8 6 1 0.9299 1.0081
8 6 2 -20.3557 0.6139
8 6 3 16.0566 -1.1698
8 6 4 -23.6337 -5.6782
8 6 5 9.3305 -2.9915
8 6 6 -1.3287 3.0903
8 6 7 -3.4169 -5.1334
8 6 8 5.7103 3.2759
8 6 9 0.6600 2.2391
8 6 10 -2.7548 5.0348
8 6 11 7.9109 -5.8402
8 6 12 6.1515 -3.3082
8 6 13 -14.4526 -8.2576
8 6 14 0.1730 -1.3998
8 6 15 0.7085 -3.2489
8 6 16 5.4513 -0.2333
8 6 17 8.1399 3.8536
8 6 18 3.9186 5.3435
8 6 19 -0.3167 -4.1631
8 6 20 -6.6937 0.7988
8 6 21 4.1390 6.0275
8 6 22 5.4077 -2.5170
8 6 23 6.6583 2.2576
8 6 24 1.0827 -2.9738
8 6 25 2.1266 4.9630
8 6 26 6.4672 -5.2365
8 6 27 -1.8875 -4.1048
8 6 28 -2.7664 -6.1272
8 6 29 -0.3714 -8.2992
8 6 30 6.9650 0.4626
8 6 31 -2.0628 -1.1226
8 6 32 7.7795 -5.9251
8 6 33 -3.0616 -2.1943
8 6 34 -3.6948 -6.5006
8 6 35 -3.9682 0.2324
8 6 36 -11.0312 1.7987
8 6 37 -1.7647 -0.7961
8 7 0 -8.1886 -4.0185
8 7 1 6.2233 -6.6327
8 7 2 -4.8930 -8.8360
8 7 3 -1.6648 1.7795
8 7 4 -2.5191 8.1444
8 7 5 -2.4616 -19.1834
8 7 6 -8.6362 17.5565
8 7 7 -8.9718 -8.5912
8 7 8 3.1404 6.9174
8 7 9 -4.2911 10.7782
8 7 10 7.9880 -2.4732
8 7 11 1.9303 0.0732
8 7 12 9.4202 3.3032
8 7 13 -2.8086 -3.7455
8 7 14 -0.0819 5.1217
8 7 15 -4.0609 14.3417
8 7 16 4.8055 -2.1541
8 7 17 2.1220 -8.3384
8 7 18 -3.5472 -7.7162
8 7 19 0.8792 0.2002
8 7 20 -0.3378 6.8996
8 7 21 -1.1213 -0.0032
8 7 22 -1.6542 3.7167
8 7 23 3.4083 -1.0255
8 7 24 -1.0308 1.8387
8 7 25 5.9190 -1.2309
8 7 26 4.7434 -0.1521
8 7 27 2.9805 2.1219
8 7 28 -2.8560 0.5034
8 7 29 3.4845 8.5946
8 7 30 9.9557 -1.5666
8 7 31 0.7631 2.2777
8 7 32 9.0271 -14.6899
8 7 33 -2.1533 -2.2819
8 7 34 -1.6595 -16.5268
8 7 35 0.8556 1.5925
8 7 36 -1.9186 5.2758
8 8 0 -4.2998 -1.9112
8 8 1 -1.2875 -6.2395
8 8 2 2.6759 -1.3347
8 8 3 7.8682 -20.4590
8 8 4 -2.5214 -0.7457
8 8 5 2.1847 -7.8951
8 8 6 -3.2364 -5.8746
8 8 7 -16.1698 -1.1203
8 8 8 8.2469 1.4749
8 8 9 -7.5459 6.8714
8 8 10 7.0825 -6.2503
8 8 11 5.2826 3.3084
8 8 12 -8.6435 -3.5568
8 8 13 -6.3766 3.7583
8 8 14 7.4044 -3.0791
8 8 15 6.5645 5.8270
8 8 16 12.9637 -0.2877
8 8 17 4.2816 -2.9883
8 8 18 -7.5621 -2.4926
8 8 19 -3.8293 -0.4512
8 8 20 1.1269 6.9313
8 8 21 5.9086 -6.0677
8 8 22 4.2839 -1.7607
8 8 23 -1.7317 1.2515
8 8 24 3.9464 2.9141
8 8 25 0.6217 -9.0786
8 8 26 -3.8394 -1.9058
8 8 27 -3.5151 5.3278
8 8 28 6.7067 6.7534
8 8 29 2.8711 7.3749
8 8 30 7.9702 0.7775
8 8 31 12.7038 0.8719
8 8 32 3.4725 -4.3875
8 8 33 8.3192 8.4638
8 8 34 -10.9642 -6.9369
8 8 35 11.0062 4.6160
8 9 0 20.1626 -7.0056
8 9 1 4.5065 10.4115
8 9 2 7.8401 9.0887
8 9 3 3.5657 -7.1688
8 9 4 11.4491 -5.5670
8 9 5 -10.0584 -8.5958
8 9 6 10.6056 1.6687
8 9 7 0.1222 -0.9761
8 9 8 0.1216 7.2057
8 9 9 3.8872 8.3647
8 9 10 -1.8178 -5.9435
8 9 11 5.9210 1.3666
8 9 12 -7.1294 0.2974
8 9 13 -0.6109 8.6516
8 9 14 3.2944 15.6996
8 9 15 6.8786 2.1678
8 9 16 -1.3568 -12.6284
8 9 17 -2.7364 -2.8614
8 9 18 0.0105 3.6279
8 9 19 2.3206 9.0004
8 9 20 7.0216 4.7265
8 9 21 -1.8814 1.9426
8 9 22 10.3112 6.5299
8 9 23 4.4507 -1.9585
8 9 24 3.7849 -3.0353
8 9 25 -3.6523 4.0819
8 9 26 -6.1047 7.1462
8 9 27 -7.6838 2.0935
8 9 28 1.9795 7.1566
8 9 29 3.0444 5.2970
8 9 30 -5.6507 -2.6456
8 9 31 -1.7753 5.6089
8 9 32 -5.2091 -7.4600
8 9 33 4.2066 5.4496
8 10 0 -2.8895 -0.2770
8 10 1 10.8773 8.3689
8 10 2 -0.4473 -6.5070
8 10 3 9.1000 6.3991
8 10 4 5.1241 2.9184
8 10 5 -3.4706 2.2143
8 10 6 -4.0419 -3.5361
8 10 7 -5.7820 12.1442
8 10 8 0.9839 -8.2927
8 10 9 0.8568 0.4651
8 10 10 -0.3623 0.1324
8 10 11 -8.2797 -2.3727
8 10 12 -8.4263 6.4558
8 10 13 1.4103 0.5062
8 10 14 11.1863 4.2454
8 10 15 0.2416 -1.7027
8 10 16 -2.3120 -5.0750
8 10 17 -8.8484 2.1483
8 10 18 -7.4720 5.8367
8 10 19 -3.8098 6.2900
8 10 20 0.9369 -0.1868
8 10 21 0.9863 4.9873
8 10 22 -3.7227 2.2454
8 10 23 -2.6631 2.0458
8 10 24 -0.4302 -13.5062
8 10 25 -7.2084 -3.5636
8 10 26 0.5777 4.3054
8 10 27 4.8582 0.7876
8 10 28 8.6997 -7.0253
8 10 29 -3.0518 -5.9192
8 10 30 6.6437 -1.3343
8 10 31 -3.5167 3.9243
8 10 32 -11.9666 3.6499
8 11 0 1.9111 0.4207
8 11 1 -1.8632 8.0758
8 11 2 -0.3337 -0.9474
8 11 3 2.3734 0.7434
8 11 4 -4.1167 4.0583
8 11 5 -0.0014 -6.8575
8 11 6 4.4437 2.6547
8 11 7 1.4282 -2.4690
8 11 8 0.1042 0.7606
8 11 9 7.3309 -5.3778
8 11 10 -8.6557 -2.6473
8 11 11 -1.5306 0.5102
8 11 12 -0.1766 6.4742
8 11 13 2.0909 1.6990
8 11 14 6.0122 -9.2411
8 11 15 0.5003 -8.3168
8 11 16 -1.6449 -11.3987
8 11 17 -0.3423 8.1268
8 11 18 2.6741 -0.2700
8 11 19 -1.4774 -4.8995
8 11 20 -2.8799 -1.9323
8 11 21 5.4853 5.2733
8 11 22 5.8668 -8.3268
8 11 23 3.1243 -3.1623
8 11 24 -0.6648 10.4447
8 11 25 2.4409 9.0504
8 11 26 2.1818 5.2399
8 11 27 4.6730 5.5861
8 11 28 -0.7005 -0.1363
8 11 29 -5.3908 1.1420
8 12 0 3.2584 3.2355
8 12 1 -4.6626 1.2681
8 12 2 0.3488 -2.6187
8 12 3 6.3348 2.7508
8 12 4 -1.2523 -1.2658
8 12 5 0.9335 4.7808
8 12 6 5.8173 2.7841
8 12 7 -1.6360 2.5328
8 12 8 11.4636 -6.2477
8 12 9 -8.4674 0.6174
8 12 10 2.3812 -0.5184
8 12 11 0.7941 0.0162
8 12 12 16.1039 11.0946
8 12 13 6.2051 4.2284
8 12 14 6.7500 3.8293
8 12 15 -4.0443 3.4969
8 12 16 -0.1098 4.9770
8 12 17 2.6605 1.3978
8 12 18 -4.8798 -0.8698
8 12 19 9.2382 4.0791
8 12 20 4.0454 -1.0702
8 12 21 -7.3426 8.7118
8 12 22 -6.0572 0.2497
8 12 23 -0.6486 -3.0552
8 12 24 -14.3483 0.3315
8 12 25 -1.6171 3.5573
8 12 26 6.6427 -5.9291
8 12 27 -0.2313 -7.7296
8 13 0 1.8820 1.7734
8 13 1 0.2276 10.6957
8 13 2 3.4507 -2.7074
8 13 3 -0.1751 9.2086
8 13 4 -6.4010 0.9205
8 13 5 5.3527 6.0083
8 13 6 1.3377 5.9647
8 13 7 7.0015 3.5893
8 13 8 -0.9221 -3.9769
8 13 9 -2.7300 12.1784
8 13 10 -9.3858 1.0316
8 13 11 -5.1579 17.3110
8 13 12 -10.3244 -0.9244
8 13 13 -7.0297 4.9845
8 13 14 -1.0046 -11.6078
8 13 15 -3.6745 6.8340
8 13 16 0.5220 -2.4403
8 13 17 -0.4038 8.4591
8 13 18 -1.0286 -5.0142
8 13 19 -2.5520 1.1409
8 13 20 -3.2078 2.0601
8 13 21 8.1931 -10.6316
8 13 22 -3.9677 -7.5718
8 13 23 9.4698 10.0918
8 13 24 3.9628 4.0102
8 14 0 -12.5617 0.9919
8 14 1 2.9583 2.3653
8 14 2 -10.0399 -1.0243
8 14 3 1.2324 5.1321
8 14 4 -16.8793 3.4579
8 14 5 0.8633 5.3591
8 14 6 -0.7202 6.4958
8 14 7 -1.3047 -9.4785
8 14 8 -8.7942 -2.7110
8 14 9 -3.2556 -10.9417
8 14 10 -8.6278 -8.4614
8 14 11 7.6309 -3.8320
8 14 12 -4.5562 -3.1808
8 14 13 8.2992 -3.6242
8 14 14 -2.7726 3.1827
8 14 15 7.6797 -1.3584
8 14 16 -10.7877 -2.1767
8 14 17 7.4593 -1.4517
8 14 18 -1.8350 -1.8441
8 14 19 10.0250 3.2079
8 14 20 -9.1873 5.8165
8 15 0 -2.5082 1.8644
8 15 1 1.6867 -10.0044
8 15 2 -5.7655 -0.6373
8 15 3 -7.3692 -9.6034
8 15 4 -0.1507 5.9594
8 15 5 9.1485 -5.8249
8 15 6 3.4564 0.5123
8 15 7 5.8383 -3.6411
8 15 8 10.3757 -5.1053
8 15 9 -2.3134 0.1996
8 15 10 8.0785 6.3331
8 15 11 -2.3283 1.8671
8 15 12 -0.5292 9.7471
8 15 13 5.8983 -1.9534
8 15 14 1.9633 7.7971
8 16 0 1.0250 2.3347
8 16 1 2.1158 -3.1729
8 16 2 2.9536 4.0541
8 16 3 -3.4255 6.6139
9 0 1 3.2711 7.9346
9 0 2 -18.8538 0.6056
9 0 3 2.8089 5.4217
9 0 4 8.8883 -13.2314
9 0 5 -6.2039 13.1613
9 0 6 11.6743 -8.0332
9 0 7 -6.5627 -11.4537
9 0 8 9.6061 1.4622
9 0 9 5.0577 8.6815
9 0 10 -14.9178 6.0380
9 0 11 7.8492 5.2413
9 0 12 0.2898 3.3269
9 0 13 -1.1257 -4.3965
9 0 14 -3.5137 7.0027
9 0 15 -5.4036 -2.7345
9 0 16 3.0033 4.1182
9 0 17 2.1485 3.0396
9 0 18 -2.9775 -7.1652
9 0 19 4.1849 0.0751
9 0 20 5.7940 -10.7093
9 0 21 -5.3041 -5.6068
9 0 22 -7.7267 -2.6494
9 0 23 -6.9310 -7.8691
9 0 24 -6.2309 0.2193
9 0 25 3.5648 6.5995
9 0 26 -5.8738 0.4328
9 0 27 7.6650 3.9339
9 0 28 -4.0576 6.6375
9 0 29 -1.7485 -6.5107
9 0 30 -4.3109 8.8816
9 0 31 -4.8713 6.1031
9 0 32 3.5229 0.3654
9 0 33 3.1019 -3.1521
9 0 34 -4.7774 -5.2752
9 0 35 3.5064 -2.7532
9 0 36 4.2152 -3.7720
9 0 37 -4.2095 1.6568
9 0 38 6.5820 -4.0244
9 0 39 -2.7993 2.7745
9 1 0 -0.2718 -20.2195
9 1 1 2.3755 12.6129
9 1 2 7.0003 9.0141
9 1 3 0.7353 -10.7549
9 1 4 -0.0161 6.8963
9 1 5 7.9695 0.9762
9 1 6 -17.7768 3.4594
9 1 7 6.1410 4.4287
9 1 8 -14.9238 -14.3174
9 1 9 -11.4127 13.1290
9 1 10 3.6573 -3.6555
9 1 11 -2.6901 -7.5520
9 1 12 -3.9667 2.9684
9 1 13 -3.3923 -8.0614
9 1 14 3.9093 4.6530
9 1 15 -1.9932 -1.4337
9 1 16 17.3849 1.8187
9 1 17 1.0980 6.4023
9 1 18 9.0828 1.7212
9 1 19 7.2719 -3.4391
9 1 20 1.9184 -5.0274
9 1 21 9.5694 -8.5900
9 1 22 -5.6607 -6.0657
9 1 23 -0.4485 -0.4556
9 1 24 -6.0148 1.5798
9 1 25 -1.8312 3.4770
9 1 26 -4.9621 1.1658
9 1 27 0.8663 -3.9603
9 1 28 -12.7980 2.9456
9 1 29 1.6275 -10.4425
9 1 30 2.6429 5.7805
9 1 31 -4.7949 -4.2366
9 1 32 14.8843 2.7662
9 1 33 0.7553 1.2099
9 1 34 1.5657 -1.8026
9 1 35 0.7427 3.4561
9 1 36 3.6980 2.9019
9 1 37 -0.4357 -5.2429
9 1 38 -9.7892 -6.7651
9 1 39 -1.9746 4.5885
9 2 0 -0.6691 4.0114
9 2 1 1.7112 1.2375
9 2 2 -6.1857 -1.7961
9 2 3 8.5167 0.4655
9 2 4 0.8775 -2.9715
9 2 5 -9.4054 -5.2052
9 2 6 6.8568 -13.9505
9 2 7 4.2169 -5.4113
9 2 8 2.2667 10.8752
9 2 9 6.6153 -15.2651
9 2 10 -4.2218 2.3204
9 2 11 15.0776 4.4465
9 2 12 -3.5975 -3.5728
9 2 13 -4.1260 9.3129
9 2 14 -0.7091 9.6712
9 2 15 -3.6498 11.1887
9 2 16 1.8569 -0.0842
9 2 17 -1.6382 4.7270
9 2 18 7.1617 -7.5360
9 2 19 10.4531 9.2464
9 2 20 3.3473 -8.1083
9 2 21 -0.6578 -5.4307
9 2 22 -4.2789 -3.2669
9 2 23 0.2022 -3.7415
9 2 24 -2.4644 -3.0256
9 2 25 -1.3695 -8.9245
9 2 26 2.2904 1.8834
9 2 27 4.0027 -2.4400
9 2 28 -0.8861 5.6038
9 2 29 -3.6643 0.5483
9 2 30 2.3098 15.2709
9 2 31 -4.4382 -7.9104
9 2 32 5.4293 -0.0913
9 2 33 -5.7787 10.0413
9 2 34 4.4946 -8.4456
9 2 35 2.7837 1.1652
9 2 36 1.6262 -13.0195
9 2 37 5.7840 -5.2513
9 2 38 -1.3926 -4.3781
9 2 39 -1.0631 0.8992
9 3 0 -0.6983 7.7349
9 3 1 2.0946 2.6679
9 3 2 -1.1101 0.2674
9 3 3 5.7591 -8.6298
9 3 4 6.2730 15.2748
9 3 5 0.2155 3.6995
9 3 6 2.4341 2.6805
9 3 7 2.0666 7.0787
9 3 8 -9.3991 5.6673
9 3 9 4.8206 3.0428
9 3 10 1.9866 4.1706
9 3 11 -15.9329 -7.3070
9 3 12 -5.9783 5.7178
9 3 13 -4.9249 -7.6783
9 3 14 -1.7737 2.6172
9 3 15 8.0058 0.4195
9 3 16 3.9167 9.6446
9 3 17 5.6126 3.0784
9 3 18 3.4589 1.1424
9 3 19 7.5992 -1.0807
9 3 20 0.2175 -3.0809
9 3 21 10.8430 -3.4187
9 3 22 -2.0986 -0.1067
9 3 23 6.5291 -3.1716
9 3 24 -3.6592 4.4406
9 3 25 -0.6089 -6.0749
9 3 26 -11.6281 -0.1053
9 3 27 -7.0318 -4.1861
9 3 28 -0.1888 -3.4499
9 3 29 -1.7779 0.7758
9 3 30 0.8642 5.3687
9 3 31 -3.3717 2.4413
9 3 32 8.2139 0.2999
9 3 33 -5.9855 0.6903
9 3 34 9.7124 3.9093
9 3 35 13.4007 5.2959
9 3 36 -7.3566 -2.9256
9 3 37 2.9918 0.1604
9 3 38 -6.2467 0.9902
9 4 0 0.8289 -6.3617
9 4 1 -3.4255 6.0707
9 4 2 -0.8684 6.5030
9 4 3 -9.4564 -1.6711
9 4 4 -1.1754 -0.6469
9 4 5 -13.2000 -4.8193
9 4 6 8.8023 0.8133
9 4 7 -9.4442 5.0778
9 4 8 -2.6613 -10.4856
9 4 9 1.3473 -6.9257
9 4 10 5.7806 2.3423
9 4 11 0.2128 -13.2720
9 4 12 4.3331 1.0508
9 4 13 -8.6985 12.6642
9 4 14 5.2162 4.4818
9 4 15 -4.5758 2.9680
9 4 16 1.7233 -0.9210
9 4 17 0.4542 4.6917
9 4 18 9.6718 5.9749
9 4 19 -3.4248 1.6163
9 4 20 2.4279 1.8967
9 4 21 1.3738 1.8006
9 4 22 3.9694 -2.7124
9 4 23 3.4211 -13.3299
9 4 24 5.2442 -2.2417
9 4 25 2.5382 -9.7111
9 4 26 8.3685 0.9789
9 4 27 -9.9519 -8.4452
9 4 28 -2.1702 6.7967
9 4 29 -5.2611 -3.1110
9 4 30 -0.7856 -4.0262
9 4 31 1.4739 -2.2379
9 4 32 -1.7770 3.8338
9 4 33 -7.1599 1.3232
9 4 34 -0.8109 -7.7139
9 4 35 -6.2633 1.0926
9 4 36 5.6952 -2.3898
9 4 37 -2.6182 -4.4166
9 4 38 -6.2320 -0.5321
9 5 0 2.7172 0.0351
9 5 1 -1.3023 -3.4034
9 5 2 1.2034 -4.0604
9 5 3 4.5964 4.5780
9 5 4 -0.4010 -3.2902
9 5 5 -4.1671 -1.8710
9 5 6 4.4176 -5.4512
9 5 7 1.8472 12.0270
9 5 8 6.5251 -5.2756
9 5 9 12.1792 12.8463
9 5 10 -9.7145 -0.6860
9 5 11 -2.8508 3.4285
9 5 12 4.5117 0.3976
9 5 13 -1.5075 1.9069
9 5 14 3.7117 1.2646
9 5 15 4.5860 9.3001
9 5 16 -4.5986 -3.6661
9 5 17 -2.7292 1.8116
9 5 18 -5.4806 2.6847
9 5 19 4.2368 3.6832
9 5 20 7.2830 -1.0402
9 5 21 3.2014 8.3393
9 5 22 4.6495 0.5896
9 5 23 3.0867 3.3907
9 5 24 2.7977 0.3401
9 5 25 -2.2388 -3.2881
9 5 26 8.1837 -5.1184
9 5 27 -1.4722 -0.6098
9 5 28 7.4554 -2.4194
9 5 29 1.8136 7.9398
9 5 30 9.8213 -7.7727
9 5 31 3.4530 -6.0285
9 5 32 4.7125 -4.5565
9 5 33 3.2349 -5.8336
9 5 34 4.0636 -0.4670
9 5 35 -0.3730 -0.9395
9 5 36 5.6032 -9.6916
9 5 37 9.6447 0.9891
9 6 0 -1.5873 12.3867
9 6 1 -5.1109 3.6176
9 6 2 4.2321 -4.7989
9 6 3 -2.4935 -5.4653
9 6 4 -3.5849 0.4654
9 6 5 3.7006 3.8570
9 6 6 -11.9768 6.3752
9 6 7 -7.8251 5.0007
9 6 8 -5.9306 -0.3592
9 6 9 3.1848 3.0155
9 6 10 -10.0223 4.7201
9 6 11 3.2907 -2.6185
9 6 12 -7.3873 17.0926
9 6 13 1.4627 1.0112
9 6 14 -0.3688 -4.5623
9 6 15 -4.9516 -5.4490
9 6 16 2.0860 0.5935
9 6 17 -0.5923 -3.0893
9 6 18 -5.5307 5.2781
9 6 19 -0.1700 3.0926
9 6 20 5.3507 -0.4070
9 6 21 0.0532 -4.4088
9 6 22 -2.7336 -5.7370
9 6 23 4.8257 9.0933
9 6 24 -0.8251 -1.8166
9 6 25 -2.4123 2.8315
9 6 26 -5.0421 0.7039
9 6 27 -0.7294 13.0509
9 6 28 2.1672 -2.6652
9 6 29 6.2360 11.5215
9 6 30 2.6694 4.4554
9 6 31 5.5843 2.7584
9 6 32 -1.2906 0.0147
9 6 33 5.2930 -0.7269
9 6 34 12.1977 6.1714
9 6 35 5.0977 6.9528
9 6 36 8.4829 0.7652
9 7 0 1.6748 -5.1567
9 7 1 0.5831 -1.0759
9 7 2 13.0858 -2.5608
9 7 3 -7.3150 0.9236
9 7 4 -7.5563 -15.2960
9 7 5 -5.8136 -3.2468
9 7 6 -2.4125 -1.2136
9 7 7 -2.9325 -12.8416
9 7 8 -1.3129 5.7255
9 7 9 -5.7998 -0.2158
9 7 10 -3.5310 -1.0011
9 7 11 -1.8200 -1.4943
9 7 12 6.0645 1.3920
9 7 13 -4.0125 -0.3940
9 7 14 15.4327 1.0578
9 7 15 -0.9408 -5.2767
9 7 16 -2.9196 0.1500
9 7 17 -3.8167 11.7050
9 7 18 10.2203 -2.1791
9 7 19 3.6309 4.2034
9 7 20 2.8816 0.2922
9 7 21 0.8607 -0.7831
9 7 22 -1.8186 -6.4366
9 7 23 3.6071 -5.0843
9 7 24 -7.1362 -3.6423
9 7 25 9.1855 -4.6416
9 7 26 -9.4206 0.7053
9 7 27 -0.7229 1.9323
9 7 28 -9.3869 -0.8945
9 7 29 8.9532 -6.8104
9 7 30 -13.0582 4.4882
9 7 31 8.8234 6.8649
9 7 32 -5.7121 9.2860
9 7 33 -6.9405 10.0129
9 7 34 1.5633 6.1057
9 7 35 0.0502 1.6786
9 8 0 1.3155 9.3548
9 8 1 4.2307 -8.5960
9 8 2 -0.2393 -8.8516
9 8 3 9.3503 -2.0618
9 8 4 6.5690 -10.4916
9 8 5 6.5792 1.1897
9 8 6 -9.7630 -1.0772
9 8 7 2.8136 0.4263
9 8 8 0.9442 0.8415
9 8 9 -11.4840 1.9543
9 8 10 4.1643 -2.3781
9 8 11 0.4071 9.3426
9 8 12 -1.9063 3.8298
9 8 13 0.8308 6.2856
9 8 14 -8.5783 -7.6777
9 8 15 -0.1876 6.5436
9 8 16 -7.2606 -4.8792
9 8 17 -5.7205 7.1628
9 8 18 4.0201 3.3258
9 8 19 10.5811 0.1665
9 8 20 -4.9361 -3.9178
9 8 21 7.0451 4.0574
9 8 22 5.7939 7.9976
9 8 23 5.1312 -0.5630
9 8 24 -0.9108 0.9038
9 8 25 1.9227 -4.8896
9 8 26 10.9428 3.6494
9 8 27 8.5559 -13.9576
9 8 28 -5.0155 4.3944
9 8 29 -4.2484 -5.0847
9 8 30 -5.5091 1.1174
9 8 31 -8.7463 -20.1121
9 8 32 3.6029 13.7716
9 8 33 0.1619 -12.0533
9 9 0 8.9297 1.1884
9 9 1 8.3711 11.5787
9 9 2 5.2929 3.7595
9 9 3 -3.0095 0.3070
9 9 4 1.6165 3.0404
9 9 5 0.1604 -6.5426
9 9 6 -3.2931 -4.8042
9 9 7 -1.5405 -6.3595
9 9 8 -0.3449 5.8912
9 9 9 -2.3437 -7.3474
9 9 10 -6.3539 -5.1718
9 9 11 -1.2303 1.1862
9 9 12 -0.6051 -6.6745
9 9 13 11.5248 -10.9055
9 9 14 -3.0501 -4.7606
9 9 15 1.0768 -4.3323
9 9 16 -6.9358 10.2716
9 9 17 11.1212 -6.3409
9 9 18 -1.8598 -0.9364
9 9 19 -6.4463 3.9050
9 9 20 -4.2900 0.2567
9 9 21 -1.8918 -0.6396
9 9 22 0.5403 4.9946
9 9 23 -0.4889 2.1369
9 9 24 13.0412 9.8132
9 9 25 3.3753 5.7330
9 9 26 5.4971 -0.3919
9 9 27 4.6503 -3.0962
9 9 28 12.6211 -1.2829
9 9 29 4.7001 1.4674
9 9 30 9.2978 14.9496
9 9 31 -0.0943 -2.8012
9 9 32 10.9206 -1.6245
9 10 0 0.2516 0.3410
9 10 1 -6.1203 -1.2367
9 10 2 2.0576 3.2510
9 10 3 12.9830 -2.3009
9 10 4 -4.9959 -0.4695
9 10 5 3.5823 1.6444
9 10 6 3.9627 -3.0285
9 10 7 2.9642 -1.0227
9 10 8 4.0909 -9.7601
9 10 9 3.2677 4.1273
9 10 10 13.0822 5.0659
9 10 11 5.7103 6.5322
9 10 12 4.8104 2.2127
9 10 13 5.9153 -3.5066
9 10 14 4.8035 1.4329
9 10 15 -0.7569 1.1388
9 10 16 9.1257 4.0062
9 10 17 6.0762 -7.5673
9 10 18 6.8779 0.6902
9 10 19 -4.2555 -8.7545
9 10 20 -1.5540 1.1408
9 10 21 6.1798 10.2963
9 10 22 -6.0336 4.7711
9 10 23 -4.9538 6.5325
9 10 24 -0.1534 6.9957
9 10 25 3.5982 13.9988
9 10 26 -3.2649 0.2580
9 10 27 -17.0141 16.6549
9 10 28 -13.9021 6.6601
9 10 29 -2.4758 3.0923
9 10 30 5.8261 2.9252
9 11 0 -2.1376 14.8086
9 11 1 3.2523 0.7928
9 11 2 -3.3024 -2.1578
9 11 3 2.0834 0.3757
9 11 4 5.7695 2.8569
9 11 5 4.0368 -5.4661
9 11 6 6.0422 13.8694
9 11 7 0.7512 -2.6035
9 11 8 -8.1878 9.3831
9 11 9 -1.2334 3.0018
9 11 10 -7.3610 7.8817
9 11 11 13.1043 5.0179
9 11 12 0.2706 5.9964
9 11 13 0.1269 5.1590
9 11 14 -3.5837 16.2850
9 11 15 4.2099 8.2236
9 11 16 6.2586 2.1942
9 11 17 8.1173 4.2570
9 11 18 -3.5169 2.2123
9 11 19 -4.4287 4.3090
9 11 20 4.9936 2.7130
9 11 21 -11.0526 -3.1710
9 11 22 -9.2814 4.8729
9 11 23 0.3858 -4.7536
9 11 24 -7.5977 -6.9650
9 11 25 -10.3992 -18.2859
9 11 26 -6.2191 -12.1299
9 11 27 3.9489 -6.2558
9 12 0 0.6212 7.6774
9 12 1 -0.4336 -0.8456
9 12 2 12.3917 8.9855
9 12 3 -6.3151 -0.4205
9 12 4 1.2062 13.1995
9 12 5 -0.2264 0.6425
9 12 6 1.5613 -6.8923
9 12 7 -6.2400 -3.2524
9 12 8 8.0817 6.5272
9 12 9 -11.5097 6.3627
9 12 10 2.3956 5.8591
9 12 11 -15.0016 -4.5338
9 12 12 -3.6800 6.7422
9 12 13 -14.8135 -2.3662
9 12 14 5.4474 13.2978
9 12 15 -8.8879 1.4337
9 12 16 7.2095 8.8252
9 12 17 -10.0282 3.5361
9 12 18 -5.5627 3.6692
9 12 19 -1.3418 -8.1861
9 12 20 1.4637 6.1388
9 12 21 3.0709 -1.3131
9 12 22 10.8141 -10.7637
9 12 23 9.9050 4.2886
9 12 24 17.4705 0.5448
9 13 0 3.2537 11.1536
9 13 1 -7.4328 -2.4840
9 13 2 0.5109 3.8755
9 13 3 -6.1175 8.8339
9 13 4 8.4563 -1.6638
9 13 5 -6.0589 7.7444
9 13 6 -0.6504 1.3798
9 13 7 -3.9758 5.2001
9 13 8 -4.1333 -1.7600
9 13 9 -0.3113 -2.5239
9 13 10 3.4667 -12.0970
9 13 11 -8.3671 5.7088
9 13 12 -6.8950 -3.9574
9 13 13 -10.3134 13.3896
9 13 14 -6.1175 -7.7791
9 13 15 -8.9091 11.2923
9 13 16 0.2633 -19.6533
9 13 17 -10.4270 8.9463
9 13 18 1.5283 -8.0684
9 13 19 2.0371 11.5324
9 13 20 -1.8929 5.2806
9 13 21 -9.8308 10.6086
9 14 0 -1.7456 5.0038
9 14 1 -8.0187 -1.8051
9 14 2 -1.4455 0.6120
9 14 3 -5.7542 5.6752
9 14 4 -6.4373 -5.5088
9 14 5 -2.8485 1.9646
9 14 6 -4.0966 -0.4177
9 14 7 1.2186 8.3216
9 14 8 0.6286 -0.2530
9 14 9 0.0826 -11.7504
9 14 10 -10.6359 -5.4098
9 14 11 -8.5728 -6.8090
9 14 12 -11.6559 -8.8907
9 14 13 1.7955 -2.8607
9 14 14 -1.3450 -5.4205
9 14 15 9.7104 -3.6213
9 14 16 -13.5173 2.0560
9 15 0 -2.0478 -7.6558
9 15 1 -4.7536 2.7476
9 15 2 4.5100 -2.8848
9 15 3 -9.7964 -2.4566
9 15 4 -7.1252 -4.2389
9 15 5 -2.1801 -3.4692
9 15 6 -3.1913 5.1733
9 15 7 8.0771 -5.6769
9 15 8 6.9345 -13.1226
9 15 9 5.3878 -9.7439
10 0 0 5.7326 6.7940
10 0 1 1.0795 -9.5039
10 0 2 -3.5610 -2.8115
10 0 3 1.3959 -10.4994
10 0 4 -4.8307 -9.8952
10 0 5 2.1484 7.3937
10 0 6 -0.8240 2.4509
10 0 7 -10.2639 -8.3564
10 0 8 19.3384 7.0957
10 0 9 -11.9459 -6.1596
10 0 10 0.5568 -3.2622
10 0 11 -1.7699 -5.3106
10 0 12 -1.8425 -5.0574
10 0 13 9.1801 9.7111
10 0 14 4.7682 3.1734
10 0 15 4.8538 -1.0573
10 0 16 3.7554 1.0627
10 0 17 1.6783 5.3597
10 0 18 -5.9823 -3.4112
10 0 19 6.5222 -5.4583
10 0 20 2.2626 -0.2653
10 0 21 4.4350 3.8006
10 0 22 3.0382 1.5936
10 0 23 -10.2670 -7.7973
10 0 24 -4.0759 0.6202
10 0 25 -12.8263 0.4818
10 0 26 -13.4694 0.9302
10 0 27 -0.3725 11.0964
10 0 28 -0.8042 -1.2229
10 0 29 5.7315 1.2926
10 0 30 3.8706 -3.9000
10 0 31 1.6016 -0.3852
10 0 32 -15.2507 -0.0641
10 0 33 2.6115 17.2250
10 0 34 -1.9792 2.6389
10 0 35 7.6639 -1.8586
10 0 36 -4.9446 -0.9709
10 0 37 2.7456 -10.3432
10 1 0 20.5495 -2.2607
10 1 1 9.8781 -0.4021
10 1 2 10.9269 -0.9831
10 1 3 -7.4780 -2.4481
10 1 4 8.9964 1.3751
10 1 5 11.4981 -2.4255
10 1 6 -7.7145 8.1425
10 1 7 13.6008 -5.4708
10 1 8 9.4528 1.8783
10 1 9 2.1905 9.3059
10 1 10 3.7549 -5.6559
10 1 11 -15.2067 24.7578
10 1 12 -2.5911 3.4983
10 1 13 -3.9682 8.7200
10 1 14 -5.3481 7.2559
10 1 15 0.3439 -7.8294
10 1 16 10.6882 1.3796
10 1 17 -2.2460 0.7279
10 1 18 0.0068 2.3570
10 1 19 0.2916 -0.8779
10 1 20 -2.7068 0.2540
10 1 21 5.6545 -13.1268
10 1 22 5.0211 -8.4319
10 1 23 1.5229 -18.4833
10 1 24 -1.3180 -12.6217
10 1 25 -8.7225 1.6791
10 1 26 2.2298 -0.5300
10 1 27 2.7594 15.0387
10 1 28 1.8650 2.1389
10 1 29 7.5083 -4.0702
10 1 30 -9.2273 -3.8356
10 1 31 -4.9487 -2.5749
10 1 32 -6.9223 1.1620
10 1 33 -0.0373 2.2955
10 1 34 4.6593 5.3610
10 1 35 11.8546 -14.2228
10 1 36 -2.1944 -4.5774
10 1 37 -2.3687 -8.3399
10 2 0 -2.8854 6.9533
10 2 1 3.4825 4.6486
10 2 2 0.3964 -0.6680
10 2 3 2.4198 11.3018
10 2 4 -4.4044 6.8841
10 2 5 -8.2704 18.3902
10 2 6 2.3310 4.8643
10 2 7 -6.8973 -1.7813
10 2 8 -9.6392 12.0204
10 2 9 -18.9526 -14.7346
10 2 10 -4.7115 -10.0811
10 2 11 -6.0940 -0.2038
10 2 12 -11.7345 -6.8862
10 2 13 14.9818 14.0975
10 2 14 -6.0229 -4.4455
10 2 15 4.9484 3.3464
10 2 16 0.6155 0.7470
10 2 17 -2.7524 1.7402
10 2 18 12.0623 -7.8210
10 2 19 8.9559 13.2745
10 2 20 11.3473 6.1139
10 2 21 14.4766 0.0694
10 2 22 11.5894 -0.2677
10 2 23 -5.3027 -5.6105
10 2 24 -3.9882 2.0893
10 2 25 -13.5256 3.7911
10 2 26 -1.9329 0.7406
10 2 27 1.8705 7.7431
10 2 28 -1.2725 -3.9399
10 2 29 7.3690 -2.3781
10 2 30 -9.7962 -4.5525
10 2 31 -3.9134 -2.2119
10 2 32 1.6280 8.8754
10 2 33 10.4746 2.6213
10 2 34 3.9058 -0.0401
10 2 35 7.3262 0.3175
10 2 36 9.2456 -7.2754
10 2 37 0.0711 -4.3240
10 3 0 -1.0885 1.1605
10 3 1 -9.6692 -0.9855
10 3 2 -10.2222 -4.1747
10 3 3 -7.9096 -7.0743
10 3 4 -3.9415 1.4138
10 3 5 -5.6227 -7.9279
10 3 6 -4.5388 -7.3121
10 3 7 13.6645 -5.2514
10 3 8 4.5810 -13.4327
10 3 9 -1.2117 -5.4900
10 3 10 5.6860 2.0614
10 3 11 -6.7681 7.6001
10 3 12 -2.2524 -2.3632
10 3 13 4.4337 3.5355
10 3 14 -6.7150 3.7399
10 3 15 13.5142 -6.6475
10 3 16 -10.8075 15.7306
10 3 17 -5.2460 2.1837
10 3 18 -4.3803 8.5494
10 3 19 1.5681 9.6878
10 3 20 -2.2027 -1.7553
10 3 21 5.8010 -2.5931
10 3 22 -1.2685 -6.8184
10 3 23 -5.4108 -10.0757
10 3 24 -0.4233 -2.6361
10 3 25 -6.8385 3.0546
10 3 26 0.4640 -2.5346
10 3 27 1.2233 -1.1938
10 3 28 -0.7862 -7.2972
10 3 29 5.1321 -2.8677
10 3 30 -5.6839 1.4891
10 3 31 -1.0410 -1.3120
10 3 32 -2.3323 9.5326
10 3 33 5.8319 1.6148
10 3 34 6.0771 4.9869
10 3 35 2.9939 -1.4059
10 3 36 0.6416 7.2933
10 4 0 10.6090 -1.8530
10 4 1 6.0110 -1.9333
10 4 2 -2.8896 -6.5607
10 4 3 -1.7449 2.3831
10 4 4 0.8368 -0.5677
10 4 5 10.1011 4.4126
10 4 6 10.1230 2.9239
10 4 7 -4.5652 8.5612
10 4 8 -1.3074 3.0131
10 4 9 -1.6872 -8.3366
10 4 10 -6.7083 3.4061
10 4 11 -3.6653 4.1147
10 4 12 5.7989 2.6284
10 4 13 4.1365 2.5776
10 4 14 -10.1298 -3.8525
10 4 15 -0.6588 -4.8648
10 4 16 1.3857 2.7105
10 4 17 -2.6616 -8.2155
10 4 18 8.0443 8.9591
10 4 19 2.2254 2.1926
10 4 20 8.5715 -6.1109
10 4 21 6.3340 -3.0800
10 4 22 -3.6524 -4.0948
10 4 23 1.7949 -3.0408
10 4 24 4.3894 -5.1261
10 4 25 -0.3540 2.0068
10 4 26 4.9016 -2.2961
10 4 27 2.2839 4.2802
10 4 28 2.3562 -3.1173
10 4 29 -3.7430 -2.3710
10 4 30 1.2185 3.2204
10 4 31 1.0176 3.8271
10 4 32 -0.5291 6.9525
10 4 33 -5.6935 2.3569
10 4 34 3.0102 2.4832
10 4 35 4.4856 -3.3680
10 4 36 8.1427 3.3891
10 5 0 -0.9669 -5.2583
10 5 1 1.9440 0.3151
10 5 2 -3.6971 -2.9346
10 5 3 2.3396 8.4866
10 5 4 -15.6441 6.1163
10 5 5 -4.5934 0.7070
10 5 6 -1.1602 -1.2737
10 5 7 -1.8337 -10.0195
10 5 8 -3.7468 -4.1418
10 5 9 -0.5835 5.3586
10 5 10 -4.6796 2.1199
10 5 11 -5.5740 0.7458
10 5 12 2.9991 -3.1241
10 5 13 3.6531 4.6330
10 5 14 2.6843 0.3863
10 5 15 -0.6408 -0.9510
10 5 16 -6.9279 12.0788
10 5 17 4.7517 2.4116
10 5 18 3.1697 3.1546
10 5 19 1.3788 3.4659
10 5 20 7.6890 -0.3116
10 5 21 6.7545 0.9968
10 5 22 -1.8376 1.2723
10 5 23 5.1825 -0.1128
10 5 24 -2.2887 3.1932
10 5 25 2.1470 -4.0563
10 5 26 -2.4971 -2.6830
10 5 27 5.0696 3.6703
10 5 28 -5.0695 -1.1083
10 5 29 -6.9182 1.9402
10 5 30 -6.1443 -5.4125
10 5 31 -2.4433 3.0758
10 5 32 2.7298 -6.0078
10 5 33 5.9686 5.0849
10 5 34 -1.6787 3.7062
10 5 35 -1.8364 1.9956
10 6 0 -2.5857 2.1740
10 6 1 -8.2665 -6.1569
10 6 2 -9.9319 -7.1216
10 6 3 1.2428 -9.8440
10 6 4 2.8939 -4.3695
10 6 5 6.0985 -7.4298
10 6 6 -4.0845 2.5673
10 6 7 0.2250 -5.1608
10 6 8 0.0456 -10.4233
10 6 9 -2.8843 1.3361
10 6 10 1.3513 2.9075
10 6 11 0.7497 0.4737
10 6 12 1.4985 3.2442
10 6 13 -1.6315 -1.1430
10 6 14 -6.1857 1.2531
10 6 15 4.1230 -4.0404
10 6 16 -3.6911 2.6852
10 6 17 -9.4675 4.1869
10 6 18 6.3242 9.2306
10 6 19 -4.4560 -6.1214
10 6 20 -3.6068 7.4545
10 6 21 1.9581 1.1929
10 6 22 5.2304 -1.6250
10 6 23 4.0574 -3.5127
10 6 24 0.5846 5.6124
10 6 25 1.5776 -2.2575
10 6 26 3.6087 -3.1409
10 6 27 -1.3545 -10.7901
10 6 28 3.6315 -1.0903
10 6 29 8.0327 -5.5209
10 6 30 1.7338 3.2375
10 6 31 -2.3587 8.8752
10 6 32 -5.1660 -2.7358
10 6 33 6.0447 -2.9136
10 6 34 -3.0550 -4.0683
10 7 0 11.5703 -4.2375
10 7 1 5.4247 -8.8195
10 7 2 10.8197 4.2938
10 7 3 0.0986 1.1962
10 7 4 8.9527 -2.6018
10 7 5 7.0358 -2.1420
10 7 6 2.0226 -2.2910
10 7 7 2.1726 0.8690
10 7 8 -0.2515 5.9932
10 7 9 -1.0364 -3.7825
10 7 10 -7.2991 3.7210
10 7 11 4.3419 3.3389
10 7 12 6.6362 1.5737
10 7 13 -0.8483 1.3352
10 7 14 -0.8672 -11.1500
10 7 15 -3.4377 -1.6136
10 7 16 7.6189 -0.5904
10 7 17 -6.5690 -10.6838
10 7 18 1.0301 -2.8773
10 7 19 2.8024 8.8635
10 7 20 6.2937 -3.1455
10 7 21 -6.6765 5.1914
10 7 22 6.4096 4.1168
10 7 23 -0.1869 -0.9256
10 7 24 5.1331 1.2783
10 7 25 4.2057 1.7038
10 7 26 8.5766 11.3178
10 7 27 -0.1715 1.7003
10 7 28 -1.1363 0.4769
10 7 29 -4.4889 -0.6006
10 7 30 8.6922 -3.7301
10 7 31 -0.0355 -1.7909
10 7 32 6.0123 -0.9379
10 7 33 14.0497 2.5967
10 8 0 -2.5998 0.6003
10 8 1 -1.7042 10.2429
10 8 2 6.3909 4.4258
10 8 3 0.3377 3.2988
10 8 4 2.5520 2.5386
10 8 5 0.4528 8.8162
10 8 6 -2.3549 -7.8955
10 8 7 5.0113 -2.5574
10 8 8 -8.1261 5.6758
10 8 9 -3.0214 2.6466
10 8 10 2.9137 6.9851
10 8 11 1.6331 -0.4111
10 8 12 13.0671 6.4800
10 8 13 6.1672 2.7916
10 8 14 5.4280 -4.0469
10 8 15 11.1054 6.3095
10 8 16 -4.4918 6.7449
10 8 17 6.6845 1.7832
10 8 18 -1.2232 -5.1843
10 8 19 -5.7659 10.9065
10 8 20 0.8283 1.3485
10 8 21 8.2995 -2.7106
10 8 22 -7.5994 2.3148
10 8 23 -3.9619 11.7328
10 8 24 -1.7326 1.3660
10 8 25 -4.1786 -0.3058
10 8 26 1.2918 -1.5472
10 8 27 2.4282 8.9539
10 8 28 13.7555 1.9411
10 8 29 -4.9932 5.7383
10 8 30 1.7665 4.6390
10 8 31 5.2188 12.1344
10 9 0 0.4056 -1.3138
10 9 1 2.6779 2.2325
10 9 2 -8.7113 4.6433
10 9 3 1.4816 6.0061
10 9 4 3.8502 -3.6349
10 9 5 -4.8235 3.0716
10 9 6 -1.0505 -2.1060
10 9 7 -0.1709 -3.8298
10 9 8 -13.3354 8.0040
10 9 9 -5.3205 6.4012
10 9 10 -1.2729 21.6093
10 9 11 -3.6822 6.3664
10 9 12 -0.9626 1.6046
10 9 13 -11.7507 7.7641
10 9 14 2.2093 3.0608
10 9 15 4.7513 3.8070
10 9 16 -11.5273 0.7670
10 9 17 -0.9210 -6.4303
10 9 18 6.3780 12.2345
10 9 19 -2.8012 -4.6894
10 9 20 -5.8093 -3.3826
10 9 21 -0.5835 -1.6229
10 9 22 -3.4293 -1.3817
10 9 23 -1.2078 -7.0399
10 9 24 -1.1623 7.5964
10 9 25 -6.3508 6.5426
10 9 26 -5.2258 2.6379
10 9 27 -7.1134 -1.3535
10 9 28 -3.7985 1.0861
10 9 29 1.5124 6.2897
10 10 0 -9.3834 -3.7031
10 10 1 -1.2780 2.7501
10 10 2 1.1112 -5.4613
10 10 3 -2.5112 2.1018
10 10 4 3.9141 5.4226
10 10 5 6.2721 -7.6661
10 10 6 -16.2802 -9.6677
10 10 7 -14.0516 0.0630
10 10 8 -13.6767 -9.1269
10 10 9 -6.4112 -6.2072
10 10 10 0.6753 -2.1268
10 10 11 -5.8138 -0.7396
10 10 12 0.9602 -0.4179
10 10 13 -4.1765 1.3843
10 10 14 -2.7571 -6.0573
10 10 15 2.7587 7.9393
10 10 16 -0.3450 -4.7681
10 10 17 1.5059 -4.7006
10 10 18 8.6196 12.2836
10 10 19 -1.3686 -5.1785
10 10 20 12.7410 -10.3654
10 10 21 -3.7410 4.2747
10 10 22 -3.9475 -1.0284
10 10 23 1.6361 -7.5842
10 10 24 5.3103 -9.2829
10 10 25 -0.6642 -6.4621
10 10 26 8.1838 2.7073
10 10 27 -1.6107 4.0883
10 11 0 3.7191 -2.2810
10 11 1 -4.7880 4.4547
10 11 2 -4.6597 8.7244
10 11 3 7.2948 -2.2672
10 11 4 1.9416 -14.1357
10 11 5 5.9389 -8.1541
10 11 6 11.7674 -9.8153
10 11 7 1.8508 -8.9883
10 11 8 2.0113 9.2897
10 11 9 3.3606 -1.8601
10 11 10 -6.8662 -3.5661
10 11 11 0.8278 -5.1235
10 11 12 -1.3529 3.7138
10 11 13 8.1201 1.5124
10 11 14 -1.3851 5.1264
10 11 15 -0.5713 1.9721
10 11 16 -10.5309 12.4192
10 11 17 9.7327 6.9072
10 11 18 1.5475 3.4835
10 11 19 -4.0827 0.9498
10 11 20 13.4716 -3.0295
10 11 21 3.5494 15.6341
10 11 22 8.6776 0.9480
10 11 23 7.8908 13.0090
10 11 24 -4.1083 11.2631
10 11 25 -1.6848 -0.8863
10 12 0 -8.8549 -3.8891
10 12 1 9.2733 6.5103
10 12 2 -1.4306 2.9313
10 12 3 13.7299 9.8469
10 12 4 7.4422 4.9271
10 12 5 -4.6250 3.8503
10 12 6 -5.2968 -2.2760
10 12 7 8.6017 3.7570
10 12 8 6.5817 -9.6038
10 12 9 -5.2722 2.9528
10 12 10 3.5272 2.8268
10 12 11 -4.3201 4.2334
10 12 12 -4.0794 2.9517
10 12 13 -12.6952 -4.5442
10 12 14 -2.8702 -0.5044
10 12 15 -13.2700 -6.0668
10 12 16 9.0883 9.1657
10 12 17 -8.8541 2.0961
10 12 18 2.8786 12.8651
10 12 19 -8.7881 3.7612
10 12 20 -11.9503 8.7111
10 12 21 -12.9605 12.4537
10 13 0 -18.7904 3.2521
10 13 1 1.6861 7.8340
10 13 2 -7.5608 0.6745
10 13 3 7.0471 -8.8450
10 13 4 -1.7796 11.2547
10 13 5 2.2277 1.8115
10 13 6 1.7536 5.3846
10 13 7 5.0368 7.4413
10 13 8 -13.0166 -2.0064
10 13 9 7.4095 -4.4089
10 13 10 -5.2868 -8.0691
10 13 11 8.0168 -2.1327
10 13 12 0.1807 -9.9938
10 13 13 1.4736 -0.2897
10 13 14 -7.9304 2.0252
10 13 15 -5.3448 8.7939
10 13 16 -9.4354 -5.4275
10 14 0 5.3515 -0.4333
10 14 1 -2.9631 0.7902
10 14 2 -0.4170 12.9740
10 14 3 -4.7093 -7.5982
10 14 4 -13.4153 5.6773
10 14 5 -7.1571 -6.1019
10 14 6 10.2324 0.2343
10 14 7 -3.1013 7.0515
10 14 8 1.5417 4.2828
10 14 9 12.0422 1.1285
10 14 10 0.2129 10.1227
10 14 11 0.9294 -13.1229
10 14 12 -12.8963 -0.6787
11 0 1 -4.2662 -7.4116
11 0 2 -1.4852 1.3319
11 0 3 -3.7499 -8.7199
11 0 4 1.2163 -7.9466
11 0 5 5.0979 3.4445
11 0 6 -4.1422 -11.0536
11 0 7 1.7480 -2.2590
11 0 8 2.9929 -4.5255
11 0 9 -5.1915 -0.1166
11 0 10 -12.9003 10.9424
11 0 11 -0.8528 -1.6227
11 0 12 -8.0539 9.6544
11 0 13 3.6535 3.4726
11 0 14 0.2926 0.5391
11 0 15 -1.6040 -4.0344
11 0 16 9.2258 -0.6726
11 0 17 -3.7303 4.5120
11 0 18 -8.7276 2.7329
11 0 19 0.5347 -1.4195
11 0 20 7.0699 -5.1163
11 0 21 1.3716 -10.9942
11 0 22 1.7990 -11.9215
11 0 23 -1.0378 -6.8935
11 0 24 4.4624 -3.3744
11 0 25 0.3564 2.8107
11 0 26 -5.3325 9.7778
11 0 27 0.8784 -4.4745
11 0 28 -3.7526 7.2025
11 0 29 -0.3456 2.7510
11 0 30 4.8377 -0.8932
11 0 31 1.1503 11.0170
11 0 32 2.0816 1.0082
11 0 33 1.3065 -4.7523
11 0 34 -5.9430 2.2878
11 0 35 -1.4969 9.1697
11 1 0 -0.4950 -6.3882
11 1 1 6.0193 1.4326
11 1 2 4.9666 5.8860
11 1 3 -6.9747 -0.4609
11 1 4 13.2185 -3.5713
11 1 5 1.4638 5.6971
11 1 6 -2.8041 0.8825
11 1 7 7.6911 -14.9132
11 1 8 -11.4703 -6.6003
11 1 9 4.2114 -5.2331
11 1 10 -5.2631 -3.2507
11 1 11 -3.2688 0.9698
11 1 12 4.0188 0.2790
11 1 13 0.0950 4.1122
11 1 14 3.1703 7.3893
11 1 15 -6.7313 -7.5522
11 1 16 3.7079 -0.8646
11 1 17 -2.9936 4.9906
11 1 18 9.2232 -0.0740
11 1 19 7.8148 3.8915
11 1 20 9.9062 4.0606
11 1 21 5.3650 0.1272
11 1 22 -0.4052 2.3521
11 1 23 -4.9690 0.6369
11 1 24 -7.7209 -3.3960
11 1 25 -1.1350 -4.2990
11 1 26 -8.6027 -4.5381
11 1 27 -1.9287 2.4173
11 1 28 -0.0408 6.5822
11 1 29 -10.1857 0.2967
11 1 30 8.1765 2.6229
11 1 31 -1.4231 -3.2270
11 1 32 -6.0206 -3.4264
11 1 33 0.6982 0.0342
11 1 34 -1.7987 5.2625
11 1 35 -3.0708 3.9945
11 2 0 -1.9191 -4.3497
11 2 1 -2.1504 -6.0108
11 2 2 -2.1369 4.8088
11 2 3 2.1259 3.7214
11 2 4 7.6411 1.4271
11 2 5 5.2753 5.9810
11 2 6 5.7639 -9.3490
11 2 7 9.2486 8.2515
11 2 8 1.9674 7.7284
11 2 9 -7.4982 -11.3606
11 2 10 -0.1428 17.5140
11 2 11 -0.6501 -2.4976
11 2 12 -3.6321 4.4933
11 2 13 1.3414 -2.7324
11 2 14 -6.3580 -1.5389
11 2 15 4.9895 2.7194
11 2 16 -1.2248 1.9102
11 2 17 -5.8789 10.4573
11 2 18 2.9985 -3.2865
11 2 19 2.3818 7.4966
11 2 20 -4.3432 -8.4457
11 2 21 -0.0271 -4.5730
11 2 22 5.2692 -6.6968
11 2 23 6.3278 -5.1052
11 2 24 3.4892 -4.8076
11 2 25 -3.8469 -3.4792
11 2 26 -4.6253 2.4328
11 2 27 1.2446 -3.4039
11 2 28 -0.9080 8.7631
11 2 29 4.1908 -1.9902
11 2 30 5.2253 -1.5070
11 2 31 -1.8712 2.9994
11 2 32 -4.0487 -7.8948
11 2 33 -8.1459 8.0947
11 2 34 -3.4595 11.0033
11 2 35 1.2570 -0.3562
11 3 0 -5.4394 2.7398
11 3 1 0.8721 2.6359
11 3 2 -4.2254 4.7409
11 3 3 -3.2518 1.7173
11 3 4 2.8854 10.4967
11 3 5 -8.0267 6.1585
11 3 6 -3.4931 -6.0620
11 3 7 -6.2316 -1.9357
11 3 8 -12.4931 1.8917
11 3 9 -0.0719 -4.9526
11 3 10 3.3651 -2.1445
11 3 11 -11.9147 -1.9816
11 3 12 16.1417 -0.1361
11 3 13 -9.7526 -1.0363
11 3 14 1.7977 2.1939
11 3 15 -3.1093 -1.5878
11 3 16 2.6463 12.2169
11 3 17 3.5467 -5.2491
11 3 18 3.5262 2.6108
11 3 19 12.0194 3.3767
11 3 20 0.0744 3.2607
11 3 21 8.6648 4.5795
11 3 22 -0.5062 3.5822
11 3 23 1.8836 -4.2865
11 3 24 -1.1063 -2.0585
11 3 25 -5.7769 0.2334
11 3 26 -5.2592 2.2153
11 3 27 -2.9629 2.8774
11 3 28 1.6073 4.3093
11 3 29 -5.1862 -5.2063
11 3 30 2.1431 0.5830
11 3 31 -11.4633 -7.5404
11 3 32 -3.6182 -7.0031
11 3 33 0.0439 0.2124
11 3 34 -0.3782 5.3643
11 4 0 -3.4530 -3.7901
11 4 1 -1.3084 0.7956
11 4 2 -4.5982 6.1296
11 4 3 -2.7958 -5.7725
11 4 4 3.2018 -12.4433
11 4 5 -1.9544 -4.5769
11 4 6 5.4701 -4.8726
11 4 7 4.7748 4.3471
11 4 8 -3.3410 -7.7442
11 4 9 2.9896 6.7500
11 4 10 7.4540 3.4625
11 4 11 -5.3557 -3.4185
11 4 12 0.9892 -4.9559
11 4 13 -5.9783 13.2501
11 4 14 -0.6552 -6.9207
11 4 15 -4.6947 11.1991
11 4 16 -2.6937 0.7103
11 4 17 -5.4881 9.0675
11 4 18 3.5788 1.6232
11 4 19 -10.8036 0.1330
11 4 20 2.5814 3.4242
11 4 21 3.7384 -2.7342
11 4 22 0.9699 0.1065
11 4 23 -2.9496 -8.0779
11 4 24 0.2646 -3.2750
11 4 25 -3.1306 -1.6362
11 4 26 2.6458 -6.4870
11 4 27 1.8863 -1.1486
11 4 28 2.0356 -7.1835
11 4 29 4.0817 -7.3899
11 4 30 10.1795 -6.3061
11 4 31 0.0799 2.6261
11 4 32 6.7790 1.0860
11 4 33 -1.6424 7.7168
11 4 34 -0.7766 -6.7626
11 5 0 1.6038 -2.7578
11 5 1 1.8080 -2.5540
11 5 2 8.1451 5.7648
11 5 3 2.6196 -0.3130
11 5 4 0.0156 4.8091
11 5 5 -2.0802 -2.0063
11 5 6 -7.9713 -0.4604
11 5 7 2.4496 7.4596
11 5 8 0.9355 1.2635
11 5 9 5.6435 -1.4117
11 5 10 -10.4139 4.9844
11 5 11 1.1572 -0.4821
11 5 12 -2.7648 -8.7724
11 5 13 -2.6165 2.7468
11 5 14 -5.8746 -5.8139
11 5 15 5.5474 2.0675
11 5 16 -5.4443 -6.7931
11 5 17 3.2406 -1.7728
11 5 18 -3.5248 3.1160
11 5 19 2.0988 0.7625
11 5 20 -0.3362 -4.5726
11 5 21 1.2122 3.8589
11 5 22 6.6708 -5.0797
11 5 23 1.1128 -0.6106
11 5 24 4.1506 3.3784
11 5 25 2.4667 5.6098
11 5 26 8.5657 -2.6738
11 5 27 8.9705 7.3164
11 5 28 -3.3583 5.2466
11 5 29 4.1686 7.2326
11 5 30 -5.6579 7.2670
11 5 31 1.1565 4.8658
11 5 32 2.7653 -1.2285
11 5 33 3.3276 2.6764
11 6 0 -4.3374 11.8835
11 6 1 -1.9299 -1.3248
11 6 2 1.3562 -1.7235
11 6 3 -1.0561 -8.9819
11 6 4 5.5261 1.9875
11 6 5 -7.5778 4.1582
11 6 6 -0.7075 5.3372
11 6 7 -10.2790 -4.4839
11 6 8 -0.7244 -0.5402
11 6 9 4.7270 -4.1912
11 6 10 1.6774 -0.9025
11 6 11 -1.3879 -2.6975
11 6 12 5.0560 6.8817
11 6 13 2.0625 0.6272
11 6 14 -3.4137 -1.8266
11 6 15 4.9440 -0.7238
11 6 16 2.1038 0.9513
11 6 17 4.3744 -8.0184
11 6 18 -3.9971 -0.6072
11 6 19 2.5414 2.6013
11 6 20 8.6838 3.2862
11 6 21 -4.2958 -0.9403
11 6 22 -4.6000 1.8717
11 6 23 4.6363 5.1736
11 6 24 -3.3562 -0.1345
11 6 25 -3.9258 4.1021
11 6 26 -4.9119 -1.0537
11 6 27 -0.8865 0.6560
11 6 28 -14.0446 -6.2528
11 6 29 -0.9310 -1.5283
11 6 30 -2.7867 9.4667
11 6 31 1.8134 -6.5374
11 6 32 3.0366 0.8150
11 7 0 0.1458 2.1729
11 7 1 -3.8535 3.4612
11 7 2 0.1214 3.2524
11 7 3 -12.0081 -5.0045
11 7 4 2.4905 -10.7923
11 7 5 -8.2053 -0.7899
11 7 6 14.4914 -5.6688
11 7 7 -3.3197 7.7853
11 7 8 1.3779 -0.9070
11 7 9 -5.8700 10.9626
11 7 10 -2.6897 -2.2469
11 7 11 2.5132 -2.1934
11 7 12 0.7113 1.3815
11 7 13 1.0913 10.7067
11 7 14 7.8432 1.5323
11 7 15 8.8569 -0.7554
11 7 16 -3.1487 3.8255
11 7 17 -1.0498 4.3299
11 7 18 1.7304 -4.4141
11 7 19 -3.6035 -1.8267
11 7 20 0.3661 5.9162
11 7 21 3.3135 0.2274
11 7 22 1.1402 -5.9365
11 7 23 -2.5867 3.1241
11 7 24 3.3392 -1.1981
11 7 25 7.1954 -8.6067
11 7 26 0.7413 -3.3779
11 7 27 4.0619 -1.6703
11 7 28 0.5435 -0.6522
11 7 29 9.7921 -5.0438
11 7 30 3.4111 13.0508
11 8 0 -3.4421 -12.1424
11 8 1 6.2000 -3.3058
11 8 2 6.4344 -7.5592
11 8 3 4.6802 4.8324
11 8 4 2.9337 3.7793
11 8 5 -7.6837 0.3720
11 8 6 -10.3879 -11.7551
11 8 7 2.9518 8.9984
11 8 8 -6.9636 -12.5530
11 8 9 2.5036 11.2054
11 8 10 -12.0088 -0.2939
11 8 11 1.2613 4.3050
11 8 12 -6.6401 11.5945
11 8 13 -2.7498 -1.0045
11 8 14 -1.1478 1.4211
11 8 15 10.4034 -2.4075
11 8 16 0.0156 -4.2861
11 8 17 -4.8990 -2.9627
11 8 18 4.6953 6.6109
11 8 19 6.1289 -0.2475
11 8 20 -9.4193 -3.2578
11 8 21 2.5140 4.6874
11 8 22 11.3276 2.2668
11 8 23 2.3761 1.9554
11 8 24 -2.7789 2.5125
11 8 25 3.5243 10.9306
11 8 26 4.3144 4.0519
11 8 27 -2.4662 6.3687
11 8 28 -6.8788 15.1923
11 8 29 4.6624 5.2699
11 9 0 4.4065 9.4449
11 9 1 2.2250 -0.9086
11 9 2 -5.3582 3.0395
11 9 3 9.6212 -10.5561
11 9 4 -1.6236 -1.7578
11 9 5 4.8865 -2.8483
11 9 6 2.6387 -8.1195
11 9 7 -8.0664 -3.4711
11 9 8 -4.1580 -2.6259
11 9 9 6.3534 -13.7838
11 9 10 -14.3613 4.2265
11 9 11 3.8364 -3.0816
11 9 12 4.0351 13.5475
11 9 13 4.2062 -1.4208
11 9 14 12.6946 -0.4145
11 9 15 -6.3670 7.2282
11 9 16 3.3486 6.5356
11 9 17 6.1325 -5.7441
11 9 18 -0.8489 0.0668
11 9 19 1.7011 15.4539
11 9 20 3.2533 1.9502
11 9 21 -0.1551 -0.1401
11 9 22 -6.2925 7.6810
11 9 23 -1.3364 -1.4397
11 9 24 -6.5494 -1.7826
11 9 25 -8.8786 2.0816
11 9 26 -14.4413 -0.3774
11 9 27 0.0215 1.4148
11 10 0 0.6891 3.8845
11 10 1 3.8375 1.0292
11 10 2 6.7757 5.8621
11 10 3 2.1195 -0.3267
11 10 4 8.1378 2.2014
11 10 5 2.4407 -5.4264
11 10 6 11.8028 9.1494
11 10 7 6.5185 -2.8334
11 10 8 -5.3174 -9.9767
11 10 9 -5.5384 10.6314
11 10 10 -0.2220 4.3950
11 10 11 -7.8223 5.4793
11 10 12 3.9044 10.8912
11 10 13 -7.2271 4.8209
11 10 14 4.3332 -0.2774
11 10 15 -3.5327 12.4455
11 10 16 -12.3701 -2.1912
11 10 17 3.6873 11.7522
11 10 18 -7.1926 2.5327
11 10 19 -8.1771 -3.4431
11 10 20 -2.9827 9.7178
11 10 21 13.9043 -4.5026
11 10 22 -8.2767 -2.3172
11 10 23 -5.4326 -7.8434
11 10 24 2.8462 -3.0222
11 11 0 3.2881 11.5955
11 11 1 -3.4399 3.1995
11 11 2 -1.7305 6.0313
11 11 3 -8.0941 5.9527
11 11 4 2.9397 6.7308
11 11 5 0.1351 5.3638
11 11 6 3.6953 -2.1605
11 11 7 -3.5203 -3.8410
11 11 8 1.5223 -1.4966
11 11 9 -9.5783 -2.9114
11 11 10 -14.6248 4.9367
11 11 11 5.5126 1.1605
11 11 12 -6.9219 -3.1789
11 11 13 -8.0783 -0.0784
11 11 14 -5.8440 -1.0581
11 11 15 1.6256 -0.2150
11 11 16 -10.1930 -5.6261
11 11 17 3.3579 -5.2751
11 11 18 -13.7572 17.5380
11 11 19 3.1246 -7.2799
11 11 20 2.8477 2.6148
11 11 21 -5.7046 -5.3755
11 12 0 -2.1766 -10.2354
11 12 1 -8.1899 3.3465
11 12 2 1.8532 -2.2788
11 12 3 -4.8608 1.5816
11 12 4 -3.2030 12.1038
11 12 5 1.2288 6.9756
11 12 6 -1.3707 -7.4097
11 12 7 -0.4262 -4.0563
11 12 8 -0.4041 0.9046
11 12 9 -4.6865 1.7551
11 12 10 4.7879 -7.6388
11 12 11 -8.9657 -2.0084
11 12 12 1.6721 5.6969
11 12 13 -4.7876 -3.4017
11 12 14 -0.3929 -4.0496
11 12 15 -8.3945 -0.3802
11 12 16 -3.3501 -4.1479
11 12 17 -8.3627 -6.2067
11 13 0 4.0036 6.5242
11 13 1 -11.0793 -5.2126
11 13 2 -16.0459 -4.6447
11 13 3 1.9794 -0.6033
11 13 4 -1.1954 -1.4829
11 13 5 -7.5275 -5.2761
11 13 6 4.2875 5.3048
11 13 7 -4.6681 -2.3986
11 13 8 -3.2362 1.7288
11 13 9 -3.6881 -6.2231
11 13 10 -1.1447 -8.2680
11 13 11 -2.7169 -0.5161
11 13 12 -3.0670 -12.9977
11 13 13 2.5389 -1.2947
12 0 0 -2.1633 -3.7051
12 0 1 1.7246 9.3034
12 0 2 1.6011 2.6340
12 0 3 4.8139 2.9542
12 0 4 0.1576 7.5202
12 0 5 0.2137 -3.2402
12 0 6 -5.0640 1.1050
12 0 7 -12.2958 -7.6107
12 0 8 6.1487 -7.5377
12 0 9 -5.7728 -1.9659
12 0 10 2.2168 -2.5725
12 0 11 1.0151 -7.7498
12 0 12 -3.1807 6.4000
12 0 13 1.0598 2.4100
12 0 14 -10.3501 1.6606
12 0 15 3.7489 1.3840
12 0 16 5.2715 -6.2021
12 0 17 9.2874 0.2036
12 0 18 0.7954 -0.4361
12 0 19 3.2314 -8.5380
12 0 20 -8.4127 6.4605
12 0 21 -5.1730 5.4396
12 0 22 0.2705 0.4976
12 0 23 -5.0219 -7.1666
12 0 24 2.5454 -7.2180
12 0 25 -3.9876 2.0747
12 0 26 -6.8151 -1.2675
12 0 27 -5.7581 -7.0749
12 0 28 -2.9748 6.1156
12 0 29 0.4489 -4.3421
12 0 30 -1.8266 1.3344
12 0 31 6.9858 2.9239
12 0 32 -11.1271 -4.0898
12 0 33 3.8784 0.3684
12 1 0 -5.4265 2.1115
12 1 1 2.3924 -0.0008
12 1 2 -11.7131 1.8533
12 1 3 0.3549 -4.1743
12 1 4 5.1865 -6.0921
12 1 5 -1.0786 -4.3321
12 1 6 4.0839 4.4886
12 1 7 -7.2628 -1.2419
12 1 8 10.0803 3.6624
12 1 9 0.0541 7.4997
12 1 10 -5.1465 -5.7022
12 1 11 -6.6948 4.0967
12 1 12 -0.5622 -9.0402
12 1 13 -3.6479 3.0919
12 1 14 4.2874 9.1512
12 1 15 -0.5288 7.3446
12 1 16 5.5261 4.4563
12 1 17 4.5225 -4.3878
12 1 18 -7.3312 -5.4434
12 1 19 -3.5558 -8.2048
12 1 20 3.3611 0.3738
12 1 21 1.4528 -4.7169
12 1 22 9.8117 4.1436
12 1 23 1.6421 -5.7346
12 1 24 2.7058 -5.4826
12 1 25 -0.5505 -0.4560
12 1 26 -3.4329 -4.6103
12 1 27 1.9917 4.6239
12 1 28 -4.2736 4.6376
12 1 29 -5.6004 3.2863
12 1 30 11.4153 -1.0372
12 1 31 -3.3926 2.5080
12 1 32 0.2112 1.3993
12 1 33 -1.5784 -6.3803
12 2 0 2.3547 -3.7280
12 2 1 2.7713 4.6055
12 2 2 10.0088 -2.6137
12 2 3 -0.3570 -6.1356
12 2 4 -7.0092 0.7109
12 2 5 -6.9162 -2.1640
12 2 6 -2.0153 -3.0320
12 2 7 -5.3555 5.9095
12 2 8 -1.2963 -11.0859
12 2 9 -0.3257 -0.4891
12 2 10 5.4034 -13.4770
12 2 11 -0.7519 -0.7198
12 2 12 -15.4233 6.7669
12 2 13 0.2362 -0.4413
12 2 14 -9.4792 0.9374
12 2 15 8.5338 1.8023
12 2 16 4.9292 -3.7457
12 2 17 7.0904 -0.1657
12 2 18 -0.6646 -2.0618
12 2 19 0.1458 4.1171
12 2 20 0.2173 9.9614
12 2 21 0.3441 3.3787
12 2 22 4.3726 -3.3608
12 2 23 -3.2157 2.8455
12 2 24 4.4300 -3.3971
12 2 25 -9.7255 -2.8236
12 2 26 -5.9461 -7.6133
12 2 27 -5.1572 -1.4441
12 2 28 -8.1904 9.1642
12 2 29 1.9005 -2.0696
12 2 30 -0.3751 0.2020
12 2 31 3.6737 -3.3679
12 2 32 -0.4521 -14.4023
12 3 0 3.5776 3.4279
12 3 1 6.4344 1.5312
12 3 2 -2.3744 -9.1983
12 3 3 11.0944 -2.4778
12 3 4 -6.0428 -6.1774
12 3 5 -0.4020 -0.7183
12 3 6 5.6020 3.9922
12 3 7 11.6500 3.0397
12 3 8 5.5737 -3.2761
12 3 9 2.8793 -1.1182
12 3 10 -9.0485 -5.3006
12 3 11 8.1205 -6.9441
12 3 12 -3.0282 -2.4894
12 3 13 0.2590 5.0609
12 3 14 10.1430 10.6504
12 3 15 -5.5602 -7.3611
12 3 16 4.8894 6.6540
12 3 17 -4.8227 -6.7433
12 3 18 -5.7311 0.8605
12 3 19 2.1565 -0.8915
12 3 20 -1.5077 3.7468
12 3 21 1.2240 -1.0208
12 3 22 2.2743 -2.9628
12 3 23 4.9251 -6.4170
12 3 24 3.3977 -9.4450
12 3 25 2.3757 -4.0463
12 3 26 -4.1844 -12.3607
12 3 27 -3.5171 4.5859
12 3 28 3.1827 0.7400
12 3 29 6.1561 3.2198
12 3 30 16.0706 7.2517
12 3 31 -2.3792 -4.6701
12 3 32 3.6111 -2.5088
12 4 0 5.5258 2.9533
12 4 1 8.3089 2.0989
12 4 2 -5.5992 -2.6945
12 4 3 -4.6152 -4.0285
12 4 4 -8.3581 10.5237
12 4 5 5.9558 -0.7682
12 4 6 -1.3834 12.4480
12 4 7 -1.1784 -2.4080
12 4 8 5.9319 -0.0855
12 4 9 5.7006 -0.8079
12 4 10 -6.3856 2.9014
12 4 11 -3.1772 6.4660
12 4 12 1.6072 5.4801
12 4 13 0.8261 -5.2418
12 4 14 1.6713 7.5203
12 4 15 3.8087 3.8914
12 4 16 4.3462 -9.1214
12 4 17 -10.1696 11.0163
12 4 18 2.1662 -4.5146
12 4 19 -2.4585 5.5926
12 4 20 3.8409 0.6827
12 4 21 7.8867 -0.8760
12 4 22 5.9015 6.1290
12 4 23 7.9028 -1.9191
12 4 24 4.2535 -2.3661
12 4 25 -1.7698 -2.8562
12 4 26 -4.8096 2.0875
12 4 27 -0.8738 8.7410
12 4 28 -7.7019 5.1949
12 4 29 6.7407 6.0606
12 4 30 3.6898 -5.0748
12 4 31 2.7589 -0.9875
12 5 0 6.3352 -8.7956
12 5 1 3.3611 -0.2076
12 5 2 -0.4101 -2.5252
12 5 3 -4.5846 -1.4441
12 5 4 -8.3238 3.8284
12 5 5 -1.4906 1.2001
12 5 6 4.9516 1.5226
12 5 7 -5.6914 -7.1504
12 5 8 0.8062 0.6507
12 5 9 -4.1965 2.6130
12 5 10 0.3767 2.2001
12 5 11 -3.9582 -1.0420
12 5 12 -9.4567 7.0203
12 5 13 1.3954 0.4120
12 5 14 -1.7278 -5.2503
12 5 15 -9.0155 -5.1649
12 5 16 3.0223 -3.7808
12 5 17 -0.8104 -1.6074
12 5 18 -8.2129 1.0438
12 5 19 5.7695 9.4964
12 5 20 -5.0474 2.5197
12 5 21 5.2480 2.8201
12 5 22 -1.0024 3.2026
12 5 23 3.5773 -4.2858
12 5 24 2.1103 1.1428
12 5 25 -5.8381 -6.5867
12 5 26 -1.4769 1.4722
12 5 27 2.1217 4.6113
12 5 28 1.5198 4.6789
12 5 29 7.8394 -1.6477
12 5 30 1.9198 -2.3202
12 6 0 -4.8953 -1.0689
12 6 1 -0.4584 -0.6477
12 6 2 -10.6528 -12.0426
12 6 3 6.1787 -1.6332
12 6 4 5.5945 0.2887
12 6 5 2.9088 -1.4604
12 6 6 -4.8464 7.9206
12 6 7 -1.6470 -5.8071
12 6 8 -2.1967 0.2149
12 6 9 -4.1374 -3.5035
12 6 10 3.5140 -4.6517
12 6 11 4.3018 -4.3017
12 6 12 8.8769 -2.5123
12 6 13 2.5437 0.2864
12 6 14 8.5761 4.2298
12 6 15 1.3153 -10.3184
12 6 16 -1.8511 -5.6895
12 6 17 -1.1859 7.6648
12 6 18 -1.0026 -7.8302
12 6 19 0.9576 -0.6561
12 6 20 -2.8943 6.2695
12 6 21 1.4629 2.5825
12 6 22 0.6371 0.4058
12 6 23 -1.9615 -4.4250
12 6 24 -1.1991 9.5273
12 6 25 -4.5968 -2.3480
12 6 26 1.2137 5.4243
12 6 27 -3.5870 6.2251
12 6 28 10.8679 7.8287
12 6 29 5.3836 1.8715
12 7 0 17.8623 -4.5256
12 7 1 0.6569 0.7954
12 7 2 -2.0412 9.9867
12 7 3 -0.3395 -6.1028
12 7 4 -6.7838 3.8824
12 7 5 5.1892 -9.3515
12 7 6 0.4964 -1.2913
12 7 7 -1.7205 2.9907
12 7 8 14.8447 10.6719
12 7 9 -10.9083 5.7907
12 7 10 3.2617 5.8901
12 7 11 -5.5873 9.9192
12 7 12 5.2136 2.3169
12 7 13 6.8693 4.4283
12 7 14 0.9936 0.0144
12 7 15 5.9393 5.3452
12 7 16 9.2136 0.8048
12 7 17 -4.0823 0.0240
12 7 18 -8.3269 -1.6128
12 7 19 12.8098 -3.6366
12 7 20 -6.5414 -0.2537
12 7 21 0.0355 -5.5591
12 7 22 1.7057 2.2892
12 7 23 1.2135 -4.0069
12 7 24 -7.4702 -3.1227
12 7 25 -9.8009 3.2545
12 7 26 3.5901 8.1528
12 7 27 -14.7896 3.0610
12 8 0 -5.4969 0.7841
12 8 1 3.7330 -0.8546
12 8 2 2.0511 -10.4334
12 8 3 2.9399 9.9867
12 8 4 2.0991 2.6877
12 8 5 -13.3196 2.1594
12 8 6 -1.9798 2.6427
12 8 7 -7.9300 -9.6364
12 8 8 -7.8976 -0.0172
12 8 9 -5.0830 4.4194
12 8 10 -4.4597 -7.0838
12 8 11 -2.7099 19.0349
12 8 12 -8.3605 1.4112
12 8 13 1.2836 9.7785
12 8 14 -5.8943 1.7178
12 8 15 3.6018 -6.0563
12 8 16 5.3618 12.5852
12 8 17 1.9359 -3.7198
12 8 18 3.4437 -0.8340
12 8 19 -2.1510 8.6574
12 8 20 3.5655 13.4429
12 8 21 0.8800 -16.9025
12 8 22 2.8364 4.0713
12 8 23 -4.6362 -1.1427
12 8 24 3.6675 -7.5522
12 8 25 -5.7456 -11.3287
12 8 26 0.3334 -0.5228
12 9 0 4.9065 -0.3915
12 9 1 -9.2622 2.0796
12 9 2 -3.1896 -2.8289
12 9 3 2.0441 -3.3297
12 9 4 -5.1967 -4.1546
12 9 5 11.5355 -2.7264
12 9 6 -0.9296 -4.2301
12 9 7 -0.9912 -2.8179
12 9 8 -5.7694 -8.4039
12 9 9 -15.4165 -6.6735
12 9 10 -3.0148 2.6735
12 9 11 -1.5060 -7.0949
12 9 12 -6.9237 2.5839
12 9 13 4.3265 2.0052
12 9 14 -1.9195 11.9004
12 9 15 -0.0237 -6.6901
12 9 16 -3.6660 2.2806
12 9 17 -21.0262 -1.6366
12 9 18 15.8882 -2.8723
12 9 19 -6.0160 7.2205
12 9 20 -0.7868 -5.1569
12 9 21 4.6696 7.5761
12 9 22 14.4080 -4.3087
12 9 23 -4.8647 -0.5214
12 10 0 -0.4507 -0.8093
12 10 1 0.9714 -2.0632
12 10 2 0.1994 -2.1544
12 10 3 -3.4082 9.6509
12 10 4 1.4503 0.4314
12 10 5 9.2028 -7.6780
12 10 6 3.4028 -1.9697
12 10 7 1.9644 -12.6835
12 10 8 3.2816 -3.3528
12 10 9 3.0646 -2.9977
12 10 10 -4.2201 -0.5286
12 10 11 -10.1421 8.3782
12 10 12 5.1916 -2.0172
12 10 13 -3.3221 -1.4132
12 10 14 6.8791 -5.8851
12 10 15 2.4590 0.5752
12 10 16 6.5760 -2.4507
12 10 17 -9.5199 6.1781
12 10 18 3.3094 0.9240
12 10 19 2.2876 19.4454
12 10 20 -2.9127 -14.5770
12 11 0 -0.4274 -0.7834
12 11 1 -3.2321 -2.4429
12 11 2 -1.5469 3.1801
12 11 3 4.0165 4.3679
12 11 4 1.9883 -2.4002
12 11 5 9.4150 10.4388
12 11 6 3.0071 -1.4939
12 11 7 -2.2273 -1.8994
12 11 8 1.1024 -1.1244
12 11 9 -4.9596 -1.7305
12 11 10 -2.2006 -2.4494
12 11 11 2.2376 -1.2172
12 11 12 -0.4067 11.0047
12 11 13 4.9437 8.3806
12 11 14 -6.6722 -5.6873
12 11 15 -7.8199 1.8792
12 12 0 -2.0649 0.4925
12 12 1 -1.1734 -1.3621
12 12 2 -5.3437 2.9218
12 12 3 1.5287 5.3487
12 12 4 -0.8337 1.5449
12 12 5 2.4895 -1.7037
12 12 6 -9.5616 -0.1975
12 12 7 17.7031 -0.2172
12 12 8 -2.6999 0.4277
12 12 9 -2.8146 3.7990
12 12 10 -6.3004 1.6842
12 12 11 1.7174 -0.7274
12 12 12 0.4892 -3.8367
12 13 0 -7.1759 0.0058
12 13 1 -1.9643 -0.7632
12 13 2 0.3168 0.2589
13 0 1 1.0776 0.4412
13 0 2 6.0813 -9.1011
13 0 3 0.8086 -2.1401
13 0 4 0.6261 -6.9200
13 0 5 2.1367 -0.6759
13 0 6 -0.3930 3.3952
13 0 7 4.8659 0.2250
13 0 8 2.1834 -1.9663
13 0 9 -0.2907 0.4233
13 0 10 -5.8481 -1.2822
13 0 11 -7.0518 -15.4569
13 0 12 0.6536 8.3080
13 0 13 -1.7513 -1.7610
13 0 14 3.6520 9.8963
13 0 15 3.7929 1.9918
13 0 16 6.6462 -1.1276
13 0 17 -0.7974 -2.1038
13 0 18 4.1649 -7.2763
13 0 19 -2.7045 1.7542
13 0 20 9.6124 -4.8996
13 0 21 4.4440 -5.7310
13 0 22 -4.3063 -2.1486
13 0 23 6.0898 -0.5673
13 0 24 8.0414 -0.9255
13 0 25 -1.7332 4.1638
13 0 26 -1.7531 1.7390
13 0 27 -4.1789 -2.2679
13 0 28 8.3559 4.2360
13 0 29 0.4869 -2.5916
13 0 30 -0.5478 6.5828
13 1 0 9.4754 6.2209
13 1 1 3.3889 -1.9026
13 1 2 0.1473 3.0517
13 1 3 1.7675 -3.9369
13 1 4 -7.7333 0.7581
13 1 5 0.5713 9.5133
13 1 6 -4.1097 0.6474
13 1 7 -3.7450 -7.0120
13 1 8 4.5148 -7.1123
13 1 9 2.4134 -4.3468
13 1 10 -1.0082 0.8685
13 1 11 -3.9750 0.5535
13 1 12 -4.0978 -0.5555
13 1 13 -7.9899 6.3207
13 1 14 12.8112 0.0538
13 1 15 -5.6732 2.6256
13 1 16 6.0309 -4.9211
13 1 17 0.2136 4.5237
13 1 18 3.7746 4.1868
13 1 19 2.6848 4.1559
13 1 20 0.3629 -2.3305
13 1 21 1.3409 11.8823
13 1 22 -2.5342 0.2849
13 1 23 -2.3038 -0.7392
13 1 24 1.4242 2.1042
13 1 25 2.5143 -5.1839
13 1 26 -4.7438 2.3862
13 1 27 1.9099 8.0132
13 1 28 -9.0322 -1.5889
13 1 29 -7.7896 0.2228
13 1 30 2.9676 -12.1288
13 2 0 2.5232 1.4068
13 2 1 -2.2075 -3.1767
13 2 2 1.4519 -6.9541
13 2 3 -8.6707 2.9808
13 2 4 5.9387 -2.7524
13 2 5 3.1448 -8.0115
13 2 6 7.0850 4.3949
13 2 7 3.5902 2.3332
13 2 8 -6.1626 -1.1333
13 2 9 -3.5203 -2.8650
13 2 10 0.5829 -7.0031
13 2 11 2.4734 4.6807
13 2 12 -1.5400 2.6896
13 2 13 -0.7604 -2.1147
13 2 14 0.0349 2.8411
13 2 15 3.0200 0.4478
13 2 16 -7.6646 -5.3160
13 2 17 1.1842 9.5932
13 2 18 -7.3206 -3.1344
13 2 19 0.1235 -1.6390
13 2 20 -0.7649 -1.5887
13 2 21 -4.2470 1.5025
13 2 22 -1.8201 1.8053
13 2 23 7.8708 3.0801
13 2 24 -7.3320 -2.1236
13 2 25 -7.6572 -0.7186
13 2 26 2.9468 -4.0668
13 2 27 0.7025 -7.2363
13 2 28 5.1466 6.4059
13 2 29 2.8040 -0.6241
13 3 0 2.0698 0.8024
13 3 1 -1.3638 -0.5778
13 3 2 5.8146 -0.8614
13 3 3 -0.1006 10.3587
13 3 4 -7.1799 0.6076
13 3 5 5.4225 1.9654
13 3 6 -5.2480 -12.1187
13 3 7 -0.8470 -0.2858
13 3 8 5.0514 3.5698
13 3 9 -0.9372 2.8705
13 3 10 -3.3865 -3.8003
13 3 11 0.6464 -2.2046
13 3 12 0.8308 0.1020
13 3 13 7.7949 -0.9649
13 3 14 -2.1933 -0.0133
13 3 15 -6.9092 -3.0335
13 3 16 7.9626 -1.8774
13 3 17 -4.6041 -1.5524
13 3 18 -0.5453 4.3363
13 3 19 2.2241 -8.4893
13 3 20 -5.8175 5.0692
13 3 21 -4.1403 -0.4163
13 3 22 0.6985 -5.1027
13 3 23 1.1659 0.2739
13 3 24 -0.6810 -0.6746
13 3 25 3.4189 -0.4507
13 3 26 -8.3722 2.4415
13 3 27 -2.8557 0.2182
13 3 28 -3.0447 -7.0572
13 3 29 -4.0316 4.6556
13 4 0 -0.8761 0.5309
13 4 1 -6.7612 -2.5590
13 4 2 -0.1122 1.1429
13 4 3 2.5356 -0.6906
13 4 4 3.0899 -12.3117
13 4 5 3.6130 1.1955
13 4 6 -6.9727 11.0222
13 4 7 0.7745 -10.5544
13 4 8 1.2238 4.6281
13 4 9 8.2725 1.7892
13 4 10 3.0752 3.0509
13 4 11 -1.4157 3.2867
13 4 12 -6.1643 -2.6153
13 4 13 8.2139 0.4349
13 4 14 1.4972 -0.7604
13 4 15 -2.7750 -4.2097
13 4 16 -0.8671 2.1586
13 4 17 0.7331 0.2617
13 4 18 -0.7805 -12.6535
13 4 19 -3.9324 4.0174
13 4 20 2.7202 -4.5848
13 4 21 -6.5131 0.3379
13 4 22 3.2679 -0.5718
13 4 23 -2.8195 -2.9871
13 4 24 -0.6408 -6.3159
13 4 25 6.0366 -4.6198
13 4 26 1.0312 0.2988
13 4 27 0.1331 -4.5547
13 4 28 -6.1924 7.8129
13 5 0 2.4019 -6.0187
13 5 1 3.1164 3.5387
13 5 2 7.7923 0.5652
13 5 3 -6.5171 2.3374
13 5 4 2.8136 -7.0729
13 5 5 1.2371 -0.6400
13 5 6 -9.0505 5.8163
13 5 7 0.6980 8.4301
13 5 8 6.0046 1.0284
13 5 9 -9.3725 -5.0032
13 5 10 6.3695 1.3539
13 5 11 1.6907 3.9549
13 5 12 0.7739 1.6006
13 5 13 1.9554 -3.0966
13 5 14 -1.8267 4.6966
13 5 15 8.0558 -10.0067
13 5 16 2.2550 0.2151
13 5 17 2.1276 -3.0302
13 5 18 3.7911 -4.4353
13 5 19 -3.1579 -6.6854
13 5 20 -0.2620 -4.0568
13 5 21 9.3044 0.6849
13 5 22 2.9049 -5.5349
13 5 23 5.9090 2.7156
13 5 24 -0.7390 -3.2051
13 5 25 -1.1948 0.0536
13 5 26 0.3269 -6.6735
13 5 27 1.0118 -1.8106
13 6 0 3.5915 3.6979
13 6 1 -1.0744 -0.5378
13 6 2 -0.2223 -0.6513
13 6 3 3.0378 -0.1347
13 6 4 -4.9167 -7.1005
13 6 5 -3.6054 12.1096
13 6 6 -3.4831 -4.0848
13 6 7 1.7789 -1.1175
13 6 8 -0.1862 9.6551
13 6 9 -0.9016 0.4917
13 6 10 -4.9129 -0.6346
13 6 11 -0.4468 5.5417
13 6 12 6.9882 0.2775
13 6 13 4.3229 3.1050
13 6 14 0.1515 5.4505
13 6 15 -0.3800 -0.3397
13 6 16 17.1783 -0.3804
13 6 17 -0.4825 -4.8572
13 6 18 6.6590 5.3546
13 6 19 6.6206 4.7434
13 6 20 9.1689 3.0676
13 6 21 2.4663 9.8720
13 6 22 4.8093 -4.7257
13 6 23 11.5413 1.6837
13 6 24 3.1625 0.5316
13 6 25 1.3200 4.3523
13 6 26 -3.6062 4.2954
13 7 0 -0.1123 -4.1834
13 7 1 -2.7467 5.9025
13 7 2 -2.2245 -6.6321
13 7 3 -4.0798 -5.0772
13 7 4 -0.7226 -3.0472
13 7 5 -1.1146 0.5415
13 7 6 -10.7573 -2.2302
13 7 7 5.5369 -3.4814
13 7 8 -9.8269 -0.4913
13 7 9 -5.9088 4.4732
13 7 10 4.1332 2.8165
13 7 11 -7.5164 1.5950
13 7 12 0.4710 -1.9717
13 7 13 2.6905 9.8178
13 7 14 3.7945 3.0203
13 7 15 -1.3532 5.2897
13 7 16 1.5262 7.3988
13 7 17 -6.3463 14.9211
13 7 18 -6.1577 -4.2187
13 7 19 -2.6872 13.4316
13 7 20 0.3752 12.1369
13 7 21 -1.1595 8.3322
13 7 22 -6.1870 3.3774
13 7 23 -1.1964 7.2616
13 7 24 -10.4450 0.4356
13 8 0 -2.1242 -4.1104
13 8 1 11.5078 0.4532
13 8 2 1.1370 -3.1934
13 8 3 8.2758 -1.8088
13 8 4 1.6524 -2.4322
13 8 5 -1.0352 -4.8688
13 8 6 -0.1234 -8.8798
13 8 7 3.1492 -4.2169
13 8 8 -5.5037 4.3581
13 8 9 0.9486 -9.7916
13 8 10 0.2150 5.8340
13 8 11 -0.8977 5.7971
13 8 12 -8.6824 -3.9697
13 8 13 -1.1771 8.8434
13 8 14 -14.2438 -5.9159
13 8 15 10.0392 -3.6786
13 8 16 -9.6586 -2.8404
13 8 17 -8.1945 3.6519
13 8 18 -7.4879 -6.9005
13 8 19 0.8154 -1.7113
13 8 20 -19.0388 -3.5372
13 8 21 -0.6232 -6.7297
13 8 22 8.5513 -0.3946
13 9 0 4.2490 18.1888
13 9 1 -0.2939 -6.3043
13 9 2 4.3497 12.5093
13 9 3 7.7197 -6.8452
13 9 4 3.1830 9.1100
13 9 5 2.4816 -0.2147
13 9 6 3.1055 -2.3025
13 9 7 1.0534 9.3688
13 9 8 -1.1062 -0.8287
13 9 9 -0.9789 -7.7015
13 9 10 1.5061 0.3015
13 9 11 -11.1727 -5.1299
13 9 12 7.8290 2.3798
13 9 13 4.5410 2.7331
13 9 14 -8.4241 3.7090
13 9 15 9.0259 -6.8974
13 9 16 -1.2188 12.6441
13 9 17 4.9824 -22.3772
13 10 0 1.5232 9.7271
13 10 1 -7.9209 2.5935
13 10 2 6.1282 3.0578
13 10 3 -14.3918 3.6862
13 10 4 3.9798 0.6538
13 10 5 -13.9884 3.9881
13 10 6 6.9912 8.2797
13 10 7 1.8391 1.5086
13 10 8 -3.2949 -8.1528
13 10 9 10.2127 -0.1789
13 10 10 -9.3694 1.8000
13 10 11 -8.5183 1.0467
13 10 12 -3.0178 -1.6479
13 10 13 -5.7996 12.2664
13 11 0 0.6181 -0.7862
13 11 1 -7.3037 -2.4136
13 11 2 -2.1458 -7.1959
13 11 3 -12.4440 -3.1747
13 11 4 -6.3498 -7.0019
13 11 5 -2.1055 10.0065
13 11 6 1.9975 -1.0148
13 11 7 1.6533 7.8022
13 11 8 2.7733 -9.7903
13 11 9 -4.1457 -5.0600
13 11 10 -12.9333 0.5666
13 11 11 0.7496 -10.6628
14 0 0 2.4207 -0.4187
14 0 1 7.2647 2.3817
14 0 2 -4.7123 1.0607
14 0 3 -4.8913 6.7852
14 0 4 -2.3782 0.5688
14 0 5 -5.6914 -7.6788
14 0 6 -2.8521 -4.9476
14 0 7 -2.8583 -9.9126
14 0 8 5.9162 -3.3123
14 0 9 -1.2490 6.6298
14 0 10 0.7565 1.4832
14 0 11 -6.2086 -2.1739
14 0 12 8.4184 -2.9751
14 0 13 -2.7479 -9.6610
14 0 14 -3.9659 -3.2934
14 0 15 8.4621 -3.6282
14 0 16 -8.2563 4.6918
14 0 17 9.5871 -1.9154
14 0 18 12.6367 4.7135
14 0 19 -0.5765 -9.5559
14 0 20 -1.8528 -3.0405
14 0 21 -5.3590 2.2890
14 0 22 -1.3289 -2.8219
14 0 23 -2.1000 -6.3725
14 0 24 -0.0368 4.4096
14 0 25 -0.2422 5.3741
14 0 26 -0.8028 0.3311
14 1 0 1.1379 -3.2698
14 1 1 -1.0031 -8.8893
14 1 2 0.7427 -2.6952
14 1 3 11.1535 -10.6648
14 1 4 6.8718 0.0141
14 1 5 9.4521 -2.9843
14 1 6 -3.6265 -0.6739
14 1 7 -8.2655 3.7174
14 1 8 2.6001 -5.2720
14 1 9 -0.0008 1.6321
14 1 10 2.7784 -1.7721
14 1 11 5.7576 6.4132
14 1 12 1.0697 -4.3799
14 1 13 2.7204 4.2122
14 1 14 -0.0189 -8.0578
14 1 15 -4.2559 15.4204
14 1 16 3.8326 4.4657
14 1 17 8.1976 -8.1576
14 1 18 1.1634 4.5611
14 1 19 -3.1315 -8.9636
14 1 20 2.9086 -4.8566
14 1 21 -5.5721 4.8780
14 1 22 -4.4127 -0.9898
14 1 23 -4.8486 -0.6738
14 1 24 1.2869 -0.1716
14 1 25 -0.0306 -3.6695
14 1 26 9.2799 2.9558
14 2 0 -0.1564 5.8982
14 2 1 3.0162 11.2162
14 2 2 3.9850 5.2041
14 2 3 -0.1761 5.0448
14 2 4 -0.7440 -3.5041
14 2 5 -4.7981 -8.7582
14 2 6 10.5947 4.8327
14 2 7 -2.9576 0.4900
14 2 8 -5.9525 3.4742
14 2 9 1.3229 -2.4288
14 2 10 -2.0748 -5.0872
14 2 11 6.7509 3.5009
14 2 12 -3.6122 1.2026
14 2 13 0.7722 -4.3073
14 2 14 -4.7194 4.3944
14 2 15 7.5646 1.5334
14 2 16 -4.0025 1.6642
14 2 17 16.5351 -2.0295
14 2 18 -6.0703 -6.5018
14 2 19 -3.7808 -11.1277
14 2 20 6.2876 1.1989
14 2 21 -1.9520 -5.7014
14 2 22 -0.3452 -1.6709
14 2 23 1.6902 5.5956
14 2 24 -3.3149 4.5241
14 2 25 -5.3116 1.2895
14 2 26 -1.5925 -8.3184
14 3 0 -11.8187 2.5751
14 3 1 0.6318 -7.6407
14 3 2 4.2673 4.2340
14 3 3 5.2842 0.2796
14 3 4 -7.3588 0.3927
14 3 5 -3.5410 -1.5770
14 3 6 -0.1741 -2.7383
14 3 7 7.2400 2.3149
14 3 8 7.2829 -5.2046
14 3 9 -5.9241 10.6705
14 3 10 0.6877 5.0135
14 3 11 -1.0156 -4.8612
14 3 12 0.9455 2.2163
14 3 13 1.6970 2.5269
14 3 14 0.4589 8.5118
14 3 15 0.3080 0.1892
14 3 16 14.1678 0.9185
14 3 17 3.8986 -4.3002
14 3 18 2.5900 8.5496
14 3 19 1.2779 -8.0958
14 3 20 0.2141 10.0695
14 3 21 -7.4548 -6.0374
14 3 22 3.8147 -4.1002
14 3 23 -4.2321 -3.1403
14 3 24 8.5717 -3.1476
14 3 25 4.5316 -0.7237
14 4 0 -1.4908 6.4018
14 4 1 -1.0571 -4.8611
14 4 2 5.4689 1.8460
14 4 3 -7.2636 -8.7848
14 4 4 7.6775 0.6594
14 4 5 1.2623 7.0654
14 4 6 -5.3544 4.6408
14 4 7 -10.6843 -4.8247
14 4 8 -1.3271 -3.2313
14 4 9 6.0756 -5.3046
14 4 10 -6.2160 5.8608
14 4 11 0.4982 4.7003
14 4 12 -3.1676 -6.2856
14 4 13 -4.8733 4.4006
14 4 14 1.9577 7.6121
14 4 15 1.7347 6.1244
14 4 16 -3.8550 -2.4779
14 4 17 -5.6688 2.5359
14 4 18 -0.2009 -6.2154
14 4 19 -0.0667 2.6945
14 4 20 8.6334 -1.7923
14 4 21 -2.1935 1.1421
14 4 22 7.3304 2.9150
14 4 23 -7.3615 5.6372
14 4 24 6.6275 -6.6754
14 5 0 3.8655 -2.0433
14 5 1 5.0518 3.0871
14 5 2 2.1555 5.9581
14 5 3 -10.8813 -4.3028
14 5 4 3.3230 -10.1567
14 5 5 3.5092 -0.4675
14 5 6 7.5022 -2.9978
14 5 7 3.6935 3.5848
14 5 8 -6.2661 3.3924
14 5 9 1.8244 4.5362
14 5 10 7.4111 -5.3317
14 5 11 -5.6892 -3.9480
14 5 12 0.3536 6.2029
14 5 13 -3.0394 -5.2377
14 5 14 -2.5606 -5.9977
14 5 15 4.3831 -2.1811
14 5 16 0.4404 -4.2988
14 5 17 2.5635 -1.7161
14 5 18 -8.2201 8.7042
14 5 19 3.8477 0.5768
14 5 20 -4.3531 -3.3735
14 5 21 1.5183 1.4347
14 5 22 -1.5006 1.6747
14 5 23 4.7400 6.3119
14 6 0 -1.7526 -0.7623
14 6 1 10.1067 -4.3126
14 6 2 4.6305 0.1996
14 6 3 1.6920 2.1869
14 6 4 5.5238 6.8404
14 6 5 -12.0915 5.5425
14 6 6 -7.9832 -3.1499
14 6 7 -1.7444 1.1216
14 6 8 2.7796 4.9516
14 6 9 -0.7387 1.2896
14 6 10 -0.7244 3.5059
14 6 11 7.8146 -6.1353
14 6 12 0.1607 0.3208
14 6 13 5.4329 9.4846
14 6 14 6.6694 -1.9631
14 6 15 -6.1892 -4.7225
14 6 16 -0.7693 -3.7010
14 6 17 6.9708 -0.9123
14 6 18 -1.6472 1.4380
14 6 19 -2.5492 -8.7655
14 6 20 2.4493 11.1573
14 6 21 -8.9078 -2.6742
14 6 22 -5.8695 0.5655
14 7 0 8.3373 -0.9726
14 7 1 -7.9684 12.8863
14 7 2 -1.3655 -4.8720
14 7 3 -5.6732 -12.3274
14 7 4 6.7218 -4.6563
14 7 5 -1.0264 3.6166
14 7 6 -2.9118 -5.9019
14 7 7 -0.7431 7.4135
14 7 8 0.0579 -1.7121
14 7 9 -1.7697 3.1383
14 7 10 -5.2120 -0.6487
14 7 11 -6.0027 5.6547
14 7 12 5.0900 1.1257
14 7 13 1.6293 -4.8607
14 7 14 4.6884 11.1505
14 7 15 3.4579 -0.2564
14 7 16 2.3099 0.2082
14 7 17 -4.0416 5.1714
14 7 18 -1.6079 -5.3340
14 7 20 7.8479 5.3638
14 8 0 6.9625 -1.5363
14 8 1 12.7790 2.6135
14 8 2 -13.8474 -0.9772
14 8 3 10.0617 11.2291
14 8 4 -10.6480 -2.1697
14 8 5 -3.2805 4.4088
14 8 6 3.4932 -6.4816
14 8 7 7.3102 -2.2875
14 8 8 -6.7983 -2.1598
14 8 9 3.2868 -8.3814
14 8 10 -3.2607 3.7045
14 8 11 -1.6817 3.8761
14 8 12 -5.3171 6.2979
14 8 13 -2.1174 0.1525
14 8 14 -2.9943 -6.0940
14 8 15 -2.4762 0.4958
14 9 0 -11.3583 -1.9886
14 9 1 -0.8946 -4.2935
14 9 2 -7.0905 -8.6448
14 9 3 4.0659 -6.5505
14 9 4 -4.5457 22.6158
14 9 5 4.9608 -10.3669
14 9 6 3.0333 10.6501
14 9 7 5.1554 -4.0217
14 9 8 -5.6466 -4.2031
14 9 9 -3.0917 -3.7160
14 9 10 4.5819 2.9371
14 9 11 -3.5179 -4.6673
14 10 0 8.6758 -1.0228
14 10 1 -11.8927 -2.5380
14 10 2 -1.7715 -0.4881
14 10 3 -7.1846 -3.7774
14 10 4 0.1398 5.9951
14 10 5 -1.2617 -6.1305
14 10 6 15.3679 5.2940
15 0 1 5.3134 3.7003
15 0 2 4.6851 0.8331
15 0 3 7.8166 -2.8103
15 0 4 6.0050 -8.0595
15 0 5 -2.1888 1.2412
15 0 6 -1.4660 -5.3665
15 0 7 -3.2539 -8.2830
15 0 8 -8.4733 2.3597
15 0 9 4.3644 2.2850
15 0 10 -7.2612 3.7270
15 0 11 0.3820 -1.9108
15 0 12 6.7800 2.4889
15 0 13 -7.3560 0.8719
15 0 14 9.0474 4.9726
15 0 15 -3.8731 4.5612
15 0 16 -1.2436 2.6381
15 0 17 4.0564 -1.8639
15 0 18 -4.4671 -4.5625
15 0 19 5.7950 14.5267
15 0 20 9.2318 -6.3857
15 0 21 0.4320 -3.5936
15 0 22 -4.8735 -0.9460
15 1 0 0.3669 6.1772
15 1 1 -0.8331 7.8660
15 1 2 9.2923 1.9633
15 1 3 1.0436 -5.0543
15 1 4 2.8534 -0.1881
15 1 5 2.3262 -3.3075
15 1 6 -5.8166 -6.7278
15 1 7 1.5744 -3.3863
15 1 8 -6.6296 -9.7888
15 1 9 -0.2788 -2.0039
15 1 10 6.3952 2.9430
15 1 11 -0.8403 -5.2991
15 1 12 -6.6505 1.8249
15 1 13 -5.3406 -2.4337
15 1 14 4.4124 -5.3196
15 1 15 2.8236 6.6792
15 1 16 0.8609 -13.0963
15 1 17 0.4058 8.5247
15 1 18 9.3507 2.5495
15 1 19 3.5411 -4.1834
15 1 20 -3.7466 -1.5482
15 1 21 9.2659 0.9390
15 1 22 -16.3757 -5.6550
15 2 0 -0.3715 2.5609
15 2 1 2.8172 0.8326
15 2 2 0.2116 -6.0292
15 2 3 2.9293 5.7320
15 2 4 1.1938 -9.4839
15 2 5 6.4804 -2.5520
15 2 6 12.1563 -2.6870
15 2 7 1.4250 4.6352
15 2 8 -2.3384 9.5909
15 2 9 2.5206 -8.2833
15 2 10 0.6443 -0.4623
15 2 11 6.5739 -2.8467
15 2 12 0.7354 1.3063
15 2 13 -0.1436 4.8969
15 2 14 7.7561 6.2490
15 2 15 -0.8866 5.9973
15 2 16 -1.7846 2.3747
15 2 17 5.8267 6.7066
15 2 18 -7.7362 2.8647
15 2 19 9.1959 -1.2591
15 2 20 -4.4953 -13.9660
15 2 21 -7.9047 -3.1864
15 2 22 -3.5318 -0.1721
15 3 0 -3.6668 1.1394
15 3 1 8.8038 -5.0441
15 3 2 2.8594 2.2616
15 3 3 2.9917 5.9072
15 3 4 -6.1488 9.5786
15 3 5 0.7685 -4.4391
15 3 6 -9.3168 -1.2219
15 3 7 4.1115 -2.1485
15 3 8 3.7392 1.4270
15 3 9 5.4625 7.8275
15 3 10 -0.4638 -2.8180
15 3 11 -11.2954 0.3386
15 3 12 0.5830 3.0163
15 3 13 -3.3711 1.1928
15 3 14 -5.7651 2.5354
15 3 15 -4.8941 -1.4703
15 3 16 -2.1015 -4.3409
15 3 17 4.3295 4.8585
15 3 18 4.0868 -5.6851
15 3 19 5.3862 -9.6829
15 3 20 2.1673 -0.7055
15 3 21 5.4144 -6.1791
15 4 0 -3.2497 0.5211
15 4 1 -2.7391 -5.7243
15 4 2 -1.6992 3.6218
15 4 3 -0.9879 -9.2019
15 4 4 9.2735 -3.2803
15 4 5 2.2120 3.2986
15 4 6 1.0890 10.7087
15 4 7 -9.4501 1.2243
15 4 8 5.3068 -0.5426
15 4 9 3.7712 -3.8991
15 4 10 -1.1279 4.3266
15 4 11 0.1338 -6.0780
15 4 12 -7.2786 -0.7639
15 4 13 8.7991 -3.5933
15 4 14 0.4793 -4.7533
15 4 15 0.8398 1.8623
15 4 16 3.1247 4.6802
15 4 17 6.8448 -1.7883
15 4 18 2.4893 0.8850
15 4 19 2.1490 -0.4817
15 4 20 -4.5163 -0.4733
15 5 0 -1.3021 -8.4019
15 5 1 9.7997 6.4478
15 5 2 -2.6279 7.5741
15 5 3 -8.2269 5.9183
15 5 4 -2.7984 -5.1876
15 5 5 -4.2316 -2.9434
15 5 6 -0.2295 0.4937
15 5 7 -0.3724 6.6421
15 5 8 -0.4373 -3.0802
15 5 9 -0.4882 0.8283
15 5 10 1.0910 -2.5157
15 5 11 4.7267 5.3573
15 5 12 7.5070 4.5862
15 5 13 -9.8606 -2.1328
15 5 14 9.7719 6.9567
15 5 15 -2.8429 -4.9377
15 5 16 4.8266 5.8030
15 5 17 4.2869 -3.2401
15 5 18 1.6094 -0.9582
15 6 0 -2.9296 -7.0557
15 6 1 -2.7730 -9.4756
15 6 2 -2.4536 3.9665
15 6 3 12.2696 -7.4512
15 6 4 -0.2080 4.9137
15 6 5 1.1247 2.6744
15 6 6 -1.3642 -2.7526
15 6 7 -0.6161 -2.8419
15 6 8 2.0733 3.8301
15 6 9 -5.9283 6.1317
15 6 10 -5.8156 0.3389
15 6 11 0.7868 0.2662
15 6 12 2.1359 2.6848
15 6 13 1.9836 3.4452
15 6 14 -4.4088 2.8649
15 6 15 -2.3706 14.2150
15 6 16 7.4077 -17.2031
15 7 0 1.5048 9.7023
15 7 1 0.7444 10.2674
15 7 2 -11.4338 3.8358
15 7 3 -4.3420 0.6882
15 7 4 10.6244 2.3679
15 7 5 -4.7278 -1.7704
15 7 6 -1.3521 0.3845
15 7 7 -2.3176 -5.7753
15 7 8 -2.6312 -3.8994
15 7 9 -1.9919 6.3403
15 7 10 -0.3670 -4.8266
15 7 11 -1.5836 2.1443
15 7 12 -9.1155 -9.6112
15 7 13 4.3990 -0.4625
15 7 14 -0.4946 -2.0283
15 8 0 -3.7741 -15.6244
15 8 1 -6.4780 11.1125
15 8 2 5.7234 0.1111
15 8 3 -0.9005 -1.3389
15 8 4 -2.3296 4.1937
15 8 5 2.3735 -3.1659
15 8 6 -1.5755 -9.0594
15 8 7 4.6221 5.4545
15 8 8 -0.6873 1.9247
15 8 9 8.0571 -4.1848
15 8 10 6.8062 0.4503
16 0 0 2.3419 6.0331
16 0 1 5.0004 10.4780
16 0 2 -10.4634 1.9641
16 0 3 2.9186 4.3190
16 0 4 0.4256 -2.2947
16 0 5 1.4976 2.3405
16 0 6 3.9387 -1.8521
16 0 7 -4.0039 -4.1358
16 0 8 11.0471 -0.8618
16 0 9 -9.1218 -2.4697
16 0 10 -6.1075 -2.9806
16 0 11 -3.4233 7.1396
16 0 12 -2.1495 -3.3702
16 0 13 5.7159 6.6030
16 0 14 11.9308 1.6879
16 0 15 3.2429 -5.2508
16 0 16 5.1609 6.6485
16 0 17 -1.7111 -1.0947
16 1 0 -3.7658 0.8658
16 1 1 1.6798 -5.5940
16 1 2 -2.7707 1.3003
16 1 3 4.1215 -2.9062
16 1 4 2.8542 7.4235
16 1 5 2.6890 -4.6504
16 1 6 -0.7095 2.2312
16 1 7 2.1490 1.6302
16 1 8 -5.0242 -8.5802
16 1 9 -1.3809 -0.9517
16 1 10 -1.6255 -7.9996
16 1 11 -3.7202 15.2334
16 1 12 -1.5260 7.9708
16 1 13 6.0923 1.5498
16 1 14 -9.6524 1.3821
16 1 15 1.7009 4.8232
16 1 16 -4.7174 1.8448
16 1 17 -2.2066 -0.0420
16 2 0 2.4367 2.6214
16 2 1 -4.2488 3.1948
16 2 2 4.4637 0.8903
16 2 3 -0.4065 1.4337
16 2 4 -3.8081 -1.2248
16 2 5 -4.5958 -5.4330
16 2 6 8.5688 -4.5062
16 2 7 -0.1514 0.7491
16 2 8 -0.4912 -2.5817
16 2 9 -7.4745 -8.6059
16 2 10 -4.9415 3.9026
16 2 11 1.5691 -4.8247
16 2 12 -4.5255 -0.2879
16 2 13 5.2052 -4.8898
16 2 14 -1.2129 -0.8066
16 2 15 -2.2475 -2.5173
16 2 16 0.6589 9.9401
16 3 0 -4.0627 -4.1592
16 3 1 1.0330 1.1912
16 3 2 2.2080 -4.7294
16 3 3 9.6298 -1.5141
16 3 4 -3.0058 -2.6926
16 3 5 3.2453 -0.3548
16 3 6 2.6454 -1.3428
16 3 7 5.5998 -4.3325
16 3 8 1.9953 -4.7172
16 3 9 2.7457 3.6419
16 3 10 1.0321 0.4181
16 3 11 -2.2714 4.6501
16 3 12 10.0917 -5.6706
16 3 13 -7.7522 1.9676
16 3 14 0.6417 5.7740
16 3 15 -4.1128 3.3287
16 4 0 3.8504 -1.2588
16 4 1 5.5792 2.3117
16 4 2 1.4345 3.9426
16 4 3 1.3564 -3.5222
16 4 4 4.3974 4.0172
16 4 5 6.2992 -2.2297
16 4 6 0.9694 8.8747
16 4 7 -2.6210 -4.1448
16 4 8 0.5368 -1.8836
16 4 9 2.2657 1.8099
16 4 10 3.0984 5.4660
16 4 11 -1.1702 0.3205
16 4 12 -5.3294 -4.1333
16 4 13 0.3233 0.7914
16 5 0 0.9335 0.0715
16 5 1 6.1468 3.2388
16 5 2 2.9890 5.1757
16 5 3 -3.3522 6.2995
16 5 4 3.1344 0.6333
16 5 5 0.5163 2.6234
16 5 6 6.5278 2.6968
16 5 7 -7.4277 4.4989
16 5 8 -1.3943 3.8293
16 5 9 -3.1943 0.5474
16 5 10 2.0067 -2.5463
16 5 11 5.3314 -1.2670
16 6 0 -9.1726 0.0875
16 6 1 -2.2271 7.8700
16 6 2 -2.5195 -1.8399
16 6 3 -5.3467 2.5484
16 6 4 -2.2675 0.4361
16 6 5 -3.0197 1.8849
16 6 6 -6.7342 -6.2769
16 6 7 1.6665 -0.4168
16 6 8 3.2092 0.0700
17 0 1 -1.2873 2.1517
17 0 2 1.6585 0.9903
17 0 3 2.3829 -6.0567
17 0 4 5.2144 -3.5335
17 0 5 8.5857 3.3197
17 0 6 -0.9335 -7.5787
17 0 7 3.0793 -12.0527
17 1 0 1.2733 7.6323
17 1 1 1.3344 1.7427
17 1 2 6.4491 7.8803
17 1 3 0.3263 1.5617
17 1 4 5.3691 2.9623
17 1 5 4.1861 -3.8063
17 1 6 7.8721 -1.9998
17 1 7 7.5803 -4.4140
17 2 0 -0.0082 6.7288
17 2 1 -8.1577 -1.6507
17 2 2 8.7072 -0.6514
17 2 3 0.9939 10.3136
17 2 4 8.0720 0.5881
17 2 5 0.5659 3.1966
17 2 6 6.0813 -4.2994
17 3 0 1.8315 9.8572
17 3 1 -4.9493 5.4180
0 0 0 0.0 0.0
;
_shelx_fab_checksum              95571
_olex2_submission_special_instructions 'No special instructions were received'
_oxdiff_exptl_absorpt_empirical_details
;
Empirical correction (ABSPACK) includes:
- Absorption correction using spherical harmonics
- Frame scaling
;
_oxdiff_exptl_absorpt_empirical_full_max 4.466
_oxdiff_exptl_absorpt_empirical_full_min 0.646
loop_
_space_group_symop_operation_xyz
'x, y, z'
'-x+1/2, -y, z+1/2'
'-x, y+1/2, -z+1/2'
'x+1/2, -y+1/2, -z'
loop_
_atom_site_label
_atom_site_type_symbol
_atom_site_fract_x
_atom_site_fract_y
_atom_site_fract_z
_atom_site_U_iso_or_equiv
_atom_site_adp_type
_atom_site_occupancy
_atom_site_site_symmetry_order
_atom_site_calc_flag
_atom_site_refinement_flags_posn
_atom_site_refinement_flags_adp
_atom_site_refinement_flags_occupancy
_atom_site_disorder_assembly
_atom_site_disorder_group
W5 W 0.45705(5) 0.22267(5) 0.29672(2) 0.01637(13) Uani 1 1 d . . . . .
W6 W 0.70963(5) 0.23550(5) 0.28694(2) 0.01819(14) Uani 1 1 d . . . . .
W7 W 0.85741(4) 0.36393(5) 0.35627(2) 0.02003(15) Uani 1 1 d . . . . .
W10 W 0.33384(4) 0.33636(5) 0.37634(2) 0.01958(14) Uani 1 1 d . . . . .
W4 W 0.60750(5) 0.09765(5) 0.35655(2) 0.02189(15) Uani 1 1 d . . . . .
W2 W 0.48350(5) 0.21465(6) 0.43679(2) 0.02557(17) Uani 1 1 d . . . . .
W8 W 0.74340(5) 0.47342(6) 0.42896(2) 0.02479(16) Uani 1 1 d . . . . .
W3 W 0.75638(5) 0.22887(6) 0.42601(2) 0.02572(16) Uani 1 1 d . . . . .
W9 W 0.47103(5) 0.45860(6) 0.43952(2) 0.02567(17) Uani 1 1 d . . . . .
Ni15 Ni 0.56893(13) 0.44639(15) 0.27873(5) 0.0152(4) Uani 1 1 d . . . . .
Ni13 Ni 0.45793(14) 0.54426(15) 0.34543(5) 0.0184(4) Uani 1 1 d . . . . .
Ni12 Ni 0.68959(14) 0.55753(16) 0.33884(5) 0.0186(4) Uani 1 1 d . . . . .
Ni16 Ni 0.33812(14) 0.44284(15) 0.28891(5) 0.0178(4) Uani 1 1 d . U . . .
Ni14 Ni 0.79833(15) 0.47915(15) 0.27384(5) 0.0189(4) Uani 1 1 d . . . . .
Ni11 Ni 0.57941(16) 0.66230(18) 0.40128(6) 0.0275(5) Uani 1 1 d . . . . .
Ni7 Ni 0.61382(16) 0.2256(2) 0.53902(6) 0.0305(5) Uani 1 1 d . U . . .
P1 P 0.5939(3) 0.3526(3) 0.36275(10) 0.0125(7) Uani 1 1 d . . . . .
O51 O 0.3784(7) 0.2479(7) 0.3392(3) 0.016(2) Uani 1 1 d . . . . .
O36 O 0.5196(7) 0.1378(9) 0.3947(3) 0.023(3) Uani 1 1 d . . . . .
O34 O 0.5004(8) 0.1044(8) 0.3231(3) 0.020(2) Uani 1 1 d . . . . .
O31 O 0.8067(8) 0.2678(8) 0.3236(3) 0.019(2) Uani 1 1 d . . . . .
O70 O 0.7950(7) 0.4558(8) 0.3300(3) 0.018(2) Uani 1 1 d . . . . .
O40 O 0.5779(8) 0.2006(7) 0.2685(3) 0.017(2) Uani 1 1 d . . . . .
O69 O 0.5810(7) 0.4437(8) 0.3397(3) 0.016(2) Uani 1 1 d . . . . .
O47 O 0.8625(7) 0.2628(8) 0.3946(3) 0.019(2) Uani 1 1 d . U . . .
O43 O 0.8564(8) 0.4464(9) 0.3996(3) 0.023(3) Uani 1 1 d . . . . .
O35 O 0.7095(8) 0.1454(8) 0.3884(3) 0.022(2) Uani 1 1 d . U . . .
O32 O 0.6960(8) 0.1176(8) 0.3166(3) 0.020(2) Uani 1 1 d . . . . .
O67 O 0.6950(8) 0.5568(8) 0.3957(3) 0.022(2) Uani 1 1 d . U . . .
O42 O 0.6910(8) 0.3544(8) 0.3844(3) 0.020(2) Uani 1 1 d . . . . .
O37 O 0.7698(8) 0.3476(9) 0.4509(3) 0.023(3) Uani 1 1 d . . . . .
O68 O 0.4589(7) 0.3463(8) 0.2833(3) 0.0175(19) Uani 1 1 d . U . . .
O61 O 0.6889(7) 0.3581(7) 0.2741(2) 0.014(2) Uani 1 1 d . U . . .
O49 O 0.4830(8) 0.5452(9) 0.4026(3) 0.022(3) Uani 1 1 d . . . . .
O44 O 0.3606(8) 0.2334(8) 0.4125(3) 0.021(2) Uani 1 1 d . . . . .
O38 O 0.6232(8) 0.2221(9) 0.4442(3) 0.025(3) Uani 1 1 d . U . . .
O63 O 0.5078(8) 0.3422(9) 0.3911(3) 0.025(3) Uani 1 1 d . . . . .
O41 O 0.5924(7) 0.2656(8) 0.3366(2) 0.020(2) Uani 1 1 d . . . . .
O48 O 0.6107(8) 0.4530(10) 0.4475(3) 0.027(3) Uani 1 1 d . . . . .
O62 O 0.4547(7) 0.5327(8) 0.2891(3) 0.0171(19) Uani 1 1 d . U . . .
O66 O 0.5687(7) 0.6393(8) 0.3466(3) 0.022(3) Uani 1 1 d . . . . .
O54 O 0.3338(8) 0.6300(8) 0.3462(3) 0.023(2) Uani 1 1 d . . . . .
O65 O 0.3661(8) 0.4308(8) 0.3449(3) 0.021(2) Uani 1 1 d . U . . .
O45 O 0.4667(8) 0.3296(9) 0.4616(3) 0.025(3) Uani 1 1 d . . . . .
O60 O 0.6721(7) 0.5459(8) 0.2839(3) 0.018(2) Uani 1 1 d . . . . .
O29 O 0.7859(8) 0.1939(8) 0.2523(3) 0.024(3) Uani 1 1 d . . . . .
O52 O 0.3688(8) 0.1766(8) 0.2678(3) 0.024(3) Uani 1 1 d . . . . .
O46 O 0.4310(10) 0.5247(10) 0.4768(3) 0.040(4) Uani 1 1 d . . . . .
O64 O 0.3435(8) 0.4164(9) 0.4189(3) 0.027(3) Uani 1 1 d . . . . .
O59 O 0.5616(8) 0.4536(8) 0.2211(3) 0.023(3) Uani 1 1 d . . . . .
H59A H 0.503852 0.485710 0.211835 0.035 Uiso 1 1 d GR . . . .
H59B H 0.551330 0.394175 0.208348 0.035 Uiso 1 1 d GR . . . .
O53 O 0.2420(8) 0.5457(8) 0.3051(3) 0.021(2) Uani 1 1 d . U . . .
O57 O 0.8030(8) 0.6526(8) 0.3367(3) 0.021(2) Uani 1 1 d . U . . .
O27 O 0.8149(8) 0.1535(11) 0.4567(3) 0.035(3) Uani 1 1 d . . . . .
O30 O 0.9798(8) 0.3698(9) 0.3424(3) 0.027(3) Uani 1 1 d . . . . .
O50 O 0.2057(8) 0.3257(8) 0.3719(3) 0.022(2) Uani 1 1 d . U . . .
O28 O 0.6133(8) -0.0215(9) 0.3631(3) 0.029(3) Uani 1 1 d . . . . .
N22 N 0.3136(10) 0.4496(10) 0.2322(4) 0.024(2) Uani 1 1 d D U . . .
H22A H 0.309338 0.509574 0.224940 0.029 Uiso 1 1 calc R . . . .
H22B H 0.363721 0.422533 0.220060 0.029 Uiso 1 1 calc R . . . .
N21 N 0.2198(10) 0.3507(11) 0.2881(4) 0.028(2) Uani 1 1 d . U . . .
H21A H 0.238908 0.295748 0.297807 0.033 Uiso 1 1 calc R . . . .
H21B H 0.171556 0.373735 0.302423 0.033 Uiso 1 1 calc R . . . .
N17 N 0.5996(13) 0.6838(13) 0.4578(4) 0.045(4) Uani 1 1 d . U . . .
H17A H 0.541340 0.689565 0.469191 0.054 Uiso 1 1 calc R . . . .
H17B H 0.632576 0.635623 0.467796 0.054 Uiso 1 1 calc R . . . .
O39 O 0.4468(9) 0.1353(11) 0.4700(3) 0.040(4) Uani 1 1 d . . . . .
O56 O 0.7907(9) 0.5428(11) 0.4635(3) 0.036(3) Uani 1 1 d . U . . .
O58 O 0.8900(8) 0.5949(8) 0.2888(3) 0.023(2) Uani 1 1 d . . . . .
N20 N 0.9196(10) 0.3958(11) 0.2605(4) 0.029(3) Uani 1 1 d . U . . .
H20C H 0.975630 0.426054 0.266027 0.035 Uiso 0.43(2) 1 calc R . P A 2
H20D H 0.917769 0.342248 0.273410 0.035 Uiso 0.43(2) 1 calc R . P A 2
H20A H 0.969519 0.409888 0.275705 0.035 Uiso 0.57(2) 1 calc R . P A 1
H20B H 0.903779 0.335442 0.264097 0.035 Uiso 0.57(2) 1 calc R . P A 1
N18 N 0.6818(11) 0.7690(11) 0.3940(4) 0.034(3) Uani 1 1 d . U . . .
H18A H 0.728480 0.751151 0.377962 0.041 Uiso 1 1 calc R . . . .
H18B H 0.652113 0.820559 0.385134 0.041 Uiso 1 1 calc R . . . .
C72 C 0.9779(11) 0.6587(13) 0.3402(4) 0.024(3) Uani 1 1 d . U . . .
O55 O 0.4481(11) 0.7453(12) 0.4009(4) 0.051(4) Uani 1 1 d . . . . .
H55A H 0.457928 0.799731 0.412321 0.077 Uiso 1 1 d GR . . . .
H55B H 0.400670 0.719005 0.414349 0.077 Uiso 1 1 d GR . . . .
N23 N 0.5316(12) 0.3267(13) 0.5544(4) 0.045(3) Uani 1 1 d D U . . .
H23A H 0.494013 0.345567 0.535440 0.054 Uiso 0.57(2) 1 calc R . P A 1
H23B H 0.491624 0.307333 0.572525 0.054 Uiso 0.57(2) 1 calc R . P A 1
H23C H 0.471606 0.322707 0.544104 0.054 Uiso 0.43(2) 1 calc R . P A 2
H23D H 0.525258 0.327882 0.578968 0.054 Uiso 0.43(2) 1 calc R . P A 2
N24 N 0.7131(11) 0.3169(12) 0.5308(4) 0.039(3) Uani 1 1 d D U . . .
H24A H 0.766519 0.302149 0.544192 0.047 Uiso 1 1 calc R . . . .
H24B H 0.730411 0.316056 0.506986 0.047 Uiso 1 1 calc R . . . .
N19 N 0.7939(11) 0.5018(12) 0.2174(4) 0.033(4) Uani 1 1 d . . . . .
H19A H 0.736369 0.480741 0.208428 0.040 Uiso 0.57(2) 1 calc R . P A 1
H19B H 0.797401 0.563550 0.212886 0.040 Uiso 0.57(2) 1 calc R . P A 1
H19C H 0.731999 0.510857 0.209432 0.040 Uiso 0.43(2) 1 calc R . P A 2
H19D H 0.831338 0.550852 0.210814 0.040 Uiso 0.43(2) 1 calc R . P A 2
N26 N 0.6981(11) 0.1238(12) 0.5249(4) 0.036(3) Uani 1 1 d . U . . .
H26A H 0.731624 0.141650 0.504828 0.044 Uiso 0.51(3) 1 calc R . P B 1
H26B H 0.742369 0.115509 0.543022 0.044 Uiso 0.51(3) 1 calc R . P B 1
H26C H 0.726795 0.134811 0.503101 0.044 Uiso 0.49(3) 1 calc R . P B 2
H26D H 0.745023 0.113719 0.541913 0.044 Uiso 0.49(3) 1 calc R . P B 2
C71 C 0.8817(11) 0.6352(12) 0.3213(4) 0.021(3) Uani 1 1 d . U . . .
C73 C 0.9789(14) 0.7075(14) 0.3729(5) 0.036(4) Uani 1 1 d . U . . .
H73 H 0.918551 0.726923 0.382860 0.043 Uiso 1 1 calc R . . . .
C82 C 0.1806(16) 0.3343(16) 0.2512(5) 0.048(4) Uani 1 1 d D U . . .
H82A H 0.108849 0.340367 0.251735 0.057 Uiso 1 1 calc R . . . .
H82B H 0.196378 0.270218 0.243600 0.057 Uiso 1 1 calc R . . . .
N25 N 0.5146(12) 0.1307(13) 0.5467(4) 0.043(3) Uani 1 1 d . U . . .
H25A H 0.491425 0.134719 0.569845 0.052 Uiso 0.51(3) 1 calc R . P B 1
H25B H 0.464109 0.140193 0.531205 0.052 Uiso 0.51(3) 1 calc R . P B 1
H25C H 0.475414 0.147390 0.565559 0.052 Uiso 0.49(3) 1 calc R . P B 2
H25D H 0.477152 0.125146 0.526485 0.052 Uiso 0.49(3) 1 calc R . P B 2
C84 C 0.1906(17) 0.3936(16) 0.1846(4) 0.044(5) Uani 1 1 d D U . . .
H84A H 0.202787 0.452936 0.172513 0.066 Uiso 1 1 calc GR . . . .
H84B H 0.121145 0.378752 0.183212 0.066 Uiso 1 1 calc GR . . . .
H84C H 0.228322 0.344846 0.172567 0.066 Uiso 1 1 calc GR . . . .
C83 C 0.2209(14) 0.4002(15) 0.2239(4) 0.044(3) Uani 1 1 d D U . . .
H83 H 0.176808 0.452911 0.230225 0.053 Uiso 1 1 calc R . . . .
C79 C 0.6560(19) 0.770(2) 0.4610(6) 0.065(5) Uani 1 1 d D U . . .
H79A H 0.692715 0.767479 0.484128 0.078 Uiso 1 1 calc R . . . .
H79B H 0.609862 0.822005 0.462524 0.078 Uiso 1 1 calc R . . . .
C86A C 0.873(3) 0.455(3) 0.1992(9) 0.043(6) Uani 0.57(2) 1 d . U P A 1
H86A H 0.911832 0.513710 0.197008 0.052 Uiso 0.57(2) 1 calc R . P A 1
C75 C 1.1559(15) 0.6969(14) 0.3788(5) 0.038(4) Uani 1 1 d . U . . .
H75 H 1.214517 0.709085 0.391666 0.045 Uiso 1 1 calc R . . . .
C77 C 1.0691(12) 0.6246(12) 0.3277(4) 0.022(3) Uani 1 1 d . U . . .
H77 H 1.070317 0.587024 0.306477 0.026 Uiso 1 1 calc R . . . .
C74 C 1.0667(14) 0.7301(16) 0.3922(5) 0.043(4) Uani 1 1 d . U . . .
H74 H 1.064367 0.766734 0.413604 0.051 Uiso 1 1 calc R . . . .
C81 C 0.784(2) 0.884(2) 0.4309(8) 0.075(7) Uani 1 1 d . U . . .
H81A H 0.817693 0.891942 0.407629 0.112 Uiso 1 1 calc GR . . . .
H81B H 0.831910 0.883694 0.450714 0.112 Uiso 1 1 calc GR . . . .
H81C H 0.738255 0.935169 0.434560 0.112 Uiso 1 1 calc GR . . . .
C80 C 0.7265(18) 0.789(2) 0.4308(6) 0.065(5) Uani 1 1 d D U . . .
H80 H 0.778166 0.740680 0.433642 0.078 Uiso 1 1 calc R . . . .
C78 C 0.2526(11) 0.6038(11) 0.3308(4) 0.016(3) Uani 1 1 d . U . . .
C76 C 1.1581(13) 0.6443(13) 0.3454(5) 0.029(3) Uani 1 1 d . U . . .
C90A C 0.550(3) 0.510(4) 0.5606(12) 0.059(8) Uani 0.57(2) 1 d D U P A 2
H90A H 0.484573 0.524560 0.551261 0.088 Uiso 0.57(2) 1 calc GR . P A 2
H90B H 0.592579 0.563422 0.556985 0.088 Uiso 0.57(2) 1 calc GR . P A 2
H90C H 0.545483 0.495664 0.586589 0.088 Uiso 0.57(2) 1 calc GR . P A 2
C88 C 0.6798(18) 0.4138(16) 0.5409(6) 0.059(5) Uani 1 1 d D U . . .
H88A H 0.660255 0.448189 0.518812 0.071 Uiso 0.57(2) 1 calc R . P A 1
H88B H 0.733533 0.447965 0.552861 0.071 Uiso 0.57(2) 1 calc R . P A 1
H88C H 0.701153 0.427965 0.566057 0.071 Uiso 0.43(2) 1 calc R . P A 2
H88D H 0.710921 0.459127 0.524414 0.071 Uiso 0.43(2) 1 calc R . P A 2
C89B C 0.592(2) 0.405(3) 0.5674(10) 0.053(6) Uani 0.57(2) 1 d D U P A 1
H89B H 0.617248 0.389242 0.592112 0.064 Uiso 0.57(2) 1 calc R . P A 1
C90B C 0.516(5) 0.481(5) 0.5715(17) 0.057(9) Uani 0.43(2) 1 d . U P A 1
H90D H 0.475590 0.483121 0.549510 0.086 Uiso 0.43(2) 1 calc GR . P A 1
H90E H 0.548269 0.540255 0.575071 0.086 Uiso 0.43(2) 1 calc GR . P A 1
H90F H 0.474538 0.466963 0.592575 0.086 Uiso 0.43(2) 1 calc GR . P A 1
C89A C 0.593(4) 0.422(4) 0.5390(16) 0.056(6) Uani 0.43(2) 1 d . U P A 2
H89A H 0.576057 0.429790 0.512729 0.067 Uiso 0.43(2) 1 calc R . P A 2
C86B C 0.841(4) 0.399(4) 0.2015(13) 0.045(6) Uani 0.43(2) 1 d . U P A 2
H86B H 0.790928 0.352008 0.208280 0.054 Uiso 0.43(2) 1 calc R . P A 2
C85B C 0.916(4) 0.375(4) 0.2194(13) 0.044(6) Uani 0.43(2) 1 d . U P A 2
H85A H 0.973414 0.404234 0.207949 0.053 Uiso 0.43(2) 1 calc R . P A 2
H85B H 0.923858 0.306839 0.216319 0.053 Uiso 0.43(2) 1 calc R . P A 2
C85A C 0.951(3) 0.407(3) 0.2238(10) 0.046(6) Uani 0.57(2) 1 d . U P A 1
H85C H 0.967342 0.346064 0.213401 0.055 Uiso 0.57(2) 1 calc R . P A 1
H85D H 1.011535 0.445221 0.223610 0.055 Uiso 0.57(2) 1 calc R . P A 1
C91A C 0.649(4) 0.024(4) 0.5163(11) 0.057(7) Uani 0.51(3) 1 d D U P B 1
H91A H 0.631690 0.016989 0.490252 0.068 Uiso 0.51(3) 1 calc R . P B 1
H91B H 0.691627 -0.028345 0.523693 0.068 Uiso 0.51(3) 1 calc R . P B 1
C92A C 0.559(3) 0.030(4) 0.5401(11) 0.056(7) Uani 0.51(3) 1 d D U P B 1
H92A H 0.508067 -0.014120 0.532009 0.068 Uiso 0.51(3) 1 calc R . P B 1
C93A C 0.600(3) 0.003(4) 0.5776(9) 0.060(10) Uani 0.51(3) 1 d D U P B 1
H93A H 0.662453 0.034147 0.581581 0.090 Uiso 0.51(3) 1 calc GR . P B 1
H93B H 0.608939 -0.063973 0.578659 0.090 Uiso 0.51(3) 1 calc GR . P B 1
H93C H 0.553822 0.022296 0.596593 0.090 Uiso 0.51(3) 1 calc GR . P B 1
C92B C 0.628(4) 0.042(4) 0.5227(13) 0.056(7) Uani 0.49(3) 1 d D U P B 2
H92B H 0.594639 0.036075 0.498523 0.067 Uiso 0.49(3) 1 calc R . P B 2
C93B C 0.687(3) -0.044(3) 0.5329(13) 0.058(10) Uani 0.49(3) 1 d D U P B 2
H93D H 0.750602 -0.040894 0.520825 0.088 Uiso 0.49(3) 1 calc GR . P B 2
H93E H 0.652388 -0.099451 0.525126 0.088 Uiso 0.49(3) 1 calc GR . P B 2
H93F H 0.696390 -0.045141 0.559320 0.088 Uiso 0.49(3) 1 calc GR . P B 2
C91B C 0.558(3) 0.050(4) 0.5541(13) 0.055(7) Uani 0.49(3) 1 d D U P B 2
H91C H 0.510113 -0.001984 0.554289 0.066 Uiso 0.49(3) 1 calc R . P B 2
H91D H 0.592281 0.051306 0.577760 0.066 Uiso 0.49(3) 1 calc R . P B 2
C87A C 0.878(3) 0.437(3) 0.1615(10) 0.049(8) Uani 0.57(2) 1 d . U P A 1
H87A H 0.938528 0.462460 0.151654 0.074 Uiso 0.57(2) 1 calc GR . P A 1
H87B H 0.822292 0.466423 0.149250 0.074 Uiso 0.57(2) 1 calc GR . P A 1
H87C H 0.875831 0.370241 0.157395 0.074 Uiso 0.57(2) 1 calc GR . P A 1
C87B C 0.831(5) 0.408(5) 0.1532(15) 0.055(9) Uani 0.43(2) 1 d . U P A 2
H87D H 0.859318 0.466759 0.145080 0.083 Uiso 0.43(2) 1 calc GR . P A 2
H87E H 0.761690 0.406405 0.146312 0.083 Uiso 0.43(2) 1 calc GR . P A 2
H87F H 0.864920 0.356440 0.141692 0.083 Uiso 0.43(2) 1 calc GR . P A 2
O1 O 0.5512(11) 0.2755(10) 0.1964(4) 0.042(3) Uani 1 1 d . . . . .
H1A H 0.567645 0.252110 0.175569 0.063 Uiso 1 1 d G . . . .
H1B H 0.575287 0.237477 0.212318 0.063 Uiso 1 1 d G . . . .
loop_
_atom_site_aniso_label
_atom_site_aniso_U_11
_atom_site_aniso_U_22
_atom_site_aniso_U_33
_atom_site_aniso_U_23
_atom_site_aniso_U_13
_atom_site_aniso_U_12
W5 0.0147(3) 0.0153(3) 0.0191(3) -0.0007(2) -0.0011(2) 0.0007(3)
W6 0.0150(3) 0.0182(3) 0.0213(3) 0.0012(3) 0.0021(2) 0.0030(3)
W7 0.0111(3) 0.0277(4) 0.0213(3) 0.0043(3) -0.0013(2) 0.0015(3)
W10 0.0126(3) 0.0267(4) 0.0195(3) -0.0022(3) 0.0004(2) -0.0003(3)
W4 0.0171(3) 0.0228(4) 0.0257(3) 0.0064(3) -0.0011(3) 0.0011(3)
W2 0.0170(3) 0.0405(5) 0.0192(3) 0.0066(3) -0.0001(2) -0.0037(3)
W8 0.0158(3) 0.0400(4) 0.0186(3) -0.0025(3) -0.0030(2) -0.0027(3)
W3 0.0159(3) 0.0399(4) 0.0213(3) 0.0093(3) -0.0034(3) -0.0009(3)
W9 0.0169(3) 0.0414(5) 0.0187(3) -0.0066(3) 0.0022(2) -0.0035(3)
Ni15 0.0110(9) 0.0166(10) 0.0180(9) -0.0001(8) -0.0011(7) 0.0009(8)
Ni13 0.0112(9) 0.0205(11) 0.0234(10) -0.0049(8) 0.0003(8) 0.0010(9)
Ni12 0.0121(9) 0.0225(11) 0.0211(9) -0.0031(8) 0.0001(7) 0.0006(9)
Ni16 0.0123(9) 0.0188(10) 0.0224(9) -0.0025(8) -0.0022(7) 0.0003(8)
Ni14 0.0144(10) 0.0220(11) 0.0204(9) 0.0004(8) 0.0006(8) 0.0011(9)
Ni11 0.0209(11) 0.0337(13) 0.0279(11) -0.0141(10) 0.0019(8) -0.0019(11)
Ni7 0.0175(10) 0.0511(16) 0.0231(10) 0.0051(11) 0.0000(8) 0.0040(12)
P1 0.0099(17) 0.0107(19) 0.0168(17) -0.0001(15) -0.0024(13) 0.0007(15)
O51 0.012(5) 0.012(6) 0.022(5) 0.000(4) -0.002(4) 0.003(4)
O36 0.012(5) 0.030(7) 0.028(5) 0.007(5) 0.002(4) -0.001(5)
O34 0.012(5) 0.028(7) 0.019(5) 0.000(5) 0.000(4) -0.002(5)
O31 0.015(5) 0.022(6) 0.022(5) 0.004(5) 0.000(4) 0.002(5)
O70 0.011(5) 0.024(6) 0.018(5) -0.001(5) 0.000(4) -0.005(5)
O40 0.017(5) 0.012(5) 0.024(5) 0.000(4) -0.004(4) -0.005(5)
O69 0.004(5) 0.023(6) 0.020(5) -0.013(5) -0.001(4) 0.000(5)
O47 0.011(4) 0.025(5) 0.020(4) 0.006(4) -0.004(3) 0.002(4)
O43 0.011(5) 0.036(7) 0.022(5) 0.009(5) 0.000(4) -0.006(5)
O35 0.017(4) 0.027(5) 0.021(4) 0.007(4) -0.004(4) 0.006(4)
O32 0.011(5) 0.018(6) 0.030(6) -0.001(5) 0.001(4) 0.001(5)
O67 0.018(5) 0.031(5) 0.018(4) -0.009(4) 0.001(4) -0.005(4)
O42 0.019(6) 0.024(6) 0.017(5) 0.002(5) -0.006(4) -0.001(5)
O37 0.022(6) 0.030(7) 0.017(5) 0.007(5) 0.001(4) -0.005(6)
O68 0.014(4) 0.017(4) 0.021(4) 0.002(4) -0.001(3) 0.006(4)
O61 0.018(4) 0.007(4) 0.016(4) -0.003(4) 0.005(3) 0.000(4)
O49 0.019(6) 0.032(7) 0.016(5) -0.006(5) 0.008(4) 0.003(5)
O44 0.022(6) 0.023(6) 0.017(5) -0.005(5) -0.002(4) -0.006(5)
O38 0.014(4) 0.038(5) 0.025(4) 0.005(4) -0.005(4) -0.003(4)
O63 0.018(6) 0.037(7) 0.020(5) 0.004(5) -0.001(4) 0.003(6)
O41 0.016(5) 0.035(7) 0.009(5) -0.002(5) 0.007(4) -0.002(5)
O48 0.013(5) 0.050(9) 0.016(5) -0.012(5) 0.004(4) -0.009(6)
O62 0.014(4) 0.017(4) 0.021(4) -0.002(3) -0.004(3) 0.005(3)
O66 0.012(5) 0.030(7) 0.023(5) -0.016(5) 0.001(4) 0.000(5)
O54 0.015(5) 0.020(6) 0.032(6) -0.004(5) -0.001(5) 0.008(5)
O65 0.017(4) 0.020(4) 0.026(4) -0.001(4) 0.001(4) 0.006(4)
O45 0.017(6) 0.037(8) 0.022(5) -0.002(5) 0.001(4) -0.001(6)
O60 0.012(5) 0.015(6) 0.025(5) 0.003(5) -0.002(4) 0.008(5)
O29 0.031(6) 0.015(6) 0.025(6) -0.001(5) 0.001(5) 0.001(5)
O52 0.032(6) 0.022(7) 0.020(5) 0.002(5) -0.007(5) -0.006(5)
O46 0.047(8) 0.052(9) 0.023(6) -0.019(6) 0.003(6) -0.021(7)
O64 0.017(6) 0.041(8) 0.024(6) -0.007(5) 0.000(5) 0.004(6)
O59 0.015(6) 0.024(6) 0.031(6) -0.011(5) -0.007(5) 0.001(5)
O53 0.019(4) 0.017(4) 0.027(4) -0.001(3) -0.001(3) 0.007(3)
O57 0.016(4) 0.021(5) 0.026(4) -0.010(4) 0.003(4) 0.005(4)
O27 0.018(6) 0.055(9) 0.033(6) 0.010(7) -0.008(5) -0.006(7)
O30 0.013(6) 0.039(8) 0.030(6) -0.003(5) 0.009(5) 0.000(5)
O50 0.016(5) 0.017(5) 0.032(5) -0.004(5) -0.002(4) 0.008(5)
O28 0.019(6) 0.024(7) 0.045(7) 0.010(6) -0.001(5) 0.003(5)
N22 0.022(5) 0.020(5) 0.030(5) -0.003(4) -0.006(4) 0.005(4)
N21 0.026(5) 0.026(5) 0.031(4) 0.002(4) -0.006(4) 0.005(4)
N17 0.053(10) 0.057(11) 0.025(8) -0.021(8) 0.007(7) -0.012(8)
O39 0.024(7) 0.064(10) 0.031(6) 0.020(7) 0.009(5) 0.001(7)
O56 0.020(6) 0.056(8) 0.031(6) -0.007(6) -0.007(5) -0.003(6)
O58 0.014(5) 0.027(7) 0.028(6) -0.004(5) 0.000(4) 0.000(5)
N20 0.022(5) 0.033(6) 0.033(6) 0.000(5) 0.006(5) -0.001(5)
N18 0.027(8) 0.023(8) 0.053(7) -0.009(7) 0.006(6) -0.009(7)
C72 0.017(6) 0.027(6) 0.029(6) 0.002(6) -0.001(5) 0.002(6)
O55 0.046(9) 0.059(11) 0.048(8) -0.022(8) 0.005(7) 0.017(8)
N23 0.034(6) 0.065(7) 0.037(6) 0.003(6) -0.002(5) 0.004(6)
N24 0.028(6) 0.060(7) 0.029(5) 0.011(5) -0.008(5) 0.000(6)
N19 0.026(8) 0.044(10) 0.030(8) 0.017(7) 0.002(6) -0.004(8)
N26 0.028(6) 0.056(7) 0.025(5) 0.008(5) -0.005(5) 0.011(6)
C71 0.015(7) 0.021(8) 0.028(7) -0.001(6) -0.005(6) 0.006(7)
C73 0.032(6) 0.038(6) 0.036(5) -0.006(5) -0.003(5) -0.001(5)
C82 0.045(8) 0.058(8) 0.040(6) 0.011(7) -0.008(6) -0.010(7)
N25 0.035(6) 0.061(7) 0.034(5) 0.014(6) -0.004(5) 0.001(6)
C84 0.055(12) 0.051(13) 0.027(7) -0.004(8) -0.004(7) -0.011(10)
C83 0.045(6) 0.048(6) 0.039(5) 0.004(5) -0.007(5) -0.012(5)
C79 0.071(7) 0.062(7) 0.063(7) -0.001(6) -0.003(5) -0.008(6)
C86A 0.043(7) 0.045(7) 0.041(7) -0.001(5) 0.002(5) 0.000(5)
C75 0.035(6) 0.037(6) 0.041(6) -0.009(5) -0.008(5) 0.004(5)
C77 0.022(5) 0.019(5) 0.026(5) 0.001(4) -0.003(4) 0.003(5)
C74 0.038(6) 0.048(6) 0.043(6) -0.012(5) 0.000(5) 0.003(5)
C81 0.078(11) 0.068(10) 0.078(11) -0.013(9) -0.011(9) -0.018(9)
C80 0.069(7) 0.063(7) 0.062(6) -0.002(6) -0.006(5) -0.010(5)
C78 0.012(7) 0.018(8) 0.019(7) -0.004(6) 0.010(6) -0.005(7)
C76 0.027(7) 0.025(7) 0.034(7) -0.001(6) 0.002(6) 0.008(7)
C90A 0.057(12) 0.063(12) 0.055(12) 0.005(10) -0.002(10) -0.001(10)
C88 0.061(7) 0.060(7) 0.055(7) 0.003(5) 0.007(5) -0.002(6)
C89B 0.054(8) 0.055(8) 0.050(8) 0.001(6) 0.002(6) -0.001(6)
C90B 0.058(13) 0.057(13) 0.057(12) -0.003(10) -0.001(10) 0.000(10)
C89A 0.058(8) 0.057(8) 0.053(8) 0.001(6) 0.001(6) 0.000(6)
C86B 0.045(7) 0.046(7) 0.043(7) 0.000(5) 0.001(5) 0.001(5)
C85B 0.044(8) 0.043(8) 0.044(8) -0.001(5) 0.001(5) 0.000(5)
C85A 0.046(6) 0.046(6) 0.045(6) 0.000(3) 0.001(3) 0.000(3)
C91A 0.057(8) 0.056(8) 0.057(8) 0.002(5) -0.001(5) 0.000(5)
C92A 0.057(8) 0.056(8) 0.057(8) 0.000(5) -0.001(5) 0.001(5)
C93A 0.058(13) 0.059(14) 0.063(13) -0.001(11) 0.002(11) -0.003(11)
C92B 0.056(8) 0.055(8) 0.057(8) 0.001(5) -0.001(5) 0.002(5)
C93B 0.057(13) 0.057(13) 0.061(13) 0.001(11) 0.002(11) -0.007(11)
C91B 0.055(8) 0.055(8) 0.056(8) 0.001(5) 0.000(5) -0.001(5)
C87A 0.051(12) 0.057(12) 0.040(11) 0.000(9) -0.004(9) 0.002(10)
C87B 0.055(13) 0.056(13) 0.055(12) 0.001(10) 0.005(10) -0.004(10)
O1 0.050(9) 0.035(8) 0.040(7) 0.004(7) -0.005(7) -0.003(7)
loop_
_atom_type_symbol
_atom_type_description
_atom_type_scat_dispersion_real
_atom_type_scat_dispersion_imag
_atom_type_scat_source
C C 0.0033 0.0016 'International Tables Vol C Tables 4.2.6.8 and 6.1.1.4'
H H 0.0000 0.0000 'International Tables Vol C Tables 4.2.6.8 and 6.1.1.4'
N N 0.0061 0.0033 'International Tables Vol C Tables 4.2.6.8 and 6.1.1.4'
Ni Ni 0.3393 1.1124 'International Tables Vol C Tables 4.2.6.8 and 6.1.1.4'
O O 0.0106 0.0060 'International Tables Vol C Tables 4.2.6.8 and 6.1.1.4'
P P 0.1023 0.0942 'International Tables Vol C Tables 4.2.6.8 and 6.1.1.4'
W W -0.8490 6.8722 'International Tables Vol C Tables 4.2.6.8 and 6.1.1.4'
loop_
_geom_angle_atom_site_label_1
_geom_angle_atom_site_label_2
_geom_angle_atom_site_label_3
_geom_angle
_geom_angle_site_symmetry_3
O51 W5 O34 86.4(4) .
O51 W5 O40 157.0(4) .
O51 W5 O41 83.9(4) .
O34 W5 O41 73.0(4) .
O40 W5 O34 82.6(4) .
O40 W5 O41 73.6(4) .
O68 W5 O51 92.3(4) .
O68 W5 O34 157.5(4) .
O68 W5 O40 90.2(4) .
O68 W5 O41 84.5(4) .
O52 W5 O51 100.1(5) .
O52 W5 O34 99.9(5) .
O52 W5 O40 101.7(5) .
O52 W5 O68 102.4(5) .
O52 W5 O41 171.8(5) .
O31 W6 O40 156.0(4) .
O31 W6 O32 83.8(5) .
O31 W6 O41 83.9(4) .
O40 W6 O32 83.6(4) .
O40 W6 O41 72.8(4) .
O32 W6 O41 72.0(4) .
O61 W6 O31 93.0(5) .
O61 W6 O40 90.9(4) .
O61 W6 O32 157.4(4) .
O61 W6 O41 85.4(4) .
O29 W6 O31 100.1(5) .
O29 W6 O40 102.0(5) .
O29 W6 O32 99.1(5) .
O29 W6 O61 103.5(5) .
O29 W6 O41 169.9(5) .
O31 W7 O47 85.9(4) .
O31 W7 O43 155.6(4) .
O31 W7 O42 83.7(4) .
O70 W7 O31 91.3(5) .
O70 W7 O47 153.3(4) .
O70 W7 O43 89.2(5) .
O70 W7 O42 80.4(4) .
O47 W7 O42 72.9(4) .
O43 W7 O47 82.8(4) .
O43 W7 O42 72.4(4) .
O30 W7 O31 101.3(5) .
O30 W7 O70 104.9(5) .
O30 W7 O47 101.7(5) .
O30 W7 O43 102.1(5) .
O30 W7 O42 172.5(4) .
O51 W10 O44 85.6(4) .
O51 W10 O63 82.7(4) .
O44 W10 O63 72.7(4) .
O65 W10 O51 88.3(4) .
O65 W10 O44 155.6(5) .
O65 W10 O63 83.1(4) .
O65 W10 O64 92.8(5) .
O64 W10 O51 157.0(4) .
O64 W10 O44 84.0(5) .
O64 W10 O63 74.7(4) .
O50 W10 O51 100.8(4) .
O50 W10 O44 100.2(5) .
O50 W10 O63 171.9(4) .
O50 W10 O65 104.2(5) .
O50 W10 O64 101.1(5) .
O36 W4 O35 84.7(4) .
O36 W4 O41 82.7(4) .
O34 W4 O36 88.3(4) .
O34 W4 O35 156.4(5) .
O34 W4 O32 89.3(4) .
O34 W4 O41 72.8(4) .
O35 W4 O41 83.9(4) .
O32 W4 O36 154.0(5) .
O32 W4 O35 87.2(4) .
O32 W4 O41 71.9(4) .
O28 W4 O36 102.9(5) .
O28 W4 O34 100.0(5) .
O28 W4 O35 103.5(5) .
O28 W4 O32 103.0(5) .
O28 W4 O41 170.9(4) .
O36 W2 O63 81.7(4) .
O44 W2 O36 86.3(4) .
O44 W2 O38 157.3(5) .
O44 W2 O63 72.8(4) .
O38 W2 O36 83.8(5) .
O38 W2 O63 85.5(4) .
O45 W2 O36 153.7(5) .
O45 W2 O44 89.6(5) .
O45 W2 O38 90.2(5) .
O45 W2 O63 72.3(4) .
O39 W2 O36 104.5(6) .
O39 W2 O44 99.3(5) .
O39 W2 O38 102.9(5) .
O39 W2 O63 169.9(5) .
O39 W2 O45 101.7(6) .
O43 W8 O42 74.0(4) .
O43 W8 O37 84.1(5) .
O43 W8 O48 155.2(5) .
O67 W8 O43 92.9(5) .
O67 W8 O42 84.8(4) .
O67 W8 O37 156.7(5) .
O67 W8 O48 89.6(5) .
O37 W8 O42 72.1(4) .
O48 W8 O42 81.7(4) .
O48 W8 O37 83.8(5) .
O56 W8 O43 102.9(5) .
O56 W8 O67 104.1(6) .
O56 W8 O42 170.9(5) .
O56 W8 O37 99.1(6) .
O56 W8 O48 100.3(5) .
O47 W3 O35 89.0(5) .
O47 W3 O42 74.0(4) .
O47 W3 O37 89.2(5) .
O47 W3 O38 158.4(4) .
O35 W3 O42 84.1(4) .
O35 W3 O37 155.4(4) .
O35 W3 O38 84.4(5) .
O37 W3 O42 71.9(4) .
O38 W3 O42 84.9(4) .
O38 W3 O37 88.4(5) .
O27 W3 O47 101.3(5) .
O27 W3 O35 102.9(6) .
O27 W3 O42 171.7(5) .
O27 W3 O37 101.5(6) .
O27 W3 O38 100.3(5) .
O49 W9 O63 85.1(4) .
O49 W9 O48 93.0(5) .
O49 W9 O45 156.0(5) .
O49 W9 O64 90.4(5) .
O48 W9 O63 83.1(4) .
O48 W9 O45 86.0(5) .
O48 W9 O64 155.2(5) .
O45 W9 O63 70.9(4) .
O46 W9 O49 103.4(6) .
O46 W9 O63 169.5(5) .
O46 W9 O48 102.3(5) .
O46 W9 O45 100.2(6) .
O46 W9 O64 100.7(5) .
O64 W9 O63 72.7(4) .
O64 W9 O45 81.1(5) .
O68 Ni15 O69 87.8(4) .
O68 Ni15 O59 94.5(4) .
O61 Ni15 O69 90.7(4) .
O61 Ni15 O68 98.9(4) .
O61 Ni15 O59 89.2(4) .
O62 Ni15 O69 83.2(4) .
O62 Ni15 O68 81.5(4) .
O62 Ni15 O61 173.8(4) .
O62 Ni15 O59 96.9(4) .
O60 Ni15 O69 82.4(4) .
O60 Ni15 O68 169.9(4) .
O60 Ni15 O61 83.6(4) .
O60 Ni15 O62 95.0(4) .
O60 Ni15 O59 95.3(4) .
O59 Ni15 O69 177.7(4) .
O69 Ni13 Ni16 91.8(3) .
O49 Ni13 Ni16 140.2(3) .
O49 Ni13 O69 88.6(4) .
O62 Ni13 Ni16 42.8(3) .
O62 Ni13 O69 82.5(4) .
O62 Ni13 O49 170.9(4) .
O62 Ni13 O54 92.5(4) .
O66 Ni13 Ni16 137.9(3) .
O66 Ni13 O69 82.9(4) .
O66 Ni13 O49 81.7(4) .
O66 Ni13 O62 95.2(4) .
O66 Ni13 O54 101.9(5) .
O66 Ni13 O65 169.6(4) .
O54 Ni13 Ni16 81.6(3) .
O54 Ni13 O69 173.4(4) .
O54 Ni13 O49 96.6(4) .
O65 Ni13 Ni16 43.8(3) .
O65 Ni13 O69 86.9(4) .
O65 Ni13 O49 96.5(4) .
O65 Ni13 O62 85.1(4) .
O65 Ni13 O54 88.4(4) .
O70 Ni12 Ni14 43.5(3) .
O70 Ni12 O69 87.0(4) .
O70 Ni12 O67 97.3(4) .
O69 Ni12 Ni14 93.7(3) .
O67 Ni12 Ni14 140.1(3) .
O67 Ni12 O69 90.4(4) .
O66 Ni12 Ni14 136.0(3) .
O66 Ni12 O70 170.1(4) .
O66 Ni12 O69 83.1(4) .
O66 Ni12 O67 83.9(4) .
O66 Ni12 O57 103.4(5) .
O60 Ni12 Ni14 41.3(3) .
O60 Ni12 O70 82.5(4) .
O60 Ni12 O69 82.7(4) .
O60 Ni12 O67 173.1(5) .
O60 Ni12 O66 95.1(4) .
O60 Ni12 O57 96.1(4) .
O57 Ni12 Ni14 81.3(3) .
O57 Ni12 O70 86.5(4) .
O57 Ni12 O69 173.5(4) .
O57 Ni12 O67 90.8(4) .
O68 Ni16 Ni13 87.8(3) .
O62 Ni16 Ni13 43.2(3) .
O62 Ni16 O68 79.1(4) .
O62 Ni16 O65 84.7(4) .
O62 Ni16 O53 92.4(4) .
O62 Ni16 N22 95.6(5) .
O62 Ni16 N21 179.3(5) .
O65 Ni16 Ni13 43.0(3) .
O65 Ni16 O68 84.3(4) .
O65 Ni16 N22 177.5(5) .
O65 Ni16 N21 95.9(5) .
O53 Ni16 Ni13 78.6(3) .
O53 Ni16 O68 166.1(4) .
O53 Ni16 O65 83.9(4) .
O53 Ni16 N22 98.6(5) .
O53 Ni16 N21 88.0(5) .
N22 Ni16 Ni13 137.8(4) .
N22 Ni16 O68 93.3(5) .
N21 Ni16 Ni13 137.4(4) .
N21 Ni16 O68 100.5(5) .
N21 Ni16 N22 83.8(5) .
O70 Ni14 Ni12 43.4(3) .
O70 Ni14 O61 81.9(4) .
O70 Ni14 O58 83.5(4) .
O70 Ni14 N20 98.9(5) .
O70 Ni14 N19 177.1(5) .
O61 Ni14 Ni12 87.6(2) .
O60 Ni14 Ni12 41.9(3) .
O60 Ni14 O70 83.0(4) .
O60 Ni14 O61 78.5(4) .
O60 Ni14 O58 94.8(4) .
O60 Ni14 N20 172.7(6) .
O60 Ni14 N19 94.7(5) .
O58 Ni14 Ni12 78.3(3) .
O58 Ni14 O61 164.5(4) .
N20 Ni14 Ni12 141.5(4) .
N20 Ni14 O61 94.7(5) .
N20 Ni14 O58 92.3(5) .
N19 Ni14 Ni12 134.8(5) .
N19 Ni14 O61 95.9(5) .
N19 Ni14 O58 98.5(5) .
N19 Ni14 N20 83.2(6) .
O49 Ni11 O67 84.4(4) .
O49 Ni11 O55 85.5(6) .
O66 Ni11 O67 81.2(4) .
O66 Ni11 O49 81.3(4) .
O66 Ni11 N17 176.5(6) .
O66 Ni11 N18 92.4(5) .
O66 Ni11 O55 91.4(5) .
N17 Ni11 O67 95.7(6) .
N17 Ni11 O49 100.1(6) .
N17 Ni11 O55 92.0(6) .
N18 Ni11 O67 90.8(5) .
N18 Ni11 O49 172.6(5) .
N18 Ni11 N17 86.0(6) .
N18 Ni11 O55 98.6(7) .
O55 Ni11 O67 168.3(5) .
N23 Ni7 N26 178.4(6) .
N23 Ni7 N25 94.6(8) .
N24 Ni7 N23 86.7(8) .
N24 Ni7 N26 93.2(7) .
N24 Ni7 N25 178.7(8) .
N26 Ni7 N25 85.6(7) .
O69 P1 O63 110.5(6) .
O69 P1 O41 109.5(5) .
O42 P1 O69 111.0(6) .
O42 P1 O63 107.8(6) .
O42 P1 O41 109.6(6) .
O41 P1 O63 108.5(6) .
W5 O51 W10 148.9(6) .
W4 O36 W2 153.4(6) .
W4 O34 W5 124.6(6) .
W6 O31 W7 146.5(6) .
W7 O70 Ni12 138.1(5) .
W7 O70 Ni14 128.3(6) .
Ni12 O70 Ni14 93.2(4) .
W5 O40 W6 122.7(5) .
Ni13 O69 Ni15 91.6(4) .
Ni12 O69 Ni15 91.3(4) .
Ni12 O69 Ni13 91.6(4) .
P1 O69 Ni15 124.0(6) .
P1 O69 Ni13 125.2(6) .
P1 O69 Ni12 123.4(5) .
W3 O47 W7 125.0(5) .
W8 O43 W7 125.1(6) .
W3 O35 W4 152.1(6) .
W4 O32 W6 126.3(6) .
W8 O67 Ni12 132.9(6) .
W8 O67 Ni11 130.4(5) .
Ni12 O67 Ni11 93.7(4) .
W7 O42 W3 88.0(3) .
W8 O42 W7 88.3(3) .
W8 O42 W3 89.7(3) .
P1 O42 W7 124.9(5) .
P1 O42 W8 126.7(6) .
P1 O42 W3 126.9(6) .
W3 O37 W8 125.8(5) .
W5 O68 Ni15 134.0(5) .
W5 O68 Ni16 125.6(5) .
Ni15 O68 Ni16 96.6(5) .
W6 O61 Ni15 133.1(5) .
W6 O61 Ni14 128.7(5) .
Ni15 O61 Ni14 93.0(4) .
W9 O49 Ni13 134.8(6) .
W9 O49 Ni11 127.0(5) .
Ni13 O49 Ni11 94.8(4) .
W2 O44 W10 124.4(6) .
W2 O38 W3 151.9(6) .
W10 O63 W2 89.6(4) .
W10 O63 W9 89.1(4) .
W9 O63 W2 89.5(3) .
P1 O63 W10 125.7(5) .
P1 O63 W2 127.5(7) .
P1 O63 W9 123.8(7) .
W5 O41 W6 90.5(3) .
W5 O41 W4 89.6(4) .
W6 O41 W4 89.5(4) .
P1 O41 W5 125.1(6) .
P1 O41 W6 125.5(6) .
P1 O41 W4 125.5(5) .
W9 O48 W8 148.9(6) .
Ni15 O62 Ni13 102.6(4) .
Ni15 O62 Ni16 102.3(5) .
Ni16 O62 Ni13 94.0(4) .
Ni13 O66 Ni12 102.2(5) .
Ni11 O66 Ni13 100.5(5) .
Ni11 O66 Ni12 99.9(5) .
C78 O54 Ni13 121.0(10) .
W10 O65 Ni13 136.7(6) .
W10 O65 Ni16 129.2(6) .
Ni13 O65 Ni16 93.2(4) .
W2 O45 W9 127.2(5) .
Ni15 O60 Ni12 103.5(5) .
Ni14 O60 Ni15 104.2(5) .
Ni14 O60 Ni12 96.8(4) .
W10 O64 W9 122.9(6) .
Ni15 O59 H59A 114.1 .
Ni15 O59 H59B 115.9 .
H59A O59 H59B 97.6 .
C78 O53 Ni16 127.8(10) .
C71 O57 Ni12 122.2(11) .
Ni16 N22 H22A 110.0 .
Ni16 N22 H22B 110.0 .
H22A N22 H22B 108.4 .
C83 N22 Ni16 108.4(10) .
C83 N22 H22A 110.0 .
C83 N22 H22B 110.0 .
Ni16 N21 H21A 108.9 .
Ni16 N21 H21B 108.9 .
H21A N21 H21B 107.7 .
C82 N21 Ni16 113.2(11) .
C82 N21 H21A 108.9 .
C82 N21 H21B 108.9 .
Ni11 N17 H17A 110.6 .
Ni11 N17 H17B 110.6 .
H17A N17 H17B 108.7 .
C79 N17 Ni11 105.8(13) .
C79 N17 H17A 110.6 .
C79 N17 H17B 110.6 .
C71 O58 Ni14 121.1(10) .
Ni14 N20 H20C 110.0 .
Ni14 N20 H20D 110.0 .
Ni14 N20 H20A 108.9 .
Ni14 N20 H20B 108.9 .
H20C N20 H20D 108.4 .
H20A N20 H20B 107.8 .
C85B N20 Ni14 108(2) .
C85B N20 H20C 110.0 .
C85B N20 H20D 110.0 .
C85A N20 Ni14 113.2(19) .
C85A N20 H20A 108.9 .
C85A N20 H20B 108.9 .
Ni11 N18 H18A 110.3 .
Ni11 N18 H18B 110.3 .
H18A N18 H18B 108.5 .
C80 N18 Ni11 107.3(12) .
C80 N18 H18A 110.3 .
C80 N18 H18B 110.3 .
C73 C72 C71 120.9(15) .
C73 C72 C77 116.5(15) .
C77 C72 C71 122.3(15) .
Ni11 O55 H55A 110.8 .
Ni11 O55 H55B 111.4 .
H55A O55 H55B 102.7 .
Ni7 N23 H23A 109.6 .
Ni7 N23 H23B 109.6 .
Ni7 N23 H23C 111.2 .
Ni7 N23 H23D 111.2 .
H23A N23 H23B 108.1 .
H23C N23 H23D 109.1 .
C89B N23 Ni7 110.2(17) .
C89B N23 H23A 109.6 .
C89B N23 H23B 109.6 .
C89A N23 Ni7 103(2) .
C89A N23 H23C 111.2 .
C89A N23 H23D 111.2 .
Ni7 N24 H24A 109.1 .
Ni7 N24 H24B 109.1 .
H24A N24 H24B 107.9 .
C88 N24 Ni7 112.4(13) .
C88 N24 H24A 109.1 .
C88 N24 H24B 109.1 .
Ni14 N19 H19A 109.4 .
Ni14 N19 H19B 109.4 .
Ni14 N19 H19C 111.6 .
Ni14 N19 H19D 111.6 .
H19A N19 H19B 108.0 .
H19C N19 H19D 109.4 .
C86A N19 Ni14 111.3(17) .
C86A N19 H19A 109.4 .
C86A N19 H19B 109.4 .
C86B N19 Ni14 100.9(18) .
C86B N19 H19C 111.6 .
C86B N19 H19D 111.6 .
Ni7 N26 H26A 107.7 .
Ni7 N26 H26B 107.7 .
Ni7 N26 H26C 111.2 .
Ni7 N26 H26D 111.2 .
H26A N26 H26B 107.1 .
H26C N26 H26D 109.1 .
C91A N26 Ni7 118.5(19) .
C91A N26 H26A 107.7 .
C91A N26 H26B 107.7 .
C92B N26 Ni7 103.0(18) .
C92B N26 H26C 111.2 .
C92B N26 H26D 111.2 .
O57 C71 O58 124.8(14) .
O57 C71 C72 119.7(14) .
O58 C71 C72 115.5(13) .
C72 C73 H73 118.3 .
C72 C73 C74 123.4(18) .
C74 C73 H73 118.3 .
N21 C82 H82A 109.1 .
N21 C82 H82B 109.1 .
N21 C82 C83 112.4(16) .
H82A C82 H82B 107.9 .
C83 C82 H82A 109.1 .
C83 C82 H82B 109.1 .
Ni7 N25 H25A 109.6 .
Ni7 N25 H25B 109.6 .
Ni7 N25 H25C 109.8 .
Ni7 N25 H25D 109.8 .
H25A N25 H25B 108.1 .
H25C N25 H25D 108.2 .
C92A N25 Ni7 110.2(19) .
C92A N25 H25A 109.6 .
C92A N25 H25B 109.6 .
C91B N25 Ni7 110(2) .
C91B N25 H25C 109.8 .
C91B N25 H25D 109.8 .
H84A C84 H84B 109.5 .
H84A C84 H84C 109.5 .
H84B C84 H84C 109.5 .
C83 C84 H84A 109.5 .
C83 C84 H84B 109.5 .
C83 C84 H84C 109.5 .
N22 C83 C84 117.5(15) .
N22 C83 H83 96.0 .
C82 C83 N22 119.0(14) .
C82 C83 C84 120.2(16) .
C82 C83 H83 96.0 .
C84 C83 H83 96.0 .
N17 C79 H79A 108.3 .
N17 C79 H79B 108.3 .
N17 C79 C80 116(2) .
H79A C79 H79B 107.4 .
C80 C79 H79A 108.3 .
C80 C79 H79B 108.3 .
N19 C86A H86A 92.9 .
N19 C86A C85A 117(3) .
C85A C86A H86A 92.9 .
C87A C86A N19 125(3) .
C87A C86A H86A 92.9 .
C87A C86A C85A 117(3) .
C74 C75 H75 120.2 .
C74 C75 C76 119.6(17) .
C76 C75 H75 120.2 .
C72 C77 H77 118.6 .
C76 C77 C72 122.8(15) .
C76 C77 H77 118.6 .
C73 C74 H74 120.6 .
C75 C74 C73 118.8(18) .
C75 C74 H74 120.6 .
H81A C81 H81B 109.5 .
H81A C81 H81C 109.5 .
H81B C81 H81C 109.5 .
C80 C81 H81A 109.5 .
C80 C81 H81B 109.5 .
C80 C81 H81C 109.5 .
N18 C80 C81 112(2) .
N18 C80 H80 104.5 .
C79 C80 N18 111.3(19) .
C79 C80 C81 119(2) .
C79 C80 H80 104.5 .
C81 C80 H80 104.5 .
O54 C78 C76 117.7(13) 1_455
O53 C78 O54 127.6(14) .
O53 C78 C76 114.7(14) 1_455
C75 C76 C78 121.3(15) 1_655
C77 C76 C75 118.7(16) .
C77 C76 C78 119.8(15) 1_655
H90A C90A H90B 109.5 .
H90A C90A H90C 109.5 .
H90B C90A H90C 109.5 .
C89A C90A H90A 109.5 .
C89A C90A H90B 109.5 .
C89A C90A H90C 109.5 .
N24 C88 H88A 110.1 .
N24 C88 H88B 110.1 .
N24 C88 H88C 109.2 .
N24 C88 H88D 109.2 .
N24 C88 C89B 108(2) .
H88A C88 H88B 108.4 .
H88C C88 H88D 107.9 .
C89B C88 H88A 110.1 .
C89B C88 H88B 110.1 .
C89A C88 N24 112(4) .
C89A C88 H88C 109.2 .
C89A C88 H88D 109.2 .
N23 C89B C88 107(2) .
N23 C89B H89B 108.3 .
N23 C89B C90B 101(3) .
C88 C89B H89B 108.3 .
C90B C89B C88 123(4) .
C90B C89B H89B 108.3 .
C89B C90B H90D 109.5 .
C89B C90B H90E 109.5 .
C89B C90B H90F 109.5 .
H90D C90B H90E 109.5 .
H90D C90B H90F 109.5 .
H90E C90B H90F 109.5 .
N23 C89A H89A 107.3 .
C90A C89A N23 107(4) .
C90A C89A H89A 107.3 .
C88 C89A N23 113(5) .
C88 C89A C90A 114(5) .
C88 C89A H89A 107.3 .
N19 C86B H86B 103.9 .
N19 C86B C87B 104(4) .
C85B C86B N19 112(4) .
C85B C86B H86B 103.9 .
C85B C86B C87B 127(5) .
C87B C86B H86B 103.9 .
N20 C85B H85A 107.7 .
N20 C85B H85B 107.7 .
C86B C85B N20 118(4) .
C86B C85B H85A 107.7 .
C86B C85B H85B 107.7 .
H85A C85B H85B 107.1 .
N20 C85A C86A 113(3) .
N20 C85A H85C 109.1 .
N20 C85A H85D 109.1 .
C86A C85A H85C 109.1 .
C86A C85A H85D 109.1 .
H85C C85A H85D 107.8 .
N26 C91A H91A 111.9 .
N26 C91A H91B 111.9 .
H91A C91A H91B 109.6 .
C92A C91A N26 100(4) .
C92A C91A H91A 111.9 .
C92A C91A H91B 111.9 .
N25 C92A H92A 111.0 .
C91A C92A N25 118(4) .
C91A C92A H92A 111.0 .
C91A C92A C93A 102(2) .
C93A C92A N25 104(4) .
C93A C92A H92A 111.0 .
C92A C93A H93A 109.5 .
C92A C93A H93B 109.5 .
C92A C93A H93C 109.5 .
H93A C93A H93B 109.5 .
H93A C93A H93C 109.5 .
H93B C93A H93C 109.5 .
N26 C92B H92B 113.4 .
C93B C92B N26 106(4) .
C93B C92B H92B 113.4 .
C91B C92B N26 108(4) .
C91B C92B H92B 113.4 .
C91B C92B C93B 102(2) .
C92B C93B H93D 109.5 .
C92B C93B H93E 109.5 .
C92B C93B H93F 109.5 .
H93D C93B H93E 109.5 .
H93D C93B H93F 109.5 .
H93E C93B H93F 109.5 .
N25 C91B C92B 101(3) .
N25 C91B H91C 111.6 .
N25 C91B H91D 111.6 .
C92B C91B H91C 111.6 .
C92B C91B H91D 111.6 .
H91C C91B H91D 109.4 .
C86A C87A H87A 109.5 .
C86A C87A H87B 109.5 .
C86A C87A H87C 109.5 .
H87A C87A H87B 109.5 .
H87A C87A H87C 109.5 .
H87B C87A H87C 109.5 .
C86B C87B H87D 109.5 .
C86B C87B H87E 109.5 .
C86B C87B H87F 109.5 .
H87D C87B H87E 109.5 .
H87D C87B H87F 109.5 .
H87E C87B H87F 109.5 .
H1A O1 H1B 104.5 .
loop_
_geom_bond_atom_site_label_1
_geom_bond_atom_site_label_2
_geom_bond_distance
_geom_bond_site_symmetry_2
W5 O51 1.894(10) .
W5 O34 2.011(11) .
W5 O40 1.943(10) .
W5 O68 1.815(11) .
W5 O41 2.397(10) .
W5 O52 1.708(10) .
W6 O31 1.912(10) .
W6 O40 1.956(10) .
W6 O32 1.990(11) .
W6 O61 1.816(10) .
W6 O41 2.422(9) .
W6 O29 1.719(11) .
W7 O31 1.924(11) .
W7 O70 1.814(11) .
W7 O47 1.990(10) .
W7 O43 1.949(11) .
W7 O42 2.460(10) .
W7 O30 1.723(10) .
W10 O51 1.928(10) .
W10 O44 1.988(11) .
W10 O63 2.403(11) .
W10 O65 1.805(11) .
W10 O64 1.911(11) .
W10 O50 1.739(11) .
W4 O36 1.900(10) .
W4 O34 1.881(10) .
W4 O35 1.911(11) .
W4 O32 1.888(10) .
W4 O41 2.492(12) .
W4 O28 1.704(12) .
W2 O36 1.927(11) .
W2 O44 1.889(10) .
W2 O38 1.902(10) .
W2 O63 2.463(12) .
W2 O45 1.869(12) .
W2 O39 1.713(12) .
W8 O43 1.891(10) .
W8 O67 1.804(11) .
W8 O42 2.432(11) .
W8 O37 1.981(12) .
W8 O48 1.929(10) .
W8 O56 1.707(12) .
W3 O47 1.884(10) .
W3 O35 1.906(11) .
W3 O42 2.485(10) .
W3 O37 1.913(12) .
W3 O38 1.910(11) .
W3 O27 1.725(12) .
W9 O49 1.816(11) .
W9 O63 2.448(12) .
W9 O48 1.903(11) .
W9 O45 1.992(12) .
W9 O46 1.722(12) .
W9 O64 1.963(11) .
Ni15 O69 2.201(10) .
Ni15 O68 2.056(11) .
Ni15 O61 2.049(10) .
Ni15 O62 1.998(10) .
Ni15 O60 1.986(11) .
Ni15 O59 2.080(11) .
Ni13 Ni16 2.967(3) .
Ni13 O69 2.193(10) .
Ni13 O49 2.085(10) .
Ni13 O62 2.036(10) .
Ni13 O66 2.008(11) .
Ni13 O54 2.064(11) .
Ni13 O65 2.027(11) .
Ni12 Ni14 2.975(3) .
Ni12 O70 2.046(11) .
Ni12 O69 2.175(10) .
Ni12 O67 2.047(10) .
Ni12 O66 2.016(11) .
Ni12 O60 2.000(10) .
Ni12 O57 2.036(11) .
Ni16 O68 2.133(10) .
Ni16 O62 2.020(11) .
Ni16 O65 2.058(10) .
Ni16 O53 2.033(11) .
Ni16 N22 2.072(13) .
Ni16 N21 2.058(14) .
Ni14 O70 2.050(10) .
Ni14 O61 2.259(10) .
Ni14 O60 1.977(10) .
Ni14 O58 2.120(11) .
Ni14 N20 2.070(14) .
Ni14 N19 2.059(13) .
Ni11 O67 2.165(12) .
Ni11 O49 2.105(12) .
Ni11 O66 2.002(10) .
Ni11 N17 2.074(14) .
Ni11 N18 2.061(15) .
Ni11 O55 2.122(14) .
Ni7 N23 1.891(18) .
Ni7 N24 1.882(16) .
Ni7 N26 1.903(16) .
Ni7 N25 1.914(18) .
P1 O69 1.544(12) .
P1 O42 1.522(10) .
P1 O63 1.552(11) .
P1 O41 1.550(11) .
O54 C78 1.280(18) .
O59 H59A 0.9597 .
O59 H59B 0.9676 .
O53 C78 1.245(18) .
O57 C71 1.221(18) .
N22 H22A 0.8900 .
N22 H22B 0.8900 .
N22 C83 1.460(18) .
N21 H21A 0.8900 .
N21 H21B 0.8900 .
N21 C82 1.45(2) .
N17 H17A 0.8900 .
N17 H17B 0.8900 .
N17 C79 1.44(3) .
O58 C71 1.304(18) .
N20 H20C 0.8900 .
N20 H20D 0.8900 .
N20 H20A 0.8900 .
N20 H20B 0.8900 .
N20 C85B 1.51(5) .
N20 C85A 1.40(4) .
N18 H18A 0.8900 .
N18 H18B 0.8900 .
N18 C80 1.48(3) .
C72 C71 1.50(2) .
C72 C73 1.36(2) .
C72 C77 1.40(2) .
O55 H55A 0.8832 .
O55 H55B 0.8835 .
N23 H23A 0.8900 .
N23 H23B 0.8900 .
N23 H23C 0.8900 .
N23 H23D 0.8900 .
N23 C89B 1.45(2) .
N23 C89A 1.67(6) .
N24 H24A 0.8900 .
N24 H24B 0.8900 .
N24 C88 1.49(2) .
N19 H19A 0.8900 .
N19 H19B 0.8900 .
N19 H19C 0.8900 .
N19 H19D 0.8900 .
N19 C86A 1.41(4) .
N19 C86B 1.69(6) .
N26 H26A 0.8900 .
N26 H26B 0.8900 .
N26 H26C 0.8900 .
N26 H26D 0.8900 .
N26 C91A 1.60(6) .
N26 C92B 1.50(6) .
C73 H73 0.9300 .
C73 C74 1.41(3) .
C82 H82A 0.9700 .
C82 H82B 0.9700 .
C82 C83 1.459(16) .
N25 H25A 0.8900 .
N25 H25B 0.8900 .
N25 H25C 0.8900 .
N25 H25D 0.8900 .
N25 C92A 1.56(5) .
N25 C91B 1.31(5) .
C84 H84A 0.9600 .
C84 H84B 0.9600 .
C84 H84C 0.9600 .
C84 C83 1.474(15) .
C83 H83 0.9800 .
C79 H79A 0.9700 .
C79 H79B 0.9700 .
C79 C80 1.47(2) .
C86A H86A 0.9800 .
C86A C85A 1.54(5) .
C86A C87A 1.39(5) .
C75 H75 0.9300 .
C75 C74 1.38(3) .
C75 C76 1.42(2) .
C77 H77 0.9300 .
C77 C76 1.39(2) .
C74 H74 0.9300 .
C81 H81A 0.9600 .
C81 H81B 0.9600 .
C81 H81C 0.9600 .
C81 C80 1.55(3) .
C80 H80 0.9800 .
C78 C76 1.49(2) 1_455
C90A H90A 0.9600 .
C90A H90B 0.9600 .
C90A H90C 0.9600 .
C90A C89A 1.58(7) .
C88 H88A 0.9700 .
C88 H88B 0.9700 .
C88 H88C 0.9700 .
C88 H88D 0.9700 .
C88 C89B 1.53(2) .
C88 C89A 1.18(6) .
C89B H89B 0.9800 .
C89B C90B 1.49(7) .
C90B H90D 0.9600 .
C90B H90E 0.9600 .
C90B H90F 0.9600 .
C89A H89A 0.9800 .
C86B H86B 0.9800 .
C86B C85B 1.24(7) .
C86B C87B 1.75(7) .
C85B H85A 0.9700 .
C85B H85B 0.9700 .
C85A H85C 0.9700 .
C85A H85D 0.9700 .
C91A H91A 0.9700 .
C91A H91B 0.9700 .
C91A C92A 1.48(3) .
C92A H92A 0.9800 .
C92A C93A 1.51(3) .
C93A H93A 0.9600 .
C93A H93B 0.9600 .
C93A H93C 0.9600 .
C92B H92B 0.9800 .
C92B C93B 1.49(3) .
C92B C91B 1.48(3) .
C93B H93D 0.9600 .
C93B H93E 0.9600 .
C93B H93F 0.9600 .
C91B H91C 0.9700 .
C91B H91D 0.9700 .
C87A H87A 0.9600 .
C87A H87B 0.9600 .
C87A H87C 0.9600 .
C87B H87D 0.9600 .
C87B H87E 0.9600 .
C87B H87F 0.9600 .
O1 H1A 0.8495 .
O1 H1B 0.8499 .
loop_
_smtbx_masks_void_nr
_smtbx_masks_void_average_x
_smtbx_masks_void_average_y
_smtbx_masks_void_average_z
_smtbx_masks_void_volume
_smtbx_masks_void_count_electrons
1 0.244 0.033 0.907 215.9 62.9
2 0.256 -0.033 0.407 215.9 72.4
3 -0.244 0.533 0.593 215.9 59.5
4 -0.256 0.467 0.093 215.9 74.7
loop_
_twin_individual_id
_twin_individual_mass_fraction_refined
1 0.521(11)
2 0.479(11)
