#------------------------------------------------------------------------------
#$Date: 2020-03-05 01:36:17 +0200 (Thu, 05 Mar 2020) $
#$Revision: 248822 $
#$URL: file:///home/coder/svn-repositories/cod/cif/7/12/58/7125852.cif $
#------------------------------------------------------------------------------
#
# This file is available in the Crystallography Open Database (COD),
# http://www.crystallography.net/
#
# All data on this site have been placed in the public domain by the
# contributors.
#
data_7125852
loop_
_publ_author_name
'Wang, Sa-Sa'
'Yang, Wen-Bin'
'Yang, Mingxue'
'Wu, Xiao-Yuan'
'Wu, Weiming'
'Wang, Song-Xia'
'Lin, Lang'
'Lu, Can-Zhong'
_publ_section_title
;
 A bi-polyoxometallate-based host-guest metal-organic framework.
;
_journal_issue                   16
_journal_name_full
'Chemical communications (Cambridge, England)'
_journal_page_first              2503
_journal_page_last               2506
_journal_paper_doi               10.1039/c9cc09008h
_journal_volume                  56
_journal_year                    2020
_chemical_absolute_configuration ad
_chemical_formula_moiety         'C17 H37 N7 Ni6 O43 P W9, C6 H20 N4 Ni'
_chemical_formula_sum            'C23 H57 N11 Ni7 O43 P W9'
_chemical_formula_weight         3272.38
_space_group_crystal_system      orthorhombic
_space_group_IT_number           19
_space_group_name_Hall           'P 2ac 2ab'
_space_group_name_H-M_alt        'P 21 21 21'
_atom_sites_solution_hydrogens   mixed
_atom_sites_solution_primary     iterative
_audit_creation_date             2019-08-22
_audit_creation_method
;
Olex2 1.2
(compiled 2018.05.29 svn.r3508 for OlexSys, GUI svn.r5506)
;
_audit_update_record
;
2019-08-22 deposited with the CCDC.	2020-01-22 downloaded from the CCDC.
;
_cell_angle_alpha                90
_cell_angle_beta                 90
_cell_angle_gamma                90
_cell_formula_units_Z            4
_cell_length_a                   13.4978(5)
_cell_length_b                   14.1387(5)
_cell_length_c                   35.9568(12)
_cell_measurement_reflns_used    12960
_cell_measurement_temperature    100.0(2)
_cell_measurement_theta_max      30.2150
_cell_measurement_theta_min      3.0170
_cell_volume                     6862.0(4)
_computing_cell_refinement       'CrysAlisPro 1.171.39.46e (Rigaku OD, 2018)'
_computing_data_collection       'CrysAlisPro 1.171.39.46e (Rigaku OD, 2018)'
_computing_data_reduction        'CrysAlisPro 1.171.39.46e (Rigaku OD, 2018)'
_computing_molecular_graphics    'Olex2 (Dolomanov et al., 2009)'
_computing_publication_material  'Olex2 (Dolomanov et al., 2009)'
_computing_structure_refinement  'ShelXL (Sheldrick, 2015)'
_computing_structure_solution
;
Superflip (Palatinus & Chapuis, 2007;Palatinus & van der Lee, 2008;
Palatinus et al., 2012)
;
_diffrn_ambient_environment      N~2~
_diffrn_ambient_temperature      100.0(2)
_diffrn_detector                 'CCD plate'
_diffrn_detector_area_resol_mean 10.3468
_diffrn_detector_type            Atlas
_diffrn_measured_fraction_theta_full 0.999
_diffrn_measured_fraction_theta_max 0.999
_diffrn_measurement_details
;
List of Runs (angles in degrees, time in seconds):

  # Type    Start    End  Width  t~exp~   \w     \q     \k     \f   Frames
#--------------------------------------------------------------------------
  1  \w    -22.00  52.00   1.00   70.00    --   11.29  19.00-120.00   74
  2  \w     11.00  72.00   1.00   70.00    --  -12.07   0.00 -60.00   61
;
_diffrn_measurement_device       'four-circle diffractometer'
_diffrn_measurement_device_type  'SuperNova, Dual, Cu at home/near, Atlas'
_diffrn_measurement_method       '\w scans'
_diffrn_orient_matrix_type
'CrysAlisPro convention (1999,Acta A55,543-557)'
_diffrn_orient_matrix_UB_11      0.0109549000
_diffrn_orient_matrix_UB_12      -0.0488091000
_diffrn_orient_matrix_UB_13      -0.0018842000
_diffrn_orient_matrix_UB_21      0.0401486000
_diffrn_orient_matrix_UB_22      0.0050621000
_diffrn_orient_matrix_UB_23      0.0125838000
_diffrn_orient_matrix_UB_31      -0.0320888000
_diffrn_orient_matrix_UB_32      -0.0103143000
_diffrn_orient_matrix_UB_33      0.0150774000
_diffrn_radiation_monochromator  mirror
_diffrn_radiation_probe          x-ray
_diffrn_radiation_type           MoK\a
_diffrn_radiation_wavelength     0.71073
_diffrn_reflns_av_R_equivalents  0.0327
_diffrn_reflns_av_unetI/netI     0.0590
_diffrn_reflns_Laue_measured_fraction_full 0.999
_diffrn_reflns_Laue_measured_fraction_max 0.999
_diffrn_reflns_limit_h_max       13
_diffrn_reflns_limit_h_min       -17
_diffrn_reflns_limit_k_max       13
_diffrn_reflns_limit_k_min       -18
_diffrn_reflns_limit_l_max       35
_diffrn_reflns_limit_l_min       -46
_diffrn_reflns_number            25626
_diffrn_reflns_point_group_measured_fraction_full 1.000
_diffrn_reflns_point_group_measured_fraction_max 0.999
_diffrn_reflns_theta_full        25.242
_diffrn_reflns_theta_max         27.103
_diffrn_reflns_theta_min         2.086
_diffrn_source                   'micro-focus sealed X-ray tube'
_diffrn_source_type              'SuperNova (Mo) X-ray Source'
_exptl_absorpt_coefficient_mu    17.004
_exptl_absorpt_correction_T_max  1.00000
_exptl_absorpt_correction_T_min  0.38082
_exptl_absorpt_correction_type   multi-scan
_exptl_absorpt_process_details
;
CrysAlisPro 1.171.39.46e (Rigaku Oxford Diffraction, 2018)
Empirical absorption correction using spherical harmonics,
 implemented in SCALE3 ABSPACK scaling algorithm.
;
_exptl_crystal_colour            'clear dark green'
_exptl_crystal_colour_lustre     clear
_exptl_crystal_colour_modifier   dark
_exptl_crystal_colour_primary    green
_exptl_crystal_density_diffrn    3.168
_exptl_crystal_density_method    'not measured'
_exptl_crystal_description       irregular
_exptl_crystal_F_000             5972
_exptl_crystal_size_max          0.12
_exptl_crystal_size_mid          0.1
_exptl_crystal_size_min          0.02
_refine_diff_density_max         1.372
_refine_diff_density_min         -1.577
_refine_diff_density_rms         0.253
_refine_ls_abs_structure_details
;
 Refined as an inversion twin.
;
_refine_ls_abs_structure_Flack   0.453(12)
_refine_ls_extinction_method     none
_refine_ls_goodness_of_fit_ref   1.046
_refine_ls_hydrogen_treatment    constr
_refine_ls_matrix_type           full
_refine_ls_number_parameters     894
_refine_ls_number_reflns         14632
_refine_ls_number_restraints     1527
_refine_ls_restrained_S_all      1.005
_refine_ls_R_factor_all          0.0413
_refine_ls_R_factor_gt           0.0371
_refine_ls_shift/su_max          0.002
_refine_ls_shift/su_mean         0.000
_refine_ls_structure_factor_coef Fsqd
_refine_ls_weighting_details
'w=1/[\s^2^(Fo^2^)+(0.0342P)^2^+12.6226P] where P=(Fo^2^+2Fc^2^)/3'
_refine_ls_weighting_scheme      calc
_refine_ls_wR_factor_gt          0.0804
_refine_ls_wR_factor_ref         0.0826
_reflns_Friedel_coverage         0.821
_reflns_Friedel_fraction_full    1.000
_reflns_Friedel_fraction_max     1.000
_reflns_number_gt                13643
_reflns_number_total             14632
_reflns_threshold_expression     'I > 2\s(I)'
_cod_data_source_file            c9cc09008h2.cif
_cod_data_source_block           n
_cod_depositor_comments
'Adding full bibliography for 7125851--7125854.cif.'
_cod_original_cell_volume        6862.1(4)
_cod_database_code               7125852
_shelx_shelxl_version_number     2017/1
_chemical_oxdiff_formula         'C H O N P W Ni'
_shelx_space_group_comment
;
The symmetry employed for this shelxl refinement is uniquely defined
by the following loop, which should always be used as a source of
symmetry information in preference to the above space-group names.
They are only intended as comments.
;
_shelx_estimated_absorpt_t_max   0.727
_shelx_estimated_absorpt_t_min   0.235
_reflns_odcompleteness_completeness 99.86
_reflns_odcompleteness_iscentric 1
_reflns_odcompleteness_theta     27.04
_olex2_refinement_description
;
1. Twinned data refinement
 Scales: 0.547(12)
 0.453(12)
2. Fixed Uiso
 At 1.2 times of:
  All C(H) groups, All C(H,H) groups, All C(H,H,H,H) groups, All N(H,H)
  groups, All N(H,H,H,H) groups
 At 1.5 times of:
  All C(H,H,H) groups, All C(H,H,H,H,H,H) groups, All O(H,H) groups
3. Restrained distances
 C81-C82
 1.5 with sigma of 0.02
 N69-C94B = C94B-C93B = C93B-C95B = C93B-N68
 1.5 with sigma of 0.02
 C95B-N68
 2.3 with sigma of 0.02
 N69-C93A = C93A-C94A = C94A-N68 = C93A-C95A
 1.5 with sigma of 0.02
 N69-C95A
 2.3 with sigma of 0.02
 N71-C90
 1.5 with sigma of 0.02
 C81-C82 = C84-C85 = C90-C92
 1.5 with sigma of 0.02
4. Uiso/Uaniso restraints and constraints
N64 \\sim N65 \\sim C81 \\sim C82 \\sim C83: within 3.8A with sigma of 0.01 and
sigma for terminal atoms of 0.02
N66 \\sim N67 \\sim C84 \\sim C85 \\sim C86: within 3.8A with sigma of 0.01 and
sigma for terminal atoms of 0.02
N62 \\sim N63 \\sim C88A \\sim C88B \\sim C87 \\sim C89: within 3.8A with sigma
of 0.01 and sigma for terminal atoms of 0.02
N70 \\sim N71 \\sim C90 \\sim C91 \\sim C92: within 3.8A with sigma of 0.01 and
sigma for terminal atoms of 0.02
N68 \\sim N69 \\sim C93A \\sim C94B \\sim C93B \\sim C95B \\sim C95A \\sim
C94A: within 3.8A with sigma of 0.01 and sigma for terminal atoms of 0.02
O47 \\sim O37 \\sim O32 \\sim O43 \\sim O48 \\sim O41 \\sim O21 \\sim O35 \\sim
O18 \\sim O20 \\sim O30 \\sim O26 \\sim O33 \\sim O59 \\sim O52 \\sim O60 \\sim
O22 \\sim O45 \\sim O19 \\sim O31 \\sim O39 \\sim O50 \\sim O29 \\sim O44 \\sim
O40 \\sim O49 \\sim O56 \\sim O55 \\sim O58 \\sim O57 \\sim O46 \\sim O23 \\sim
O28 \\sim O54 \\sim O53 \\sim O36 \\sim O27 \\sim O24 \\sim O42 \\sim O25 \\sim
O34 \\sim O38 \\sim O51: within 3.8A with sigma of 0.01 and sigma for terminal
atoms of 0.02
Ni17 \\sim N71 \\sim N70 \\sim N69 \\sim N68: within 3.8A with sigma of 0.01
and sigma for terminal atoms of 0.02
Uanis(C79) \\sim Ueq: with sigma of 0.005 and sigma for terminal atoms of 0.01
Uanis(O42) \\sim Ueq: with sigma of 0.002 and sigma for terminal atoms of 0.004
5. Others
 Sof(H63C)=Sof(H63D)=Sof(H87C)=Sof(H87D)=Sof(H89D)=Sof(H89E)=Sof(H89F)=
 Sof(C88B)=Sof(H88B)=1-FVAR(1)
 Sof(H63A)=Sof(H63B)=Sof(H87A)=Sof(H87B)=Sof(C88A)=Sof(H88A)=Sof(H89A)=
 Sof(H89B)=Sof(H89C)=FVAR(1)
 Sof(H69C)=Sof(H69D)=Sof(H68C)=Sof(H68D)=Sof(C93B)=Sof(H93B)=Sof(C95B)=
 Sof(H95D)=Sof(H95E)=Sof(H95F)=Sof(C94B)=Sof(H94C)=Sof(H94D)=1-FVAR(2)
 Sof(H69A)=Sof(H69B)=Sof(H68A)=Sof(H68B)=Sof(C94A)=Sof(H94A)=Sof(H94B)=
 Sof(C93A)=Sof(H93A)=Sof(C95A)=Sof(H95A)=Sof(H95B)=Sof(H95C)=FVAR(2)
6.a Rotating group:
 O53(H53A,H53B), N72(H72A,H72B)
6.b Ternary CH refined with riding coordinates:
 C90(H90), C82(H82), C85(H85), C88A(H88A), C88B(H88B), C93A(H93A), C93B(H93B)
6.c Secondary CH2 refined with riding coordinates:
 N65(H65A,H65B), N64(H64A,H64B), N66(H66A,H66B), N67(H67A,H67B), N62(H62A,
 H62B), N63(H63A,H63B), N63(H63C,H63D), N69(H69A,H69B), N69(H69C,H69D),
 N70(H70A,H70B), N71(H71A,H71B), N68(H68A,H68B), N68(H68C,H68D), C91(H91A,H91B),
  C81(H81A,H81B), C84(H84A,H84B), C87(H87A,H87B), C87(H87C,H87D), C94A(H94A,
 H94B), C94B(H94C,H94D)
6.d Aromatic/amide H refined with riding coordinates:
 C78(H78), C76(H76), C75(H75)
6.e Idealised Me refined as rotating group:
 C83(H83A,H83B,H83C), C86(H86A,H86B,H86C), C92(H92A,H92B,H92C), C89(H89A,H89B,
 H89C), C89(H89D,H89E,H89F), C95A(H95A,H95B,H95C), C95B(H95D,H95E,H95F)
;
_shelx_res_file
;
TITL CF solution in P212121
    n.res
    created by SHELXL-2017/1 at 15:05:38 on 22-Aug-2019
CELL 0.71073 13.49785 14.138733 35.956829 90 90 90
ZERR 4 0.000497 0.000546 0.001162 0 0 0
LATT -1
SYMM 0.5-X,-Y,0.5+Z
SYMM 0.5+X,0.5-Y,-Z
SYMM -X,0.5+Y,0.5-Z
SFAC C H N Ni O P W
UNIT 92 228 44 28 172 4 36
DFIX 1.5 C81 C82
DFIX 1.5 N69 C94B C94B C93B C93B C95B C93B N68
DFIX 2.3 C95B N68
DFIX 1.5 N69 C93A C93A C94A C94A N68 C93A C95A
DFIX 2.3 N69 C95A
DFIX 1.5 N71 C90
DFIX 1.5 C81 C82 C84 C85 C90 C92
SIMU 0.01 0.02 3.8 N64 N65 C81 C82 C83
SIMU 0.01 0.02 3.8 N66 N67 C84 C85 C86
SIMU 0.01 0.02 3.8 N62 N63 C88A C88B C87 C89
SIMU 0.01 0.02 3.8 N70 N71 C90 C91 C92
SIMU 0.01 0.02 3.8 N68 N69 C93A C94B C93B C95B C95A C94A
SIMU 0.01 0.02 3.8 $O
SIMU 0.01 0.02 3.8 Ni17 N71 N70 N69 N68
ISOR 0.005 0.01 C79
ISOR 0.002 0.004 O42

L.S. 99
PLAN  1
SIZE 0.12 0.1 0.02
BOND
fmap 2
acta
ABIN
SHEL 999 0.78
TWIN -1 0 0 0 -1 0 0 0 -1 2
REM <olex2.extras>
REM <HklSrc "%.\\3.hkl">
REM </olex2.extras>

WGHT    0.034200   12.622601
BASF   0.45271
FVAR       0.63921   0.46415   0.58801
W6    7    1.043204    0.775003    0.703647    11.00000    0.01452    0.01431 =
         0.01428   -0.00023   -0.00161    0.00029
W7    7    0.790883    0.763932    0.712095    11.00000    0.01365    0.01626 =
         0.01645   -0.00049    0.00081    0.00142
W5    7    1.167592    0.659119    0.624723    11.00000    0.01284    0.02003 =
         0.01499    0.00054    0.00076   -0.00062
W8    7    0.645334    0.635401    0.642117    11.00000    0.01226    0.02034 =
         0.01841    0.00252   -0.00204    0.00059
W4    7    0.896094    0.900290    0.642671    11.00000    0.01583    0.01715 =
         0.01980    0.00273   -0.00241    0.00010
W9    7    0.761215    0.524619    0.570145    11.00000    0.01689    0.02365 =
         0.01484    0.00020   -0.00327   -0.00244
W10   7    1.032626    0.537213    0.560979    11.00000    0.01757    0.02537 =
         0.01346   -0.00165    0.00178   -0.00250
W2    7    0.749419    0.769031    0.572584    11.00000    0.01586    0.02407 =
         0.01767    0.00419   -0.00486   -0.00070
W3    7    1.021777    0.781359    0.563233    11.00000    0.01689    0.02523 =
         0.01564    0.00494   -0.00028   -0.00292
NI13  4    0.929226    0.552283    0.721720    11.00000    0.01390    0.01696 =
         0.01177    0.00045   -0.00045   -0.00143
NI15  4    0.809489    0.441149    0.661023    11.00000    0.01160    0.01860 =
         0.01519    0.00143   -0.00124   -0.00126
NI12  4    1.040350    0.453818    0.655791    11.00000    0.01268    0.01809 =
         0.01603   -0.00189    0.00016    0.00041
NI11  4    1.159905    0.554683    0.712478    11.00000    0.01479    0.01678 =
         0.01520    0.00029   -0.00231    0.00007
NI16  4    0.699533    0.521307    0.725575    11.00000    0.01400    0.02181 =
         0.01682    0.00280    0.00040   -0.00072
NI14  4    0.922125    0.334418    0.599408    11.00000    0.01936    0.02171 =
         0.01569   -0.00329    0.00149    0.00010
NI17  4    0.390372    0.721935    0.539355    11.00000    0.01785    0.04748 =
         0.01766    0.00374   -0.00154   -0.00221
P1    6    0.908462    0.644854    0.637325    11.00000    0.01087    0.00789 =
         0.01235    0.00046    0.00017    0.00310
O47   5    0.921561    0.797204    0.731239    11.00000    0.01287    0.02091 =
         0.01515    0.00071    0.00299   -0.00209
O37   5    1.123873    0.749936    0.661484    11.00000    0.01405    0.01611 =
         0.01748   -0.00204    0.00128   -0.00054
O32   5    0.807820    0.881643    0.683148    11.00000    0.01913    0.01956 =
         0.02238    0.00081   -0.00141   -0.00307
O43   5    0.806464    0.440786    0.603744    11.00000    0.01795    0.01926 =
         0.01369    0.00062   -0.00331   -0.00650
O48   5    0.696070    0.728940    0.675021    11.00000    0.01614    0.02245 =
         0.01978    0.00455   -0.00436   -0.00073
O41   5    0.647677    0.553068    0.598256    11.00000    0.01664    0.02049 =
         0.01745    0.00504   -0.00292   -0.00005
O21   5    1.143166    0.762969    0.588268    11.00000    0.01260    0.02100 =
         0.01322    0.00175   -0.00071   -0.00230
O35   5    1.296286    0.668277    0.629506    11.00000    0.01584    0.02162 =
         0.02319    0.00008   -0.00033    0.00135
O18   5    1.060776    0.862398    0.530779    11.00000    0.02051    0.03429 =
         0.01211    0.01194   -0.00566   -0.00779
O20   5    0.986884    0.861363    0.604912    11.00000    0.01942    0.02349 =
         0.01830    0.00022    0.00198   -0.00162
O30   5    1.017976    0.452441    0.598463    11.00000    0.01674    0.02027 =
         0.01211   -0.00103   -0.00001    0.00156
O26   5    0.734789    0.650852    0.548229    11.00000    0.01760    0.02504 =
         0.01746    0.00308   -0.00780   -0.00334
O33   5    1.156547    0.578283    0.583037    11.00000    0.01667    0.02318 =
         0.01379    0.00433   -0.00197   -0.00207
O59   5    1.039588    0.651789    0.717805    11.00000    0.01542    0.01610 =
         0.01226   -0.00236   -0.00451    0.00086
O52   5    0.930224    0.359677    0.654812    11.00000    0.01587    0.02010 =
         0.02126    0.00149   -0.00449   -0.00003
O60   5    1.043092    0.465169    0.712065    11.00000    0.01213    0.01478 =
         0.01575    0.00170    0.00121    0.00178
O22   5    0.883551    0.772496    0.554749    11.00000    0.02045    0.02585 =
         0.01382    0.00010   -0.00659   -0.00155
O45   5    0.810900    0.641712    0.724901    11.00000    0.01452    0.01547 =
         0.01490   -0.00123   -0.00436   -0.00062
O19   5    0.890188    1.018754    0.635924    11.00000    0.03225    0.01765 =
         0.02690   -0.00631   -0.00611    0.00699
O31   5    0.992763    0.653074    0.609719    11.00000    0.01815    0.02185 =
         0.01354    0.00158   -0.00223    0.00364
O39   5    1.130957    0.566384    0.655647    11.00000    0.01376    0.01636 =
         0.01245    0.00015    0.00202    0.00329
O50   5    1.254001    0.451619    0.696258    11.00000    0.02115    0.02165 =
         0.02314    0.00151    0.00385   -0.00001
O29   5    0.810788    0.645843    0.615340    11.00000    0.01470    0.01856 =
         0.01656    0.00271   -0.00515    0.00111
O44   5    0.917466    0.554553    0.660556    11.00000    0.01336    0.02026 =
         0.01479    0.00276   -0.00142   -0.00048
O40   5    0.910810    0.732585    0.662759    11.00000    0.01441    0.02021 =
         0.01417    0.00063   -0.00327   -0.00070
O49   5    0.704096    0.542730    0.668900    11.00000    0.01521    0.01912 =
         0.01464   -0.00205   -0.00183   -0.00576
O56   5    1.161195    0.366070    0.654384    11.00000    0.02025    0.02356 =
         0.02084    0.00140   -0.00130    0.00421
O55   5    0.694854    0.346829    0.662084    11.00000    0.01707    0.02039 =
         0.01992   -0.00102   -0.00226    0.00090
O58   5    0.934644    0.545263    0.779690    11.00000    0.01954    0.02373 =
         0.01434    0.00058    0.00125    0.00316
O57   5    1.071240    0.471434    0.523701    11.00000    0.02401    0.02081 =
         0.01612   -0.00880   -0.00110    0.00017
O46   5    0.713720    0.806156    0.746370    11.00000    0.02192    0.02066 =
         0.02154   -0.00739    0.00728    0.00058
O23   5    1.038086    0.666966    0.538221    11.00000    0.02141    0.02362 =
         0.01816    0.00026    0.00303   -0.00152
O28   5    0.894232    0.542173    0.551942    11.00000    0.02082    0.02394 =
         0.01436   -0.00052   -0.00097   -0.00073
O54   5    0.608143    0.405492    0.709827    11.00000    0.01627    0.01584 =
         0.02522    0.00420    0.00198    0.00242
N65   3    1.277503    0.647309    0.712006    11.00000    0.02097    0.02631 =
         0.02356    0.01137   -0.00535   -0.01350
AFIX  23
H65A  2    1.325789    0.623861    0.697896    11.00000   -1.20000
H65B  2    1.258335    0.702053    0.702132    11.00000   -1.20000
AFIX   0
N64   3    1.185262    0.549446    0.769421    11.00000    0.02056    0.02630 =
         0.01951    0.00589   -0.00168   -0.00912
AFIX  23
H64A  2    1.135717    0.577368    0.781512    11.00000   -1.20000
H64B  2    1.188877    0.489562    0.776928    11.00000   -1.20000
AFIX   0
O53   5    1.054215    0.257760    0.599521    11.00000    0.03075    0.03979 =
         0.03758   -0.00587   -0.00114    0.00280
AFIX   7
H53A  2    1.048709    0.195109    0.608685    11.00000   -1.50000
H53B  2    1.103068    0.281196    0.615817    11.00000   -1.50000
AFIX   0
N66   3    0.823728    0.224152    0.606399    11.00000    0.04304    0.03686 =
         0.01524    0.00117    0.00104   -0.00284
AFIX  23
H66A  2    0.855768    0.173572    0.614910    11.00000   -1.20000
H66B  2    0.777913    0.240225    0.623041    11.00000   -1.20000
AFIX   0
O36   5    1.003497    0.893699    0.676808    11.00000    0.01485    0.01939 =
         0.01541    0.00150   -0.00262    0.00284
O27   5    0.640102    0.735792    0.604334    11.00000    0.01720    0.02406 =
         0.02053    0.00465   -0.00325    0.00063
O24   5    0.795150    0.852487    0.610367    11.00000    0.02035    0.02337 =
         0.02011    0.00124   -0.00639   -0.00253
O42   5    0.524053    0.631514    0.655184    11.00000    0.00885    0.01538 =
         0.01866    0.00062    0.00007   -0.00452
O25   5    0.692073    0.843670    0.541663    11.00000    0.02705    0.02747 =
         0.02144    0.00978   -0.00528    0.00659
O34   5    0.713497    0.453484    0.535482    11.00000    0.02490    0.02775 =
         0.02333   -0.01301   -0.00479    0.00094
O38   5    1.131059    0.822900    0.733049    11.00000    0.01652    0.02561 =
         0.01519   -0.00231   -0.00684   -0.00712
C74   1    0.522086    0.346945    0.658895    11.00000    0.02232    0.02515 =
         0.02675   -0.00120    0.00860    0.00543
N67   3    0.899325    0.309063    0.543390    11.00000    0.03957    0.03312 =
         0.01806    0.00122   -0.00397   -0.00924
AFIX  23
H67A  2    0.863327    0.355212    0.533353    11.00000   -1.20000
H67B  2    0.956967    0.305807    0.531440    11.00000   -1.20000
AFIX   0
N62   3    0.578123    0.604676    0.736803    11.00000    0.02960    0.03857 =
         0.02209    0.00479    0.00325    0.00198
AFIX  23
H62A  2    0.585322    0.660829    0.725948    11.00000   -1.20000
H62B  2    0.523761    0.577592    0.727704    11.00000   -1.20000
AFIX   0
C73   1    0.611608    0.366959    0.678200    11.00000    0.03106    0.02265 =
         0.02666   -0.00551   -0.00474   -0.00479
N63   3    0.699257    0.501011    0.781973    11.00000    0.03154    0.04336 =
         0.02177    0.00256    0.00526    0.00901
PART 1
AFIX  23
H63A  2    0.697300    0.439355    0.786908    21.00000   -1.20000
H63B  2    0.754742    0.524402    0.791680    21.00000   -1.20000
AFIX  23
PART 0
PART 2
H63C  2    0.665522    0.449050    0.787874   -21.00000   -1.20000
H63D  2    0.760857    0.495375    0.790518   -21.00000   -1.20000
AFIX   0
PART 0
C78   1    0.522457    0.300625    0.623911    11.00000    0.01331    0.06299 =
         0.02425   -0.01717   -0.00070    0.00909
AFIX  43
H78   2    0.582500    0.281131    0.613803    11.00000   -1.20000
AFIX   0
C80   1    1.339751    0.357403    0.654360    11.00000    0.02131    0.02267 =
         0.03963   -0.01474    0.00395   -0.00122
C79   1    1.246410    0.393575    0.670259    11.00000    0.02558    0.02160 =
         0.01629    0.00786   -0.00009   -0.00191
N72   3    0.432669    0.231853    0.569480    11.00000    0.04137    0.09513 =
         0.03017   -0.01481    0.01057   -0.00213
AFIX   7
H72A  2    0.393849    0.257182    0.551233    11.00000   -1.20000
H72B  2    0.493291    0.232445    0.559576    11.00000   -1.20000
AFIX   0
C83   1    1.310076    0.601865    0.817119    11.00000    0.03311    0.03667 =
         0.01486    0.00010   -0.00161   -0.00987
AFIX 137
H83A  2    1.351946    0.548693    0.822470    11.00000   -1.50000
H83B  2    1.253207    0.600381    0.833142    11.00000   -1.50000
H83C  2    1.346254    0.659391    0.821209    11.00000   -1.50000
AFIX   0
C76   1    0.343076    0.309735    0.619835    11.00000    0.02198    0.03722 =
         0.02438   -0.00845   -0.01443    0.00732
AFIX  43
H76   2    0.284493    0.295651    0.607398    11.00000   -1.20000
AFIX   0
C77   1    0.434735    0.283431    0.604153    11.00000    0.01304    0.06224 =
         0.03392    0.00126    0.01027   -0.00443
C75   1    0.430375    0.374466    0.673060    11.00000    0.02607    0.02653 =
         0.00967   -0.00154    0.00047   -0.00617
AFIX  43
H75   2    0.428604    0.405486    0.695858    11.00000   -1.20000
AFIX   0
C86   1    0.722033    0.107857    0.570801    11.00000    0.04934    0.03508 =
         0.02937   -0.00379   -0.00144   -0.00676
AFIX 137
H86A  2    0.769585    0.058228    0.574456    11.00000   -1.50000
H86B  2    0.687328    0.097585    0.547850    11.00000   -1.50000
H86C  2    0.675632    0.107939    0.591035    11.00000   -1.50000
AFIX   0
O51   5    0.825848    0.452254    0.715582    11.00000    0.01280    0.01703 =
         0.01583    0.00335   -0.00171    0.00216

N69   3    0.302023    0.618493    0.527490    11.00000    0.03151    0.05785 =
         0.02350    0.00527   -0.00151   -0.00501
PART 1
AFIX  23
H69A  2    0.254649    0.613202    0.544580    31.00000   -1.20000
H69B  2    0.273926    0.627288    0.505366    31.00000   -1.20000
AFIX  23
PART 0
PART 2
H69C  2    0.271013    0.599194    0.547973   -31.00000   -1.20000
H69D  2    0.256584    0.637692    0.511220   -31.00000   -1.20000
AFIX   0
PART 0
N70   3    0.290967    0.814379    0.532588    11.00000    0.03218    0.05660 =
         0.02420    0.00286    0.00009    0.00684
AFIX  23
H70A  2    0.269145    0.813082    0.509236    11.00000   -1.20000
H70B  2    0.240092    0.802801    0.547660    11.00000   -1.20000
AFIX   0
N71   3    0.477794    0.820073    0.552774    11.00000    0.03361    0.05664 =
         0.03357    0.00194    0.00001    0.00239
AFIX  23
H71A  2    0.516779    0.800521    0.571196    11.00000   -1.20000
H71B  2    0.516085    0.834478    0.533436    11.00000   -1.20000
AFIX   0
N68   3    0.487726    0.626134    0.546204    11.00000    0.03482    0.05918 =
         0.02655    0.00280    0.00044    0.00113
PART 1
AFIX  23
H68A  2    0.526498    0.625270    0.526186    31.00000   -1.20000
H68B  2    0.525393    0.642418    0.565484    31.00000   -1.20000
AFIX  23
PART 0
PART 2
H68C  2    0.535761    0.632302    0.529422   -31.00000   -1.20000
H68D  2    0.514342    0.630662    0.568780   -31.00000   -1.20000
AFIX   0
PART 0
C91   1    0.335150    0.910774    0.541283    11.00000    0.05316    0.05251 =
         0.03504    0.00112   -0.00900    0.00948
AFIX  23
H91A  2    0.351507    0.942778    0.518225    11.00000   -1.20000
H91B  2    0.286537    0.948844    0.554346    11.00000   -1.20000
AFIX   0
C92   1    0.483951    0.988753    0.569459    11.00000    0.07996    0.07333 =
         0.04897   -0.01478   -0.00002   -0.00447
AFIX 137
H92A  2    0.553149    0.973071    0.569620    11.00000   -1.50000
H92B  2    0.466436    1.017850    0.592669    11.00000   -1.50000
H92C  2    0.470635    1.031868    0.549449    11.00000   -1.50000
AFIX   0
C90   1    0.425071    0.902004    0.564303    11.00000    0.05309    0.06439 =
         0.05167    0.00008   -0.00175    0.00435
AFIX  13
H90   2    0.400519    0.886499    0.589217    11.00000   -1.20000
AFIX   0

C81   1    1.315573    0.663858    0.750200    11.00000    0.03575    0.04335 =
         0.02427    0.00947   -0.00986   -0.01994
AFIX  23
H81A  2    1.387279    0.659393    0.749897    11.00000   -1.20000
H81B  2    1.298190    0.727524    0.757846    11.00000   -1.20000
AFIX   0
C82   1    1.276901    0.597372    0.777233    11.00000    0.03489    0.04786 =
         0.02850    0.00789   -0.01201   -0.02679
AFIX  13
H82   2    1.320146    0.544710    0.770127    11.00000   -1.20000
AFIX   0
C85   1    0.773913    0.200347    0.569353    11.00000    0.06129    0.04274 =
         0.02641    0.00320   -0.00103   -0.01484
AFIX  13
H85   2    0.721833    0.247899    0.566038    11.00000   -1.20000
AFIX   0
C84   1    0.847771    0.220634    0.540893    11.00000    0.06211    0.04232 =
         0.03139   -0.00462   -0.00260   -0.01719
AFIX  23
H84A  2    0.896624    0.170333    0.541371    11.00000   -1.20000
H84B  2    0.815226    0.218059    0.516863    11.00000   -1.20000
AFIX   0
C87   1    0.567996    0.617019    0.777246    11.00000    0.04243    0.05092 =
         0.03189   -0.00224    0.00242    0.01653
PART 1
AFIX  23
H87A  2    0.595417    0.678054    0.784014    21.00000   -1.20000
H87B  2    0.498042    0.618006    0.783411    21.00000   -1.20000
AFIX  23
PART 0
PART 2
H87C  2    0.553256    0.683046    0.782049   -21.00000   -1.20000
H87D  2    0.511187    0.580481    0.785404   -21.00000   -1.20000
AFIX   0
PART 0
PART 1
C88A  1    0.614265    0.547241    0.798750    21.00000    0.03475    0.04420 =
         0.02661    0.00032    0.00365    0.00847
AFIX  13
H88A  2    0.564571    0.496786    0.799863    21.00000   -1.20000
AFIX   0
PART 0
C89   1    0.625358    0.576943    0.839063    11.00000    0.03825    0.04836 =
         0.02978   -0.00291    0.00368    0.01242
PART 1
AFIX 137
H89A  2    0.641676    0.522719    0.853919    21.00000   -1.50000
H89B  2    0.564205    0.603792    0.847687    21.00000   -1.50000
H89C  2    0.677216    0.623121    0.841103    21.00000   -1.50000
AFIX 137
PART 0
PART 2
H89D  2    0.599438    0.514373    0.842643   -21.00000   -1.50000
H89E  2    0.577337    0.622623    0.847139   -21.00000   -1.50000
H89F  2    0.685055    0.584229    0.853291   -21.00000   -1.50000
AFIX   0
C88B  1    0.647496    0.591869    0.798842   -21.00000    0.03632    0.04417 =
         0.02468    0.00085    0.00375    0.01098
AFIX  13
H88B  2    0.695573    0.643663    0.797315   -21.00000   -1.20000
AFIX   0

PART 0
PART 1
C94A  1    0.450468    0.527973    0.552679    31.00000    0.03612    0.06254 =
         0.02634    0.00708   -0.00045   -0.00241
AFIX  23
H94A  2    0.497850    0.480111    0.545116    31.00000   -1.20000
H94B  2    0.430582    0.517528    0.578275    31.00000   -1.20000
AFIX   0
C93A  1    0.365015    0.534167    0.527170    31.00000    0.03841    0.06168 =
         0.03067    0.00278    0.00232   -0.00504
AFIX  13
H93A  2    0.392187    0.529585    0.501960    31.00000   -1.20000
AFIX   0
C95A  1    0.298389    0.452649    0.531651    31.00000    0.04049    0.06886 =
         0.03654   -0.00355    0.00714   -0.00091
AFIX 137
H95A  2    0.333403    0.401926    0.543578    31.00000   -1.50000
H95B  2    0.275660    0.432172    0.507668    31.00000   -1.50000
H95C  2    0.242616    0.470640    0.546632    31.00000   -1.50000
AFIX   0
PART 0
PART 2
C93B  1    0.436650    0.531548    0.541677   -31.00000    0.03640    0.06173 =
         0.02605    0.00534   -0.00052   -0.00125
AFIX  13
H93B  2    0.486040    0.484672    0.533975   -31.00000   -1.20000
AFIX   0
C95B  1    0.406018    0.510306    0.580070   -31.00000    0.03477    0.06597 =
         0.03956    0.00361    0.00249   -0.00005
AFIX 137
H95D  2    0.433188    0.556891    0.596600   -31.00000   -1.50000
H95E  2    0.429856    0.448794    0.586978   -31.00000   -1.50000
H95F  2    0.335032    0.511378    0.581670   -31.00000   -1.50000
AFIX   0
C94B  1    0.359809    0.539824    0.511552   -31.00000    0.03649    0.06161 =
         0.02807    0.00467   -0.00245   -0.00376
AFIX  23
H94C  2    0.388799    0.556214    0.487723   -31.00000   -1.20000
H94D  2    0.320680    0.482624    0.509082   -31.00000   -1.20000
AFIX   0
HKLF 4




REM  CF solution in P212121
REM R1 =  0.0371 for   13643 Fo > 4sig(Fo)  and  0.0413 for all   14632 data
REM    894 parameters refined using   1527 restraints

END

WGHT      0.0343     12.8106

REM Highest difference peak  1.372,  deepest hole -1.577,  1-sigma level  0.253
Q1    1   1.2438  0.6436  0.7798  11.00000  0.05    1.37
;
_shelx_res_checksum              53935
_shelx_fab_file
;
-17 -3 -4 -3.2692 1.7386
-17 -3 -3 -1.2722 12.7963
-17 -3 -2 4.6601 0.2610
-17 -3 -1 0.6188 7.3059
-17 -2 -6 4.8053 -11.7908
-17 -2 -5 8.5286 -2.6463
-17 -2 -4 4.9943 4.3615
-17 -2 -3 2.0889 5.8242
-17 -2 -2 -1.7005 5.1987
-17 -2 -1 -9.0073 -3.5141
-17 -1 -8 -8.4231 -4.5381
-17 -1 -7 2.9091 -10.5324
-17 -1 -6 -3.5580 4.9826
-17 -1 -5 2.2344 -4.2834
-17 -1 -4 15.3440 0.6376
-17 -1 -3 4.7014 7.5718
-17 -1 -2 -7.3317 -0.9587
-17 -1 -1 -0.6935 1.9505
-16 -6 -8 0.2721 3.1158
-16 -6 -7 -2.0990 1.9575
-16 -6 -6 -3.0731 1.7375
-16 -6 -5 2.2409 -6.0055
-16 -6 -4 -0.5626 1.6089
-16 -6 -3 -0.7108 -10.3671
-16 -6 -2 -0.2345 -8.3644
-16 -6 -1 -3.8738 1.9654
-16 -5 -12 -2.1523 10.3617
-16 -5 -11 -2.6610 -5.0859
-16 -5 -10 4.4330 3.2767
-16 -5 -9 3.3360 4.8683
-16 -5 -8 -7.2602 3.3413
-16 -5 -7 -1.1715 -4.2308
-16 -5 -6 -4.7117 2.7878
-16 -5 -5 -3.4456 -1.9491
-16 -5 -4 -9.7476 5.6207
-16 -5 -3 4.2149 0.0599
-16 -5 -2 -0.1899 -14.6883
-16 -5 -1 1.5517 -10.6939
-16 -4 -14 -0.3489 -2.1319
-16 -4 -13 -3.9719 0.1306
-16 -4 -12 -2.2328 -0.4588
-16 -4 -11 7.4453 1.8577
-16 -4 -10 -0.9550 1.4087
-16 -4 -9 8.6588 2.9073
-16 -4 -8 0.0538 -0.8401
-16 -4 -7 -0.0631 2.6305
-16 -4 -6 -8.3245 4.2293
-16 -4 -5 2.5529 0.4470
-16 -4 -4 -10.8186 -9.6896
-16 -4 -3 -6.2299 1.8023
-16 -4 -2 -4.9671 2.3444
-16 -4 -1 -4.5227 6.2301
-16 -3 -15 -2.4667 9.4767
-16 -3 -14 3.1356 -6.6739
-16 -3 -13 -3.1679 0.8011
-16 -3 -12 4.4640 -4.5393
-16 -3 -11 -1.2699 -3.8724
-16 -3 -10 -3.5468 -11.5459
-16 -3 -9 -7.0323 4.7282
-16 -3 -8 3.9010 5.0534
-16 -3 -7 -1.3391 7.6339
-16 -3 -6 -1.2144 5.4837
-16 -3 -5 -3.8247 8.8356
-16 -3 -4 -1.8866 -13.6282
-16 -3 -3 4.3182 4.9169
-16 -3 -2 4.6889 7.4116
-16 -3 -1 3.0703 1.4863
-16 -2 -16 0.7248 -1.6634
-16 -2 -15 -9.2766 5.3859
-16 -2 -14 0.3098 7.1514
-16 -2 -13 -14.6754 -0.9662
-16 -2 -12 4.2672 5.4094
-16 -2 -11 -4.4463 3.7233
-16 -2 -10 6.5410 7.0316
-16 -2 -9 -1.6465 -2.9758
-16 -2 -8 12.5018 1.7005
-16 -2 -7 1.4471 -1.2423
-16 -2 -6 -7.5977 2.0050
-16 -2 -5 -4.6894 -6.0043
-16 -2 -4 3.6604 7.0813
-16 -2 -3 -4.7523 -7.0724
-16 -2 -2 9.6507 -13.2906
-16 -2 -1 -2.4048 1.4250
-16 -1 -17 11.3608 3.7693
-16 -1 -16 1.4182 1.9429
-16 -1 -15 13.8554 8.4437
-16 -1 -14 4.4164 6.5860
-16 -1 -13 0.3758 -3.5626
-16 -1 -12 -2.7209 -1.5004
-16 -1 -11 0.7618 -13.2013
-16 -1 -10 0.4694 9.9430
-16 -1 -9 3.2639 -4.3498
-16 -1 -8 -9.0091 4.4145
-16 -1 -7 -4.6750 -2.4964
-16 -1 -6 1.1091 3.0971
-16 -1 -5 -1.6186 3.5639
-16 -1 -4 -10.1988 4.9354
-16 -1 -3 3.3445 -1.4574
-16 -1 -2 -14.4024 -3.9413
-16 -1 -1 2.9165 -5.4853
-15 -9 -2 -1.5287 8.5929
-15 -9 -1 4.5893 0.0697
-15 -8 -10 4.7313 1.0410
-15 -8 -9 5.8336 3.9032
-15 -8 -8 -0.0903 -0.5672
-15 -8 -7 5.7183 -4.8117
-15 -8 -6 6.9051 2.2534
-15 -8 -5 2.7247 -3.8612
-15 -8 -4 4.8547 -0.1934
-15 -8 -3 1.5525 -1.7227
-15 -8 -2 -7.3196 3.1838
-15 -8 -1 5.4098 1.6755
-15 -7 -14 -7.7437 -8.6366
-15 -7 -13 0.4348 -8.2297
-15 -7 -12 6.0288 -4.0540
-15 -7 -11 -3.4617 -1.4795
-15 -7 -10 2.2595 -7.9495
-15 -7 -9 2.1541 -8.2341
-15 -7 -8 -0.6135 4.4204
-15 -7 -7 -8.7614 -1.0513
-15 -7 -6 0.5330 -7.3140
-15 -7 -5 2.3988 0.5566
-15 -7 -4 2.0336 4.5948
-15 -7 -3 6.6431 -1.2812
-15 -7 -2 0.9337 6.5924
-15 -7 -1 -2.6671 -1.3682
-15 -6 -17 -0.9173 2.8366
-15 -6 -16 -8.2995 0.7338
-15 -6 -15 -6.0030 3.0291
-15 -6 -14 0.9077 -0.8010
-15 -6 -13 -5.5701 8.1952
-15 -6 -12 -8.4602 -2.3049
-15 -6 -11 0.0529 -0.7734
-15 -6 -10 3.2857 4.5280
-15 -6 -9 -6.5105 -2.2393
-15 -6 -8 0.3966 -0.2535
-15 -6 -7 3.5731 5.6328
-15 -6 -6 -3.0782 -1.1224
-15 -6 -5 0.9803 -11.6250
-15 -6 -4 3.0670 -0.5584
-15 -6 -3 1.6859 5.5196
-15 -6 -2 0.3689 6.6912
-15 -6 -1 3.1769 0.8858
-15 -5 -19 0.9252 2.0590
-15 -5 -18 -0.2703 3.6751
-15 -5 -17 3.7611 -2.9094
-15 -5 -16 7.9178 3.2354
-15 -5 -15 2.4390 -1.7696
-15 -5 -14 6.7463 1.7521
-15 -5 -13 2.5718 2.7301
-15 -5 -12 -1.0161 0.8818
-15 -5 -11 -9.1290 1.0617
-15 -5 -10 1.8184 2.0900
-15 -5 -9 5.3625 3.7715
-15 -5 -8 -2.0934 0.2009
-15 -5 -7 -4.6527 -7.6880
-15 -5 -6 1.0745 3.9159
-15 -5 -5 0.6276 0.9355
-15 -5 -4 2.0801 -5.3298
-15 -5 -3 6.0592 -2.4935
-15 -5 -2 6.7404 -1.3848
-15 -5 -1 1.0492 2.3216
-15 -4 -20 0.8696 0.0933
-15 -4 -19 1.8235 -2.2197
-15 -4 -18 -9.6920 -6.0039
-15 -4 -17 -6.8935 -2.9849
-15 -4 -16 -3.4943 -8.3557
-15 -4 -15 13.1938 2.1341
-15 -4 -14 -2.0561 4.9115
-15 -4 -13 1.7972 4.1849
-15 -4 -12 6.6160 2.8116
-15 -4 -11 4.9513 -0.4829
-15 -4 -10 1.0893 0.9129
-15 -4 -9 -3.8381 0.2584
-15 -4 -8 0.1872 1.0640
-15 -4 -7 -0.2333 0.8225
-15 -4 -6 -1.1234 0.6597
-15 -4 -5 2.4547 -5.3289
-15 -4 -4 -4.2654 -4.1388
-15 -4 -3 0.1289 -2.7591
-15 -4 -2 3.9585 -1.9414
-15 -4 -1 0.5180 3.1553
-15 -3 -21 3.2993 -0.9059
-15 -3 -20 -6.5725 8.3058
-15 -3 -19 -1.0655 5.1580
-15 -3 -18 0.8524 6.8391
-15 -3 -17 4.2472 -4.1160
-15 -3 -16 3.3662 -12.6038
-15 -3 -15 2.0176 -2.2288
-15 -3 -14 9.1159 -10.9614
-15 -3 -13 -5.5878 2.8114
-15 -3 -12 1.4749 -5.3334
-15 -3 -11 2.2993 -2.0188
-15 -3 -10 6.0472 -1.9451
-15 -3 -9 -0.1468 -0.5077
-15 -3 -8 -2.5420 4.9785
-15 -3 -7 -1.4734 -0.4477
-15 -3 -6 -1.5990 0.1152
-15 -3 -5 0.6908 0.7425
-15 -3 -4 1.2179 1.5868
-15 -3 -3 6.9529 1.8420
-15 -3 -2 5.4641 7.3606
-15 -3 -1 1.2329 -0.6831
-15 -2 -22 -0.7709 -0.4757
-15 -2 -21 -0.2228 0.5383
-15 -2 -20 -0.1035 -5.8417
-15 -2 -19 0.6508 -7.7312
-15 -2 -18 -10.0908 1.6255
-15 -2 -17 -1.6914 -3.1496
-15 -2 -16 -9.9409 -5.0837
-15 -2 -15 -7.9052 4.2201
-15 -2 -14 1.1661 2.6773
-15 -2 -13 -6.5125 -5.6372
-15 -2 -12 2.9181 -2.8366
-15 -2 -11 -8.2572 -5.2526
-15 -2 -10 6.2478 4.2961
-15 -2 -9 7.0153 -4.7695
-15 -2 -8 6.7848 7.8724
-15 -2 -7 2.6521 -3.4610
-15 -2 -6 -3.4602 -12.4553
-15 -2 -5 -0.6528 -5.4618
-15 -2 -4 7.7468 -1.2567
-15 -2 -3 6.4215 2.0372
-15 -2 -2 -8.8017 4.5747
-15 -2 -1 0.8708 4.5671
-15 -1 -22 -9.7626 13.2280
-15 -1 -21 -7.9590 -0.1642
-15 -1 -20 1.9877 8.4261
-15 -1 -19 1.0921 -2.5163
-15 -1 -18 -1.9601 -2.7648
-15 -1 -17 7.8310 10.3517
-15 -1 -16 -0.7205 8.3807
-15 -1 -15 -2.5022 5.5590
-15 -1 -14 -3.6081 -0.8229
-15 -1 -13 -3.0094 -3.8190
-15 -1 -12 -3.1674 -6.1590
-15 -1 -11 -2.3584 -12.4697
-15 -1 -10 2.8639 1.0641
-15 -1 -9 -2.7835 -10.4457
-15 -1 -8 -13.4669 -0.6551
-15 -1 -7 3.5763 3.4626
-15 -1 -6 -7.9688 3.4241
-15 -1 -5 4.1297 -7.8203
-15 -1 -4 9.7221 -1.2855
-15 -1 -3 -0.7263 -2.6463
-15 -1 -2 -0.3917 -0.0452
-15 -1 -1 1.6582 9.2567
-14 -10 -9 -3.2667 0.8443
-14 -10 -8 4.8492 -2.4144
-14 -10 -7 -7.1734 0.5333
-14 -10 -6 -0.1424 4.6961
-14 -10 -5 -1.2472 -6.5253
-14 -10 -4 -0.3987 -2.0949
-14 -10 -3 -4.1314 -2.6914
-14 -10 -2 -0.3079 -4.7094
-14 -10 -1 -1.6757 0.9130
-14 -9 -14 -5.3708 0.6028
-14 -9 -13 -0.5655 7.5827
-14 -9 -12 -2.8287 7.6930
-14 -9 -11 -6.4434 -0.2800
-14 -9 -10 0.2631 -4.1122
-14 -9 -9 -3.3381 -0.7081
-14 -9 -8 2.0911 4.3610
-14 -9 -7 -0.8131 3.4973
-14 -9 -6 2.3767 5.7588
-14 -9 -5 -9.1853 -4.3333
-14 -9 -4 -9.7426 6.8265
-14 -9 -3 8.7452 -3.6404
-14 -9 -2 0.9369 -5.1761
-14 -9 -1 -2.1881 -0.3111
-14 -8 -17 6.3737 -5.3393
-14 -8 -16 -0.4773 1.5949
-14 -8 -15 9.7530 6.8259
-14 -8 -14 5.4951 -4.3272
-14 -8 -13 -2.5893 9.6193
-14 -8 -12 1.2483 -1.8308
-14 -8 -11 0.2899 2.9419
-14 -8 -10 2.6257 -0.3376
-14 -8 -9 3.2825 -1.4825
-14 -8 -8 -0.9487 -1.2939
-14 -8 -7 5.6403 1.6224
-14 -8 -6 5.9676 6.4766
-14 -8 -5 -6.5707 -0.6541
-14 -8 -4 -8.3464 2.0971
-14 -8 -3 8.1908 -0.7616
-14 -8 -2 -2.0001 0.7043
-14 -8 -1 0.6696 9.4493
-14 -7 -20 -2.9487 -2.7882
-14 -7 -19 -6.2246 1.0633
-14 -7 -18 -1.7272 -6.8171
-14 -7 -17 4.0430 0.5998
-14 -7 -16 -0.8359 -1.8608
-14 -7 -15 4.6515 -1.8848
-14 -7 -14 -1.8060 -7.9497
-14 -7 -13 -7.9442 1.8879
-14 -7 -12 9.5455 -4.5608
-14 -7 -11 -7.4783 0.5046
-14 -7 -10 1.7032 -0.1194
-14 -7 -9 -3.1727 -5.1153
-14 -7 -8 6.4879 -4.3487
-14 -7 -7 -4.2197 2.8434
-14 -7 -6 5.0243 -2.3603
-14 -7 -5 2.8174 -1.7900
-14 -7 -4 7.6347 3.3490
-14 -7 -3 0.4970 -5.2445
-14 -7 -2 -0.3461 -10.8515
-14 -7 -1 6.2612 -2.0177
-14 -6 -22 4.6213 8.3343
-14 -6 -21 -4.8545 5.5719
-14 -6 -20 0.7718 0.8876
-14 -6 -19 0.0452 -2.9659
-14 -6 -18 1.3729 1.0380
-14 -6 -17 -5.0915 4.6752
-14 -6 -16 -3.7914 5.2941
-14 -6 -15 -1.0241 0.2797
-14 -6 -14 -4.0282 0.9593
-14 -6 -13 -0.5572 3.5734
-14 -6 -12 4.4349 -2.6281
-14 -6 -11 -5.7682 -5.1971
-14 -6 -10 -2.2249 7.6872
-14 -6 -9 -5.4863 -6.4358
-14 -6 -8 1.8355 2.9674
-14 -6 -7 1.5332 -11.5712
-14 -6 -6 -2.1959 -0.4651
-14 -6 -5 -6.3740 -9.1191
-14 -6 -4 0.0573 10.6967
-14 -6 -3 -4.5234 -8.4348
-14 -6 -2 -13.5795 0.9609
-14 -6 -1 -3.1263 -6.7499
-14 -5 -23 4.6479 -1.5826
-14 -5 -22 -6.3050 1.9675
-14 -5 -21 1.4506 -2.1448
-14 -5 -20 0.5838 3.9912
-14 -5 -19 11.5657 -3.2258
-14 -5 -18 7.8246 -0.2785
-14 -5 -17 -0.6991 -1.9921
-14 -5 -16 -0.2261 4.5945
-14 -5 -15 -2.0207 1.1425
-14 -5 -14 -4.8155 -7.7438
-14 -5 -13 5.6572 8.2527
-14 -5 -12 -6.0778 2.4061
-14 -5 -11 -6.7178 -0.8109
-14 -5 -10 2.8454 -2.3122
-14 -5 -9 -1.4640 -2.3039
-14 -5 -8 -13.4932 4.0724
-14 -5 -7 4.6361 -1.4423
-14 -5 -6 0.8378 1.1201
-14 -5 -5 9.2554 6.7462
-14 -5 -4 -8.2060 9.0062
-14 -5 -3 6.6205 -1.8153
-14 -5 -2 -10.3300 -0.6720
-14 -5 -1 -1.6265 0.7626
-14 -4 -25 -7.4842 -1.5140
-14 -4 -24 -4.3262 -1.3253
-14 -4 -23 6.5503 -7.0739
-14 -4 -22 0.2972 7.4720
-14 -4 -21 -1.6760 -8.5181
-14 -4 -20 -9.1676 -12.3676
-14 -4 -19 -2.8061 0.7686
-14 -4 -18 0.1407 2.4910
-14 -4 -17 -0.0182 7.0220
-14 -4 -16 -0.9117 2.2247
-14 -4 -15 7.4070 -0.5295
-14 -4 -14 1.9556 5.2878
-14 -4 -13 -8.7539 8.2105
-14 -4 -12 4.4499 -2.1799
-14 -4 -11 -7.9457 11.8473
-14 -4 -10 1.6005 -1.7527
-14 -4 -9 0.7344 -5.2414
-14 -4 -8 2.2703 -7.2826
-14 -4 -7 0.9868 -4.7155
-14 -4 -6 0.7264 -4.6916
-14 -4 -5 3.2214 4.1826
-14 -4 -4 -0.9553 -7.2874
-14 -4 -3 -4.1702 10.9098
-14 -4 -2 -1.1229 9.6793
-14 -4 -1 7.2441 8.5857
-14 -3 -25 -9.2239 -1.2008
-14 -3 -24 4.8788 5.9735
-14 -3 -23 -10.1698 -7.7447
-14 -3 -22 3.6334 8.5810
-14 -3 -21 6.4961 6.5258
-14 -3 -20 -3.7054 -1.3452
-14 -3 -19 1.6433 0.8733
-14 -3 -18 1.5918 -3.1521
-14 -3 -17 6.4988 -3.7857
-14 -3 -16 9.6310 -4.1239
-14 -3 -15 3.2090 -0.6558
-14 -3 -14 7.0966 3.0401
-14 -3 -13 0.5213 2.9288
-14 -3 -12 -0.3294 3.5818
-14 -3 -11 -9.0082 -8.3790
-14 -3 -10 -5.9253 5.0837
-14 -3 -9 -20.5560 0.0909
-14 -3 -8 4.3962 4.3924
-14 -3 -7 2.6981 -5.4425
-14 -3 -6 -1.7933 3.1177
-14 -3 -5 -4.2274 0.7510
-14 -3 -4 6.3046 -2.4902
-14 -3 -3 -2.2421 1.5587
-14 -3 -2 1.8906 1.3389
-14 -3 -1 -4.0879 -1.6281
-14 -2 -26 -0.2910 2.2424
-14 -2 -25 -3.8653 1.1332
-14 -2 -24 3.3938 -4.5180
-14 -2 -23 4.7933 -7.5239
-14 -2 -22 -12.7429 2.5685
-14 -2 -21 6.0598 -15.2926
-14 -2 -20 -4.0410 17.1267
-14 -2 -19 1.1318 -4.8186
-14 -2 -18 -8.4842 -11.3373
-14 -2 -17 -7.2410 -10.1229
-14 -2 -16 1.9321 -11.3239
-14 -2 -15 -1.6870 7.5649
-14 -2 -14 1.8354 13.7020
-14 -2 -13 1.0200 -0.1489
-14 -2 -12 -1.5357 11.2319
-14 -2 -11 9.6289 7.4269
-14 -2 -10 -0.9332 3.2715
-14 -2 -9 0.6631 -6.5483
-14 -2 -8 -3.9660 6.9829
-14 -2 -7 -1.3006 -3.6886
-14 -2 -6 -3.2630 5.6511
-14 -2 -5 8.2585 2.5989
-14 -2 -4 -5.1568 5.5329
-14 -2 -3 1.1101 -4.6204
-14 -2 -2 -3.4081 -3.8508
-14 -2 -1 -14.5617 -9.1609
-14 -1 -26 -5.9164 2.5604
-14 -1 -25 0.0247 -1.7799
-14 -1 -24 -3.7393 7.7856
-14 -1 -23 -8.2476 4.5209
-14 -1 -22 7.7489 -1.7267
-14 -1 -21 -3.0127 0.0860
-14 -1 -20 -12.3042 0.5291
-14 -1 -19 13.6852 15.0426
-14 -1 -18 -23.3911 -3.5313
-14 -1 -17 8.0840 9.2070
-14 -1 -16 7.0012 -2.8283
-14 -1 -15 7.0601 -5.2173
-14 -1 -14 10.8210 -0.0565
-14 -1 -13 -2.0401 -7.3668
-14 -1 -12 -9.9337 -2.9448
-14 -1 -11 0.5783 1.7325
-14 -1 -10 1.8125 4.0327
-14 -1 -9 6.2989 11.5637
-14 -1 -8 -1.0282 -5.2718
-14 -1 -7 0.6776 -2.3783
-14 -1 -6 -3.7289 3.9611
-14 -1 -5 -1.4007 -0.4161
-14 -1 -4 -5.9188 4.7885
-14 -1 -3 -5.4709 18.7098
-14 -1 -2 -8.3031 -6.1990
-14 -1 -1 3.6029 2.7005
-13 -11 -11 -0.9294 6.7458
-13 -11 -10 2.9643 1.4219
-13 -11 -9 -5.5677 0.4482
-13 -11 -8 2.3561 -4.1187
-13 -11 -7 -6.3654 -2.1672
-13 -11 -6 3.5480 -6.2006
-13 -11 -5 -2.3085 0.1701
-13 -11 -4 2.6265 12.1230
-13 -11 -3 -2.6414 -6.2823
-13 -11 -2 1.2970 -3.9670
-13 -11 -1 -8.5119 6.8519
-13 -10 -16 -3.6336 3.7039
-13 -10 -15 -6.2474 -10.1355
-13 -10 -14 3.7993 -2.1706
-13 -10 -13 -5.2182 2.9998
-13 -10 -12 4.5596 -0.0602
-13 -10 -11 2.8031 2.7379
-13 -10 -10 3.8609 3.6451
-13 -10 -9 -13.2854 2.3859
-13 -10 -8 -3.2872 7.0938
-13 -10 -7 3.1974 -7.3390
-13 -10 -6 0.8960 1.4907
-13 -10 -5 -1.9232 -1.4239
-13 -10 -4 2.3335 7.3873
-13 -10 -3 0.5690 2.0162
-13 -10 -2 -10.9085 9.3113
-13 -10 -1 0.3154 3.3990
-13 -9 -20 -5.3287 -2.9320
-13 -9 -19 11.6707 4.0022
-13 -9 -18 -11.5952 5.3576
-13 -9 -17 8.9710 3.8251
-13 -9 -16 -0.2520 -1.3505
-13 -9 -15 1.3887 1.0227
-13 -9 -14 -1.8865 4.2700
-13 -9 -13 5.3548 1.0408
-13 -9 -12 4.9701 0.4312
-13 -9 -11 0.2328 0.6189
-13 -9 -10 6.7176 4.6601
-13 -9 -9 1.0458 4.8785
-13 -9 -8 -1.8734 4.6925
-13 -9 -7 -2.1307 -4.8140
-13 -9 -6 -3.8866 4.3057
-13 -9 -5 9.1748 1.8345
-13 -9 -4 4.1668 -5.3616
-13 -9 -3 6.9362 3.0245
-13 -9 -2 -6.3903 4.5741
-13 -9 -1 -0.9140 -0.5159
-13 -8 -22 1.1464 -3.3975
-13 -8 -21 8.5829 -4.6161
-13 -8 -20 9.9687 -4.0184
-13 -8 -19 3.0675 -8.7641
-13 -8 -18 -0.5991 -4.0521
-13 -8 -17 -1.4343 13.3808
-13 -8 -16 6.6343 -17.4294
-13 -8 -15 7.5617 6.2369
-13 -8 -14 1.7599 -2.3538
-13 -8 -13 2.4075 -2.5192
-13 -8 -12 3.4234 -7.5388
-13 -8 -11 1.6800 -2.3973
-13 -8 -10 2.8462 5.9520
-13 -8 -9 3.8666 3.0951
-13 -8 -8 8.5602 1.8954
-13 -8 -7 -6.8069 -0.1368
-13 -8 -6 -5.0684 0.3359
-13 -8 -5 5.3746 -1.1640
-13 -8 -4 -0.3700 -1.6470
-13 -8 -3 -1.1413 6.7154
-13 -8 -2 7.4794 3.1613
-13 -8 -1 -3.5501 8.3834
-13 -7 -24 -6.3679 -3.8673
-13 -7 -23 -5.3015 -9.2993
-13 -7 -22 -9.3205 -3.8986
-13 -7 -21 -8.4483 -6.8695
-13 -7 -20 3.6000 1.6282
-13 -7 -19 -1.1176 -0.8047
-13 -7 -18 -2.3926 -4.0837
-13 -7 -17 4.0201 -6.5791
-13 -7 -16 -0.2888 -4.1663
-13 -7 -15 -15.1504 -0.6303
-13 -7 -14 9.2336 -6.4962
-13 -7 -13 -5.6638 -0.7302
-13 -7 -12 7.1910 1.0175
-13 -7 -11 0.8822 0.1809
-13 -7 -10 1.8990 -7.0365
-13 -7 -9 2.7488 -0.0062
-13 -7 -8 2.2091 4.2274
-13 -7 -7 -0.5747 -0.8364
-13 -7 -6 3.3265 5.9213
-13 -7 -5 2.3808 -8.3117
-13 -7 -4 3.9634 -1.7178
-13 -7 -3 0.1521 1.3855
-13 -7 -2 -0.8953 -2.6030
-13 -7 -1 -4.4430 0.8453
-13 -6 -26 1.2677 8.4020
-13 -6 -25 -8.6082 10.1230
-13 -6 -24 -3.0609 9.4194
-13 -6 -23 -2.9235 -1.6846
-13 -6 -22 7.2708 -2.6648
-13 -6 -21 -3.0739 3.0619
-13 -6 -20 -7.1172 -0.1395
-13 -6 -19 -2.5837 -0.2724
-13 -6 -18 -0.7853 8.4067
-13 -6 -17 6.8638 -2.1264
-13 -6 -16 -8.7779 0.8533
-13 -6 -15 -5.3209 -0.5469
-13 -6 -14 8.1207 -3.3988
-13 -6 -13 0.7549 -6.3783
-13 -6 -12 1.2945 5.1078
-13 -6 -11 -0.7769 -3.8805
-13 -6 -10 2.5757 6.5309
-13 -6 -9 -2.0865 -6.0105
-13 -6 -8 4.3469 -1.0964
-13 -6 -7 -2.1405 0.9690
-13 -6 -6 -0.1454 3.3465
-13 -6 -5 -2.3096 -1.3420
-13 -6 -4 -9.5242 5.9791
-13 -6 -3 10.5648 1.9052
-13 -6 -2 9.1004 2.6673
-13 -6 -1 5.4970 -10.2407
-13 -5 -27 7.6247 3.3662
-13 -5 -26 8.7355 8.0425
-13 -5 -25 0.0208 -4.8166
-13 -5 -24 -4.7151 -2.2070
-13 -5 -23 -2.5456 -2.7227
-13 -5 -22 1.5643 4.4842
-13 -5 -21 10.5000 0.0419
-13 -5 -20 4.6206 3.1802
-13 -5 -19 -3.6925 -10.1852
-13 -5 -18 1.0281 1.5505
-13 -5 -17 -2.4311 3.6969
-13 -5 -16 -9.4160 -6.7298
-13 -5 -15 5.0235 1.8132
-13 -5 -14 -2.0153 -9.5296
-13 -5 -13 4.2669 -3.3107
-13 -5 -12 3.6799 2.1331
-13 -5 -11 -3.5991 -5.7610
-13 -5 -10 3.7144 2.3369
-13 -5 -9 10.9517 3.9477
-13 -5 -8 -4.3073 -1.1175
-13 -5 -7 5.9597 -0.6208
-13 -5 -6 6.5234 10.9330
-13 -5 -5 5.8922 -4.0815
-13 -5 -4 -4.4662 -5.0459
-13 -5 -3 -5.9336 -8.4396
-13 -5 -2 -5.4300 -8.3905
-13 -5 -1 8.3402 8.7589
-13 -4 -28 3.4016 -3.8386
-13 -4 -27 0.2703 -8.0147
-13 -4 -26 0.6042 6.1406
-13 -4 -25 -0.7698 -1.9318
-13 -4 -24 -4.5476 -3.2282
-13 -4 -23 2.1157 -5.6204
-13 -4 -22 -3.7785 1.3732
-13 -4 -21 -5.5558 -1.4655
-13 -4 -20 1.6079 -4.1861
-13 -4 -19 3.4204 6.4495
-13 -4 -18 -10.9348 7.7594
-13 -4 -17 -4.8940 0.5561
-13 -4 -16 -7.3249 0.8262
-13 -4 -15 3.3603 -2.2937
-13 -4 -14 0.9385 -7.6421
-13 -4 -13 -15.7236 4.6854
-13 -4 -12 6.2410 -7.7303
-13 -4 -11 9.5068 -8.1308
-13 -4 -10 -3.9475 -4.0096
-13 -4 -9 4.4914 -7.7280
-13 -4 -8 6.5688 -1.9008
-13 -4 -7 -1.8025 1.1058
-13 -4 -6 0.1885 -3.7657
-13 -4 -5 -2.0254 3.2131
-13 -4 -4 -9.9144 4.2625
-13 -4 -3 5.8640 -1.2712
-13 -4 -2 1.8770 -6.4554
-13 -4 -1 -0.7229 -2.8233
-13 -3 -29 -4.9977 4.3153
-13 -3 -28 0.4243 -3.7221
-13 -3 -27 -5.0861 5.4349
-13 -3 -26 -5.9141 -0.2069
-13 -3 -25 0.0653 -4.1277
-13 -3 -24 3.4130 9.2876
-13 -3 -23 7.1306 6.2128
-13 -3 -22 -4.1713 -4.0753
-13 -3 -21 1.1060 -0.2175
-13 -3 -20 -2.2533 6.4579
-13 -3 -19 8.5569 5.7148
-13 -3 -18 8.5212 12.2025
-13 -3 -17 -0.4325 -0.9189
-13 -3 -16 -7.2430 -6.7594
-13 -3 -15 -4.1114 6.1847
-13 -3 -14 0.2974 -2.8566
-13 -3 -13 -9.8208 2.6168
-13 -3 -12 -7.0292 0.6232
-13 -3 -11 -5.1064 -10.1888
-13 -3 -10 0.3573 -5.3096
-13 -3 -9 -1.5102 4.9564
-13 -3 -8 0.1748 -5.5398
-13 -3 -7 3.5165 4.2449
-13 -3 -6 0.5951 7.8694
-13 -3 -5 -4.4546 -0.1368
-13 -3 -4 -2.0117 -0.0689
-13 -3 -3 5.2872 3.2170
-13 -3 -2 -1.3586 -2.8867
-13 -3 -1 0.6318 -1.9733
-13 -2 -29 2.4266 -3.0595
-13 -2 -28 7.7419 5.6273
-13 -2 -27 -5.9807 1.9735
-13 -2 -26 5.7892 -4.8383
-13 -2 -25 -3.3119 -11.2481
-13 -2 -24 3.7163 2.1167
-13 -2 -23 10.6263 -0.8122
-13 -2 -22 1.2629 4.9234
-13 -2 -21 0.8398 -1.1031
-13 -2 -20 8.3864 -9.8996
-13 -2 -19 -0.1350 1.0187
-13 -2 -18 -5.6588 -3.2410
-13 -2 -17 6.4800 9.3357
-13 -2 -16 -4.7189 -0.6329
-13 -2 -15 -1.3840 7.0448
-13 -2 -14 2.4141 11.2368
-13 -2 -13 1.7762 -1.2190
-13 -2 -12 1.9877 1.3536
-13 -2 -11 -10.9560 -0.9503
-13 -2 -10 1.6745 -0.0710
-13 -2 -9 5.5586 -1.9789
-13 -2 -8 14.2262 -2.8826
-13 -2 -7 0.3595 0.1289
-13 -2 -6 5.9996 4.1529
-13 -2 -5 -2.7373 -2.1042
-13 -2 -4 1.2674 -1.4898
-13 -2 -3 -3.6283 -5.7222
-13 -2 -2 -5.3289 -6.9083
-13 -2 -1 -3.8459 5.6105
-13 -1 -30 9.4668 -0.9281
-13 -1 -29 -4.9620 4.6777
-13 -1 -28 -4.6650 -4.0874
-13 -1 -27 -4.0389 -2.9003
-13 -1 -26 0.4574 2.7365
-13 -1 -25 0.3085 -8.0663
-13 -1 -24 2.7458 -5.4928
-13 -1 -23 3.1122 -12.4712
-13 -1 -22 -6.6129 4.1223
-13 -1 -21 9.4615 9.7398
-13 -1 -20 -3.5574 5.4007
-13 -1 -19 3.2724 -8.7579
-13 -1 -18 0.0803 -1.4527
-13 -1 -17 -3.7922 0.4608
-13 -1 -16 18.4842 1.0906
-13 -1 -15 -2.1459 -1.2232
-13 -1 -14 2.0241 -5.2789
-13 -1 -13 -2.6594 1.0071
-13 -1 -12 -4.3730 -7.3005
-13 -1 -11 -0.4830 -1.6334
-13 -1 -10 -4.0771 -1.2895
-13 -1 -9 -0.5295 -18.8795
-13 -1 -8 1.3575 0.3245
-13 -1 -7 -0.0381 -1.6059
-13 -1 -6 1.8976 5.3561
-13 -1 -5 -0.7212 -2.1334
-13 -1 -4 -11.3155 7.4205
-13 -1 -3 -1.7940 -1.9044
-13 -1 -2 3.0316 5.8889
-13 -1 -1 4.7256 -1.5751
-12 -13 -3 7.0003 -2.1181
-12 -13 -2 -3.4901 -2.8354
-12 -12 -13 -4.4624 -4.8932
-12 -12 -12 -5.1737 -2.7292
-12 -12 -11 -0.4442 -2.8170
-12 -12 -10 4.2019 -1.3471
-12 -12 -9 -5.1378 4.1154
-12 -12 -8 7.3377 2.4160
-12 -12 -7 1.4949 -8.0513
-12 -12 -6 -4.1098 1.9782
-12 -12 -5 -0.1204 -1.0022
-12 -12 -4 -3.8811 -4.1714
-12 -12 -3 -5.1823 -2.6010
-12 -12 -2 4.0678 3.4181
-12 -12 -1 -1.1451 6.1609
-12 -11 -17 -0.0331 3.0100
-12 -11 -16 -7.3555 -4.6964
-12 -11 -15 2.9068 0.8139
-12 -11 -14 -8.5664 6.5364
-12 -11 -13 3.6698 -2.7085
-12 -11 -12 -3.4907 0.3024
-12 -11 -11 -3.5904 -1.7152
-12 -11 -10 -3.4861 -6.9561
-12 -11 -9 0.4731 -7.5533
-12 -11 -8 2.2444 3.1000
-12 -11 -7 -2.8736 -1.0439
-12 -11 -6 0.5434 7.0811
-12 -11 -5 5.0177 3.3238
-12 -11 -4 -5.7408 -6.7469
-12 -11 -3 -5.3722 2.6612
-12 -11 -2 3.0141 -7.7075
-12 -11 -1 -0.5623 -3.6147
-12 -10 -21 -0.8741 2.2779
-12 -10 -20 -0.7708 -8.2858
-12 -10 -19 0.6228 7.4517
-12 -10 -18 0.6682 0.6944
-12 -10 -17 -0.1804 10.3181
-12 -10 -16 -0.9163 -9.7838
-12 -10 -15 -3.1111 1.7875
-12 -10 -14 0.3120 -1.5863
-12 -10 -13 -0.1073 7.4046
-12 -10 -12 -8.8750 -1.6252
-12 -10 -11 -7.8241 3.8271
-12 -10 -10 1.1668 -1.0900
-12 -10 -9 2.4618 -11.4473
-12 -10 -8 3.0705 -7.9916
-12 -10 -7 4.3046 1.5822
-12 -10 -6 -3.5428 8.3272
-12 -10 -5 -0.2613 1.7582
-12 -10 -4 -4.6852 2.4131
-12 -10 -3 -5.4656 5.6108
-12 -10 -2 8.5119 -0.2032
-12 -10 -1 -3.8937 -2.6001
-12 -9 -24 3.5580 -3.5613
-12 -9 -23 -0.5561 2.6787
-12 -9 -22 -5.1869 5.0662
-12 -9 -21 0.6342 -1.5490
-12 -9 -20 -0.1303 -0.3985
-12 -9 -19 3.7414 2.2319
-12 -9 -18 1.5098 -0.7622
-12 -9 -17 -8.1124 -3.0407
-12 -9 -16 1.7595 7.5859
-12 -9 -15 -9.1230 6.6191
-12 -9 -14 9.0059 -3.4864
-12 -9 -13 -1.7677 -0.2134
-12 -9 -12 -1.8469 1.0604
-12 -9 -11 -10.4774 0.4103
-12 -9 -10 -8.1965 -5.1402
-12 -9 -9 -3.5662 -3.6350
-12 -9 -8 -2.4275 2.6570
-12 -9 -7 12.0945 -0.8458
-12 -9 -6 7.9753 -1.4763
-12 -9 -5 -1.5000 3.8403
-12 -9 -4 -6.1208 -5.1198
-12 -9 -3 2.1472 0.5653
-12 -9 -2 2.4837 -2.2816
-12 -9 -1 -10.7745 -7.4666
-12 -8 -26 -1.6095 -4.9781
-12 -8 -25 -3.2146 -2.9795
-12 -8 -24 1.7206 7.0388
-12 -8 -23 1.7789 5.5673
-12 -8 -22 2.9013 -4.6067
-12 -8 -21 3.9187 -3.2510
-12 -8 -20 -7.7481 0.6309
-12 -8 -19 -2.5733 10.1391
-12 -8 -18 7.5991 -2.0609
-12 -8 -17 0.2806 2.0942
-12 -8 -16 -6.4754 2.4751
-12 -8 -15 2.7655 1.1741
-12 -8 -14 -3.2457 2.1401
-12 -8 -13 -12.2073 -3.8285
-12 -8 -12 1.4322 10.5425
-12 -8 -11 3.7276 4.2776
-12 -8 -10 1.6019 -0.5544
-12 -8 -9 -9.6670 -3.3720
-12 -8 -8 -1.6269 -8.6887
-12 -8 -7 0.4533 -0.8869
-12 -8 -6 0.9981 -4.0446
-12 -8 -5 -0.2044 4.1761
-12 -8 -4 1.1107 3.8937
-12 -8 -3 -5.8039 -0.3825
-12 -8 -2 8.1724 -9.6681
-12 -8 -1 -10.0948 -11.9277
-12 -7 -28 -2.7198 0.0420
-12 -7 -27 0.5419 -2.4952
-12 -7 -26 10.8822 0.2547
-12 -7 -25 -5.6582 1.6160
-12 -7 -24 -3.3023 0.0815
-12 -7 -23 -4.4430 -3.6153
-12 -7 -22 4.2243 0.0187
-12 -7 -21 6.9109 2.8055
-12 -7 -20 4.5571 3.4288
-12 -7 -19 -8.4270 5.6649
-12 -7 -18 1.1849 -0.8738
-12 -7 -17 1.0136 3.5273
-12 -7 -16 2.3210 4.7058
-12 -7 -15 -3.9154 3.8186
-12 -7 -14 0.2928 1.0089
-12 -7 -13 -3.5386 3.4298
-12 -7 -12 -0.6427 2.1854
-12 -7 -11 0.0165 -3.1331
-12 -7 -10 -7.4816 3.2109
-12 -7 -9 -6.5795 2.1695
-12 -7 -8 0.8213 3.9246
-12 -7 -7 -5.0731 -8.4745
-12 -7 -6 1.5578 -0.3722
-12 -7 -5 -4.8368 -5.6072
-12 -7 -4 -5.4777 2.3523
-12 -7 -3 -13.1558 3.8047
-12 -7 -2 -13.2907 5.2828
-12 -7 -1 -0.6807 -13.7472
-12 -6 -29 6.6062 -0.9251
-12 -6 -28 -9.1378 -2.2177
-12 -6 -27 -2.8858 0.1173
-12 -6 -26 0.5764 3.6621
-12 -6 -25 4.6878 6.2309
-12 -6 -24 -4.1219 2.2313
-12 -6 -23 5.5302 -15.6367
-12 -6 -22 3.1603 -0.4343
-12 -6 -21 -0.1106 6.3670
-12 -6 -20 4.4215 7.0878
-12 -6 -19 8.8332 -4.7670
-12 -6 -18 -3.1660 5.4108
-12 -6 -17 -2.6848 -1.9659
-12 -6 -16 8.5034 2.5983
-12 -6 -15 0.6349 5.3165
-12 -6 -14 3.0593 5.6113
-12 -6 -13 3.0056 7.4125
-12 -6 -12 -1.7898 7.0175
-12 -6 -11 -2.9321 -2.5089
-12 -6 -10 -2.7093 5.0728
-12 -6 -9 2.1881 5.2553
-12 -6 -8 -1.0475 3.1120
-12 -6 -7 -3.7148 3.7196
-12 -6 -6 -7.7703 11.3637
-12 -6 -5 5.5626 6.3249
-12 -6 -4 2.3412 10.5560
-12 -6 -3 4.4652 -2.5516
-12 -6 -2 -13.3064 -2.5303
-12 -6 -1 -7.8958 7.8547
-12 -5 -30 -5.8425 -1.5210
-12 -5 -29 4.1557 10.2610
-12 -5 -28 1.5722 -3.8204
-12 -5 -27 4.7550 7.3644
-12 -5 -26 -4.8327 -3.3500
-12 -5 -25 -5.3227 -8.6529
-12 -5 -24 0.5934 -3.7936
-12 -5 -23 3.8423 5.4005
-12 -5 -22 1.5531 -6.2915
-12 -5 -21 -1.8069 2.6258
-12 -5 -20 -1.0426 1.2316
-12 -5 -19 5.8792 -5.9267
-12 -5 -18 -0.0793 -7.7335
-12 -5 -17 5.5473 5.6618
-12 -5 -16 -3.7927 -3.5335
-12 -5 -15 13.5651 -3.9944
-12 -5 -14 10.1276 -0.5251
-12 -5 -13 -0.3431 1.7118
-12 -5 -12 1.5382 4.3888
-12 -5 -11 -2.3381 2.9247
-12 -5 -10 2.8704 -3.0738
-12 -5 -9 15.0948 4.4648
-12 -5 -8 0.9976 -0.7726
-12 -5 -7 0.0155 2.3984
-12 -5 -6 8.4196 -4.5214
-12 -5 -5 0.4265 -1.1646
-12 -5 -4 -7.7841 4.3930
-12 -5 -3 7.6823 5.6640
-12 -5 -2 7.3381 -0.3863
-12 -5 -1 3.5584 13.7712
-12 -4 -31 3.0900 -0.3153
-12 -4 -30 5.0742 -1.7580
-12 -4 -29 -8.0011 1.5693
-12 -4 -28 9.0309 -4.6926
-12 -4 -27 -6.6464 6.2460
-12 -4 -26 1.7764 0.6726
-12 -4 -25 -10.7650 0.2775
-12 -4 -24 -0.4285 -5.8365
-12 -4 -23 7.8407 6.7163
-12 -4 -22 2.8057 7.1544
-12 -4 -21 -7.5119 -4.1111
-12 -4 -20 -4.9197 -5.2299
-12 -4 -19 -6.6439 -5.6523
-12 -4 -18 3.8341 5.7475
-12 -4 -17 1.5441 -0.8881
-12 -4 -16 -0.5119 -9.2340
-12 -4 -15 -5.5573 0.7073
-12 -4 -14 6.2320 -7.5273
-12 -4 -13 -2.2767 4.3221
-12 -4 -12 9.7538 0.2096
-12 -4 -11 2.5328 -4.9099
-12 -4 -10 1.1722 -1.1189
-12 -4 -9 -7.6845 -0.9656
-12 -4 -8 0.1600 -6.6409
-12 -4 -7 -8.9526 5.0357
-12 -4 -6 11.0368 0.8141
-12 -4 -5 -1.8118 -11.2473
-12 -4 -4 2.0276 -7.0951
-12 -4 -3 3.2150 -0.2443
-12 -4 -2 11.9990 0.4633
-12 -4 -1 16.5077 0.0683
-12 -3 -32 -0.8139 0.3194
-12 -3 -31 -2.1381 2.4536
-12 -3 -30 -4.6638 -1.2143
-12 -3 -29 -1.3283 -0.1819
-12 -3 -28 3.2373 6.4456
-12 -3 -27 -2.9239 -5.1871
-12 -3 -26 8.8628 9.9402
-12 -3 -25 1.5747 -1.7825
-12 -3 -24 1.3482 4.2924
-12 -3 -23 -4.8523 -8.9806
-12 -3 -22 -0.4374 7.4404
-12 -3 -21 -1.0781 6.4583
-12 -3 -20 2.8804 -4.3725
-12 -3 -19 -0.8534 -3.2944
-12 -3 -18 -1.7123 7.0335
-12 -3 -17 10.5395 -2.5235
-12 -3 -16 -5.6304 -4.9996
-12 -3 -15 -4.2113 -6.2640
-12 -3 -14 0.4545 -4.1870
-12 -3 -13 -2.2202 -7.9813
-12 -3 -12 2.2923 2.5522
-12 -3 -11 4.1750 -5.8093
-12 -3 -10 -0.3798 15.7380
-12 -3 -9 -15.1883 2.0655
-12 -3 -8 0.2649 2.8264
-12 -3 -7 -5.0402 -13.1318
-12 -3 -6 -7.9672 3.9138
-12 -3 -5 -7.5105 -6.9149
-12 -3 -4 1.5313 4.7180
-12 -3 -3 8.7757 -18.9863
-12 -3 -2 -0.3084 2.4087
-12 -3 -1 -8.7817 4.9368
-12 -2 -32 6.0115 4.2574
-12 -2 -31 -0.9335 2.6439
-12 -2 -30 5.6295 1.6127
-12 -2 -29 0.7554 1.9250
-12 -2 -28 3.8348 -10.0281
-12 -2 -27 1.3320 -4.5607
-12 -2 -26 -1.3986 6.5884
-12 -2 -25 4.9609 -2.1069
-12 -2 -24 -0.5933 13.4676
-12 -2 -23 1.6596 -2.0266
-12 -2 -22 -13.7782 -9.3749
-12 -2 -21 4.6365 -5.8937
-12 -2 -20 0.3436 0.6228
-12 -2 -19 6.0010 -2.7931
-12 -2 -18 -11.8876 -2.2290
-12 -2 -17 -13.1471 -5.1105
-12 -2 -16 -11.1463 -0.0727
-12 -2 -15 -0.1369 11.5682
-12 -2 -14 1.4883 0.7688
-12 -2 -13 2.7803 -6.4206
-12 -2 -12 1.5698 -3.9407
-12 -2 -11 3.2069 16.1003
-12 -2 -10 -1.0607 2.6148
-12 -2 -9 0.3892 8.4763
-12 -2 -8 -14.5971 17.1480
-12 -2 -7 5.7413 -7.1944
-12 -2 -6 -6.9828 1.1480
-12 -2 -5 -2.1154 -6.6690
-12 -2 -4 -6.7973 -7.7302
-12 -2 -3 9.4798 0.7935
-12 -2 -2 -13.3965 2.7783
-12 -2 -1 1.7038 0.8151
-12 -1 -33 1.7078 5.7524
-12 -1 -32 -0.2565 -2.5786
-12 -1 -31 1.3303 -9.0005
-12 -1 -30 -6.0334 6.3020
-12 -1 -29 1.0246 -5.6806
-12 -1 -28 1.9705 0.5324
-12 -1 -27 -1.6855 -0.1019
-12 -1 -26 11.4281 1.7497
-12 -1 -25 2.7058 -3.3208
-12 -1 -24 -12.2553 6.6307
-12 -1 -23 1.8683 11.1288
-12 -1 -22 -12.5975 -1.3993
-12 -1 -21 -5.2063 -2.4260
-12 -1 -20 -3.1403 3.0425
-12 -1 -19 1.3427 22.8898
-12 -1 -18 2.1983 -2.0214
-12 -1 -17 -4.1012 10.5387
-12 -1 -16 2.4913 -8.1048
-12 -1 -15 9.1572 -2.4407
-12 -1 -14 0.6096 -5.1964
-12 -1 -13 2.5118 6.0436
-12 -1 -12 2.5384 3.7477
-12 -1 -11 3.4901 7.1522
-12 -1 -10 18.2003 7.8883
-12 -1 -9 -2.6156 -3.0304
-12 -1 -8 4.0307 3.3860
-12 -1 -7 -13.6076 11.2855
-12 -1 -6 -18.8983 1.9370
-12 -1 -5 5.9452 4.5943
-12 -1 -4 3.8816 -0.9181
-12 -1 -3 2.2985 7.7629
-12 -1 -2 8.5089 -1.4929
-12 -1 -1 8.3067 2.6064
-11 -13 -13 10.5883 6.8085
-11 -13 -12 -1.6460 -3.5057
-11 -13 -11 2.7329 8.0389
-11 -13 -10 -3.5537 6.1513
-11 -13 -9 -3.3431 2.4676
-11 -13 -8 1.2974 -4.2226
-11 -13 -7 4.9340 4.2093
-11 -13 -6 -7.6040 -2.3879
-11 -13 -5 13.8371 -1.5177
-11 -13 -4 -5.8080 -3.0689
-11 -13 -3 -0.8314 -1.4018
-11 -13 -2 5.8131 -2.6465
-11 -13 -1 -4.4223 -4.9305
-11 -12 -18 9.8403 3.2792
-11 -12 -17 -3.5149 -5.2290
-11 -12 -16 5.9851 -11.7908
-11 -12 -15 -2.2085 -4.5229
-11 -12 -14 6.7003 -5.1811
-11 -12 -13 5.8031 4.6358
-11 -12 -12 7.0298 1.2947
-11 -12 -11 -2.1884 9.6828
-11 -12 -10 10.8612 -9.6070
-11 -12 -9 -4.4904 2.4397
-11 -12 -8 -7.7767 0.2842
-11 -12 -7 -3.2107 -1.2217
-11 -12 -6 -2.8590 -0.3872
-11 -12 -5 -7.9789 2.7919
-11 -12 -4 2.0949 -11.4324
-11 -12 -3 -3.1652 6.7699
-11 -12 -2 8.2714 -4.6253
-11 -12 -1 -2.7318 5.5085
-11 -11 -21 -4.4905 -7.8413
-11 -11 -20 6.7056 -1.5607
-11 -11 -19 -3.9403 -0.2469
-11 -11 -18 -10.2920 -0.7742
-11 -11 -17 -3.4957 -9.8530
-11 -11 -16 8.7867 7.2025
-11 -11 -15 -1.4941 -8.4073
-11 -11 -14 6.3178 0.8569
-11 -11 -13 -1.7963 -8.0488
-11 -11 -12 2.5046 5.7678
-11 -11 -11 -2.6149 3.2050
-11 -11 -10 5.7094 8.7940
-11 -11 -9 -2.2042 2.6022
-11 -11 -8 7.3120 18.1902
-11 -11 -7 -3.5532 -1.4102
-11 -11 -6 -4.0683 -2.8371
-11 -11 -5 -7.8815 7.0901
-11 -11 -4 -2.0364 -2.6604
-11 -11 -3 5.0569 -9.6319
-11 -11 -2 14.5430 8.9070
-11 -11 -1 -2.5602 3.2853
-11 -10 -24 -1.0696 -2.4034
-11 -10 -23 3.0293 -0.8357
-11 -10 -22 -3.2350 -7.7118
-11 -10 -21 3.2604 5.4383
-11 -10 -20 -10.5022 13.6202
-11 -10 -19 7.5740 -5.4014
-11 -10 -18 -0.3175 -10.1536
-11 -10 -17 0.1149 -3.1503
-11 -10 -16 -1.4214 3.5915
-11 -10 -15 12.0636 -4.1964
-11 -10 -14 -6.5436 8.3536
-11 -10 -13 9.3404 -1.4795
-11 -10 -12 6.9933 -2.2242
-11 -10 -11 17.0747 -16.2607
-11 -10 -10 2.0513 2.5233
-11 -10 -9 3.6765 4.4969
-11 -10 -8 -2.2325 6.9419
-11 -10 -7 8.8077 7.9389
-11 -10 -6 -11.2907 4.0575
-11 -10 -5 0.1671 -3.9831
-11 -10 -4 8.0122 -4.9003
-11 -10 -3 4.1924 -7.6135
-11 -10 -2 12.9909 -5.9198
-11 -10 -1 12.0234 3.5530
-11 -9 -27 0.0899 1.5760
-11 -9 -26 1.2694 -14.4673
-11 -9 -25 5.6548 1.7814
-11 -9 -24 -7.7659 -2.7404
-11 -9 -23 -0.1482 5.7742
-11 -9 -22 1.8485 -3.5313
-11 -9 -21 5.3427 1.4085
-11 -9 -20 -1.1948 -8.2345
-11 -9 -19 -3.0297 3.4835
-11 -9 -18 0.5061 -14.9993
-11 -9 -17 1.5480 5.1509
-11 -9 -16 6.8869 -7.4475
-11 -9 -15 6.4641 -5.2902
-11 -9 -14 -10.1195 -11.1679
-11 -9 -13 -2.6273 3.3405
-11 -9 -12 -5.7121 -11.5317
-11 -9 -11 4.6714 -0.0917
-11 -9 -10 4.4385 1.0838
-11 -9 -9 19.9397 6.5426
-11 -9 -8 -0.3907 -4.0604
-11 -9 -7 -7.2477 5.0087
-11 -9 -6 -1.2899 -5.6166
-11 -9 -5 -6.8176 -1.0226
-11 -9 -4 2.8405 -14.8928
-11 -9 -3 -1.4211 -3.0024
-11 -9 -2 6.0149 8.1916
-11 -9 -1 1.9248 -2.1042
-11 -8 -29 -1.8321 1.2463
-11 -8 -28 -7.6015 -1.8811
-11 -8 -27 -6.5016 -7.7018
-11 -8 -26 -0.9662 2.5837
-11 -8 -25 0.4493 3.9588
-11 -8 -24 9.6998 -1.8816
-11 -8 -23 -11.9736 -3.3464
-11 -8 -22 -2.7200 -7.2331
-11 -8 -21 -7.2470 3.8577
-11 -8 -20 3.8785 -15.0008
-11 -8 -19 -8.3084 -0.4561
-11 -8 -18 -1.8568 1.9441
-11 -8 -17 -9.7535 -0.7956
-11 -8 -16 7.1518 -4.3768
-11 -8 -15 -8.5976 -2.4296
-11 -8 -14 5.0273 0.0968
-11 -8 -13 -0.8340 1.7887
-11 -8 -12 7.0503 -10.5693
-11 -8 -11 -6.0196 -1.6101
-11 -8 -10 3.6039 -5.7664
-11 -8 -9 3.8513 2.3301
-11 -8 -8 2.9601 -1.6404
-11 -8 -7 -7.6334 7.0417
-11 -8 -6 1.3948 -2.9266
-11 -8 -5 -2.1029 -3.5837
-11 -8 -4 10.6808 -6.8859
-11 -8 -3 -0.7523 -12.8126
-11 -8 -2 6.2687 11.6401
-11 -8 -1 3.5910 -4.0535
-11 -7 -30 -4.6362 2.9521
-11 -7 -29 3.9832 14.1167
-11 -7 -28 2.5631 -3.3818
-11 -7 -27 -2.2190 -3.9545
-11 -7 -26 -4.6589 -1.4261
-11 -7 -25 -9.7006 6.2993
-11 -7 -24 -2.0756 5.7468
-11 -7 -23 3.1270 0.6826
-11 -7 -22 -7.8221 4.9084
-11 -7 -21 -9.0172 -1.1573
-11 -7 -20 6.7429 8.9334
-11 -7 -19 -10.9809 -3.2692
-11 -7 -18 4.8227 4.0814
-11 -7 -17 -2.3264 -3.9179
-11 -7 -16 -5.5316 -0.7602
-11 -7 -15 -14.3561 -4.1144
-11 -7 -14 3.1615 2.8192
-11 -7 -13 3.2346 -4.4477
-11 -7 -12 0.0152 6.9542
-11 -7 -11 -3.7440 -3.5130
-11 -7 -10 2.6601 -3.4433
-11 -7 -9 -10.4049 -6.3527
-11 -7 -8 1.9828 3.8562
-11 -7 -7 -1.3534 -0.1141
-11 -7 -6 -8.2042 -3.3870
-11 -7 -5 -13.9356 -7.3874
-11 -7 -4 6.6349 2.7527
-11 -7 -3 -2.9302 -7.2605
-11 -7 -2 0.5583 2.9645
-11 -7 -1 9.9356 -4.7727
-11 -6 -32 -1.5049 2.6376
-11 -6 -31 7.5969 -1.3567
-11 -6 -30 -0.5880 -0.3391
-11 -6 -29 -0.6779 3.2091
-11 -6 -28 -0.1250 1.4374
-11 -6 -27 -2.7104 11.6069
-11 -6 -26 12.0142 4.9449
-11 -6 -25 3.1808 -5.8443
-11 -6 -24 -2.6688 1.3281
-11 -6 -23 4.5502 -2.8552
-11 -6 -22 10.5752 2.9009
-11 -6 -21 -1.8595 9.8184
-11 -6 -20 -4.5795 4.8910
-11 -6 -19 1.3075 -5.0681
-11 -6 -18 0.9257 6.4364
-11 -6 -17 8.9358 0.3623
-11 -6 -16 -1.9566 7.3918
-11 -6 -15 -0.7341 2.8714
-11 -6 -14 3.5633 4.1392
-11 -6 -13 2.8316 -12.8782
-11 -6 -12 -4.4192 2.8905
-11 -6 -11 -2.6669 7.4151
-11 -6 -10 3.0884 5.6775
-11 -6 -9 3.9858 1.5582
-11 -6 -8 -0.7998 9.7234
-11 -6 -7 1.9711 -0.6597
-11 -6 -6 -1.3588 2.7087
-11 -6 -5 -6.2935 1.3981
-11 -6 -4 -7.6359 1.6358
-11 -6 -3 6.1089 -8.2121
-11 -6 -2 1.0204 1.9404
-11 -6 -1 3.1734 -15.9073
-11 -5 -33 -2.0229 -3.5872
-11 -5 -32 6.7842 -2.2364
-11 -5 -31 10.1338 4.3393
-11 -5 -30 0.3777 1.7048
-11 -5 -29 2.7805 0.8926
-11 -5 -28 -0.3723 -10.1136
-11 -5 -27 -5.4800 -2.6616
-11 -5 -26 3.1685 0.1667
-11 -5 -25 1.1870 -9.1173
-11 -5 -24 -2.7372 -3.8183
-11 -5 -23 0.5253 -0.3925
-11 -5 -22 6.8909 -2.0390
-11 -5 -21 8.1781 1.4715
-11 -5 -20 -6.2918 -0.6990
-11 -5 -19 -0.3941 -15.1044
-11 -5 -18 2.8338 -6.7309
-11 -5 -17 7.5057 -0.8694
-11 -5 -16 2.9539 1.1817
-11 -5 -15 -0.5200 1.5332
-11 -5 -14 -4.6043 -3.2238
-11 -5 -13 -2.4821 -1.5662
-11 -5 -12 -4.5736 -6.1276
-11 -5 -11 10.4872 -9.8744
-11 -5 -10 8.6595 -0.7197
-11 -5 -9 3.0883 1.6378
-11 -5 -8 -3.2698 2.3266
-11 -5 -7 -6.0644 0.9007
-11 -5 -6 2.3035 8.4972
-11 -5 -5 11.2772 0.6025
-11 -5 -4 -6.3257 -4.2615
-11 -5 -3 -12.2841 -3.9206
-11 -5 -2 4.2574 -0.9514
-11 -5 -1 19.3333 13.9543
-11 -4 -34 1.6026 -11.2050
-11 -4 -33 1.1631 1.4075
-11 -4 -32 1.8552 -10.5280
-11 -4 -31 3.9019 0.0245
-11 -4 -30 -1.5234 -0.3808
-11 -4 -29 -6.4992 11.7853
-11 -4 -28 -6.5282 -4.9675
-11 -4 -27 -4.9224 -7.2029
-11 -4 -26 0.4253 2.2706
-11 -4 -25 -3.7158 1.5904
-11 -4 -24 2.0679 -3.1994
-11 -4 -23 0.7290 0.0315
-11 -4 -22 -7.8028 6.2332
-11 -4 -21 -11.3526 -8.2426
-11 -4 -20 -1.2227 -3.5307
-11 -4 -19 -4.9450 2.3217
-11 -4 -18 -3.5357 -3.4455
-11 -4 -17 1.4417 7.5624
-11 -4 -16 -4.1881 2.8127
-11 -4 -15 4.7545 2.9579
-11 -4 -14 -6.7995 3.6154
-11 -4 -13 -18.1648 3.1181
-11 -4 -12 -0.6858 -2.8807
-11 -4 -11 12.0393 -4.5884
-11 -4 -10 1.5108 -8.0003
-11 -4 -9 -0.0512 6.6639
-11 -4 -8 7.1451 5.1608
-11 -4 -7 -1.5981 -10.5460
-11 -4 -6 -6.1269 1.7701
-11 -4 -5 3.4882 2.3407
-11 -4 -4 -2.2538 -5.3351
-11 -4 -3 7.3576 -2.5554
-11 -4 -2 0.6204 -8.2627
-11 -4 -1 -9.8665 -14.0101
-11 -3 -34 -1.2534 -4.1578
-11 -3 -33 -2.7186 -3.2875
-11 -3 -32 1.5724 1.2068
-11 -3 -31 -10.9556 1.8948
-11 -3 -30 7.7610 2.9478
-11 -3 -29 -9.1457 4.6122
-11 -3 -28 8.9772 3.6505
-11 -3 -27 -4.8527 1.1418
-11 -3 -26 -0.2269 -10.8549
-11 -3 -25 1.1304 -1.0594
-11 -3 -24 0.7151 11.8503
-11 -3 -23 2.5483 1.6305
-11 -3 -22 -0.9881 6.1640
-11 -3 -21 -5.3480 2.2581
-11 -3 -20 -0.1013 0.1440
-11 -3 -19 23.1333 1.2594
-11 -3 -18 7.0796 11.7101
-11 -3 -17 0.1409 -4.0232
-11 -3 -16 0.1555 -5.1869
-11 -3 -15 -3.8170 6.7483
-11 -3 -14 8.3679 -0.5584
-11 -3 -13 0.0304 -1.0512
-11 -3 -12 -3.1161 -3.4083
-11 -3 -11 -5.0189 -6.1769
-11 -3 -10 3.1382 -6.2717
-11 -3 -9 -13.3130 8.4278
-11 -3 -8 10.2815 2.7501
-11 -3 -7 8.5024 -4.6244
-11 -3 -6 -7.8018 7.8923
-11 -3 -5 -0.0151 -3.4998
-11 -3 -4 -3.8305 0.1187
-11 -3 -3 0.1820 15.6903
-11 -3 -2 7.3911 11.1926
-11 -3 -1 -3.9255 8.5070
-11 -2 -35 -3.8279 5.3596
-11 -2 -34 -1.5186 6.1990
-11 -2 -33 0.6783 6.8203
-11 -2 -32 4.5600 -2.8854
-11 -2 -31 2.0867 7.1703
-11 -2 -30 -2.6283 -1.4400
-11 -2 -29 -1.5127 -14.7289
-11 -2 -28 -3.8783 9.3860
-11 -2 -27 -2.8015 -2.9115
-11 -2 -26 2.8211 11.6454
-11 -2 -25 -3.8122 -12.0463
-11 -2 -24 10.1932 -1.4235
-11 -2 -23 6.0398 1.1144
-11 -2 -22 -2.5157 -13.3657
-11 -2 -21 7.2929 -11.9977
-11 -2 -20 1.5244 -5.1014
-11 -2 -19 1.4584 -7.3750
-11 -2 -18 -5.3458 0.0914
-11 -2 -17 -1.4809 13.0502
-11 -2 -16 -4.5003 -8.4803
-11 -2 -15 -8.5496 0.3810
-11 -2 -14 -0.0844 3.7851
-11 -2 -13 7.3080 -3.4258
-11 -2 -12 2.2023 2.2671
-11 -2 -11 -10.8928 3.3566
-11 -2 -10 3.8166 6.0384
-11 -2 -9 3.7168 -18.0611
-11 -2 -8 12.4772 -2.3194
-11 -2 -7 0.4861 -17.5003
-11 -2 -6 7.1599 8.8446
-11 -2 -5 17.6231 -2.0513
-11 -2 -4 7.5744 -8.4516
-11 -2 -3 11.9394 0.4753
-11 -2 -2 -0.6913 4.5890
-11 -2 -1 -6.4219 17.9136
-11 -1 -35 0.3355 4.8155
-11 -1 -34 2.8684 -5.6257
-11 -1 -33 -3.2888 -0.9754
-11 -1 -32 -1.7729 4.9152
-11 -1 -31 -4.7476 0.8462
-11 -1 -30 6.8109 6.5200
-11 -1 -29 -6.4787 3.7006
-11 -1 -28 4.1382 -5.6213
-11 -1 -27 2.7774 -4.3779
-11 -1 -26 -9.1912 4.0543
-11 -1 -25 3.4506 -2.2802
-11 -1 -24 -23.5203 -8.1214
-11 -1 -23 -5.7353 -14.1896
-11 -1 -22 -6.1579 4.9493
-11 -1 -21 -0.1378 4.6943
-11 -1 -20 11.7356 3.0334
-11 -1 -19 3.6278 4.2904
-11 -1 -18 -8.3240 -4.2485
-11 -1 -17 5.9742 10.0146
-11 -1 -16 6.1335 7.1604
-11 -1 -15 -2.6436 -10.4110
-11 -1 -14 -0.4261 -0.6329
-11 -1 -13 -8.4534 -3.0598
-11 -1 -12 2.3501 -2.2536
-11 -1 -11 -6.9713 0.2375
-11 -1 -10 -13.7314 1.4018
-11 -1 -9 -6.2604 -24.4270
-11 -1 -8 -17.0761 -8.6453
-11 -1 -7 -2.5977 -15.4320
-11 -1 -6 -2.9497 -4.4647
-11 -1 -5 18.7992 -11.6136
-11 -1 -4 -7.0794 2.2216
-11 -1 -3 19.3925 6.3591
-11 -1 -2 12.1852 -0.4122
-11 -1 -1 -8.1296 -4.4162
-10 -14 -12 2.9863 -5.6542
-10 -14 -11 -4.7893 -7.8901
-10 -14 -10 -5.8104 0.4756
-10 -14 -9 12.7745 -16.4709
-10 -14 -8 13.3537 6.4694
-10 -14 -7 3.4006 7.6929
-10 -14 -6 3.9089 -2.2683
-10 -14 -5 2.4659 -0.0770
-10 -14 -4 -12.5769 -0.3977
-10 -14 -3 -0.0350 -10.5827
-10 -14 -2 -2.0443 3.4153
-10 -14 -1 3.4927 3.6824
-10 -13 -17 8.3208 0.0911
-10 -13 -16 -5.8094 5.9463
-10 -13 -15 5.4753 -4.7502
-10 -13 -14 -3.4676 -5.4747
-10 -13 -13 -3.9286 2.6216
-10 -13 -12 -7.8938 5.0995
-10 -13 -11 -3.9808 -13.4525
-10 -13 -10 -3.8650 -2.2683
-10 -13 -9 8.4972 -7.5971
-10 -13 -8 -1.8644 -14.6704
-10 -13 -7 11.3139 1.0973
-10 -13 -6 -9.8385 6.4125
-10 -13 -5 -5.4422 3.2148
-10 -13 -4 6.2558 -2.3938
-10 -13 -3 -5.3731 -5.1185
-10 -13 -2 -2.5470 -9.0325
-10 -13 -1 1.8450 -1.6276
-10 -12 -22 -11.7107 6.2092
-10 -12 -21 5.2774 1.9488
-10 -12 -20 9.2603 4.0820
-10 -12 -19 -4.2525 -6.9196
-10 -12 -18 -4.8143 2.0860
-10 -12 -17 3.5478 -4.0693
-10 -12 -16 -9.0991 1.0116
-10 -12 -15 6.8321 4.8416
-10 -12 -14 -8.5114 -4.8898
-10 -12 -13 -4.5199 8.4638
-10 -12 -12 -9.1070 -1.9800
-10 -12 -11 -6.1841 -9.4981
-10 -12 -10 -8.7020 -3.2785
-10 -12 -9 0.8200 1.1380
-10 -12 -8 -12.5937 -6.1231
-10 -12 -7 4.9828 -0.6056
-10 -12 -6 6.3176 -3.2607
-10 -12 -5 -9.6620 10.5489
-10 -12 -4 -1.3598 0.6810
-10 -12 -3 -8.2577 7.9251
-10 -12 -2 -5.8304 9.7427
-10 -12 -1 6.6208 -3.7847
-10 -11 -25 9.4403 11.5827
-10 -11 -24 7.4416 -0.4104
-10 -11 -23 6.4434 -3.4743
-10 -11 -22 -2.3274 -12.4340
-10 -11 -21 0.2855 9.1341
-10 -11 -20 -1.1631 -2.5558
-10 -11 -19 -1.9704 10.0653
-10 -11 -18 -4.2725 4.3429
-10 -11 -17 3.7985 -1.1819
-10 -11 -16 0.2108 -5.3327
-10 -11 -15 -2.2397 10.5346
-10 -11 -14 -8.1854 9.4573
-10 -11 -13 -7.1677 16.1575
-10 -11 -12 2.3253 -7.6582
-10 -11 -11 -6.9735 7.4873
-10 -11 -10 -1.3911 2.6619
-10 -11 -9 2.6249 -2.5578
-10 -11 -8 -6.8751 1.0517
-10 -11 -7 -2.9547 11.2054
-10 -11 -6 11.3129 -15.9508
-10 -11 -5 9.8177 8.4493
-10 -11 -4 4.8083 13.7885
-10 -11 -3 -4.2334 -3.3877
-10 -11 -2 7.8927 13.8122
-10 -11 -1 -3.8127 5.2031
-10 -10 -27 -3.1500 -6.6431
-10 -10 -26 5.4422 -6.5648
-10 -10 -25 -5.4145 -0.4024
-10 -10 -24 0.3344 -7.0625
-10 -10 -23 -11.2454 -2.5491
-10 -10 -22 8.8625 2.7375
-10 -10 -21 0.6089 7.3984
-10 -10 -20 5.4725 -5.6870
-10 -10 -19 -5.6479 -0.4097
-10 -10 -18 11.0976 3.2456
-10 -10 -17 -5.9108 2.1838
-10 -10 -16 10.8648 4.1858
-10 -10 -15 2.5253 6.3162
-10 -10 -14 5.5202 1.6675
-10 -10 -13 1.3451 -4.1344
-10 -10 -12 -0.9165 -6.6136
-10 -10 -11 -12.8991 3.3666
-10 -10 -10 7.4804 8.5643
-10 -10 -9 1.8937 -6.8724
-10 -10 -8 -2.7659 -3.9042
-10 -10 -7 -0.3230 1.5435
-10 -10 -6 5.5608 -8.3969
-10 -10 -5 -1.1693 -6.0212
-10 -10 -4 22.6487 -2.2874
-10 -10 -3 -0.1991 -3.9552
-10 -10 -2 0.2064 5.3323
-10 -10 -1 0.9865 -3.7459
-10 -9 -29 -0.9728 0.7960
-10 -9 -28 -3.0884 -1.5060
-10 -9 -27 -4.5631 2.0831
-10 -9 -26 -5.1507 5.8670
-10 -9 -25 -4.0415 0.8946
-10 -9 -24 2.9200 -1.5858
-10 -9 -23 -3.4305 1.0948
-10 -9 -22 0.1627 9.3081
-10 -9 -21 3.2667 -9.6283
-10 -9 -20 2.1398 -1.3377
-10 -9 -19 -7.6785 -1.6678
-10 -9 -18 9.8835 -4.5000
-10 -9 -17 0.0077 -7.2746
-10 -9 -16 -9.8781 15.0024
-10 -9 -15 -3.5881 -4.6556
-10 -9 -14 -4.5325 2.5062
-10 -9 -13 -1.7020 -3.6284
-10 -9 -12 2.2292 8.5515
-10 -9 -11 -3.7067 0.3181
-10 -9 -10 1.3982 -0.2673
-10 -9 -9 -4.3970 0.8569
-10 -9 -8 -6.2564 -3.0474
-10 -9 -7 3.9954 -6.0449
-10 -9 -6 -3.7980 -0.1952
-10 -9 -5 -12.7047 -1.1016
-10 -9 -4 5.8499 -1.6934
-10 -9 -3 3.9466 2.8579
-10 -9 -2 -1.1241 24.9892
-10 -9 -1 0.1628 -7.2780
-10 -8 -31 -5.2307 -4.6352
-10 -8 -30 0.2032 2.1552
-10 -8 -29 -5.5779 0.4945
-10 -8 -28 8.1207 6.2324
-10 -8 -27 4.0934 7.8602
-10 -8 -26 3.3144 -5.1231
-10 -8 -25 -2.5205 1.0807
-10 -8 -24 1.1989 2.7080
-10 -8 -23 0.2007 -0.0036
-10 -8 -22 -0.2886 -2.4135
-10 -8 -21 -0.9260 -3.4264
-10 -8 -20 -9.5177 1.1160
-10 -8 -19 -2.7640 9.9900
-10 -8 -18 7.6084 8.2193
-10 -8 -17 4.0970 -5.6933
-10 -8 -16 1.1388 11.9906
-10 -8 -15 2.2617 1.0945
-10 -8 -14 -4.1626 -7.5306
-10 -8 -13 -4.1105 6.6959
-10 -8 -12 -3.0154 6.6041
-10 -8 -11 17.4835 -0.0716
-10 -8 -10 -5.4277 -0.3705
-10 -8 -9 -8.5658 -7.3440
-10 -8 -8 2.8301 4.3688
-10 -8 -7 0.8063 -1.1950
-10 -8 -6 9.8854 -2.8560
-10 -8 -5 9.0615 0.3172
-10 -8 -4 2.1922 4.3693
-10 -8 -3 -3.5669 -7.2628
-10 -8 -2 0.1096 9.3018
-10 -8 -1 -9.1611 1.1125
-10 -7 -33 0.4065 -1.7135
-10 -7 -32 -7.8776 -5.7727
-10 -7 -31 2.4929 8.0555
-10 -7 -30 5.3829 -1.3586
-10 -7 -29 5.9920 -5.6802
-10 -7 -28 -7.1012 -0.0180
-10 -7 -27 0.1357 -3.2820
-10 -7 -26 2.9307 2.4200
-10 -7 -25 -1.6854 -0.5298
-10 -7 -24 1.5989 8.8439
-10 -7 -23 -7.1992 -3.8493
-10 -7 -22 3.2973 -0.7759
-10 -7 -21 3.8038 6.9552
-10 -7 -20 5.5489 2.8376
-10 -7 -19 -0.6011 -2.6188
-10 -7 -18 -0.1555 -2.1652
-10 -7 -17 -4.2294 -2.6353
-10 -7 -16 -0.3071 0.9711
-10 -7 -15 7.4777 4.8453
-10 -7 -14 -0.5575 7.6412
-10 -7 -13 4.2298 -4.8786
-10 -7 -12 -3.0851 -1.9792
-10 -7 -11 -10.9147 -2.9434
-10 -7 -10 -6.3586 -5.4596
-10 -7 -9 -1.5845 7.9713
-10 -7 -8 -2.6339 -5.1614
-10 -7 -7 1.7180 -8.8404
-10 -7 -6 -3.0098 -6.8011
-10 -7 -5 5.2702 -3.4852
-10 -7 -4 -2.4968 15.4117
-10 -7 -3 -0.4726 14.6449
-10 -7 -2 -13.9599 12.0189
-10 -7 -1 7.0808 0.8564
-10 -6 -34 -3.4156 0.3651
-10 -6 -33 0.0762 6.2205
-10 -6 -32 -7.3135 -6.7253
-10 -6 -31 0.0587 2.7572
-10 -6 -30 8.2184 -2.6555
-10 -6 -29 0.3747 7.3170
-10 -6 -28 -2.8932 0.4445
-10 -6 -27 -3.9995 -4.4252
-10 -6 -26 5.4306 -2.7138
-10 -6 -25 6.0695 9.0327
-10 -6 -24 -2.0053 2.4231
-10 -6 -23 4.6798 -2.7845
-10 -6 -22 -1.4853 2.5284
-10 -6 -21 -2.3551 -0.0936
-10 -6 -20 3.4102 11.2914
-10 -6 -19 2.0174 -3.5712
-10 -6 -18 -3.3783 0.1098
-10 -6 -17 -1.5527 3.6534
-10 -6 -16 5.9575 -1.9558
-10 -6 -15 -0.0261 -8.1285
-10 -6 -14 1.7689 10.7903
-10 -6 -13 2.9179 11.8568
-10 -6 -12 -3.7004 -0.1119
-10 -6 -11 -3.5347 4.6385
-10 -6 -10 -3.2896 -0.1797
-10 -6 -9 1.9277 3.7631
-10 -6 -8 -1.2844 -1.5171
-10 -6 -7 -10.5962 -2.0578
-10 -6 -6 5.0012 4.3296
-10 -6 -5 9.1856 4.6309
-10 -6 -4 16.3995 4.0479
-10 -6 -3 10.2826 7.4020
-10 -6 -2 -12.5295 -0.7433
-10 -6 -1 -11.7980 15.2454
-10 -5 -35 -2.9833 5.6713
-10 -5 -34 0.3097 -3.3593
-10 -5 -33 1.3203 4.4976
-10 -5 -32 4.1729 -2.6762
-10 -5 -31 0.0729 -0.4354
-10 -5 -30 2.5499 -6.4175
-10 -5 -29 -11.1454 4.8847
-10 -5 -28 7.9077 0.8061
-10 -5 -27 1.4999 -2.7323
-10 -5 -26 1.2073 0.5596
-10 -5 -25 6.0940 -5.2563
-10 -5 -24 4.5685 0.5210
-10 -5 -23 -1.5435 7.2201
-10 -5 -22 9.7457 4.2751
-10 -5 -21 0.3904 -2.8894
-10 -5 -20 -4.6122 2.5895
-10 -5 -19 9.6282 -6.8998
-10 -5 -18 -1.4243 -0.8806
-10 -5 -17 1.3516 6.5686
-10 -5 -16 2.4707 2.9098
-10 -5 -15 2.4020 -11.2198
-10 -5 -14 1.8196 -4.6082
-10 -5 -13 2.4712 -1.2278
-10 -5 -12 -4.2355 10.6564
-10 -5 -11 -0.2031 6.7113
-10 -5 -10 6.6401 3.7783
-10 -5 -9 1.0976 1.7222
-10 -5 -8 5.0460 -4.0347
-10 -5 -7 -7.9260 -5.5859
-10 -5 -6 9.1924 -0.3668
-10 -5 -5 7.0856 -8.6598
-10 -5 -4 -1.3266 4.7155
-10 -5 -3 12.5765 4.3946
-10 -5 -2 14.3644 -0.2805
-10 -5 -1 4.7926 -2.9089
-10 -4 -36 -4.8917 0.6150
-10 -4 -35 -2.7394 -5.7866
-10 -4 -34 3.0108 3.1013
-10 -4 -33 -0.5314 -6.2721
-10 -4 -32 4.8095 4.4437
-10 -4 -31 -0.8887 5.3810
-10 -4 -30 -1.3797 -0.6717
-10 -4 -29 -11.6108 -4.2536
-10 -4 -28 11.3483 1.1004
-10 -4 -27 3.5347 -11.3508
-10 -4 -26 3.9143 8.9424
-10 -4 -25 -0.1995 -0.9428
-10 -4 -24 4.3801 -11.5237
-10 -4 -23 5.2334 -0.5373
-10 -4 -22 0.8700 7.9774
-10 -4 -21 -4.8340 -10.3729
-10 -4 -20 -8.2609 -4.4556
-10 -4 -19 7.3421 -2.9566
-10 -4 -18 -0.9534 1.5627
-10 -4 -17 8.0928 3.8372
-10 -4 -16 -6.4322 1.3737
-10 -4 -15 -5.2924 6.6040
-10 -4 -14 5.6630 -1.7765
-10 -4 -13 13.3188 -7.2305
-10 -4 -12 7.8362 -1.4658
-10 -4 -11 9.2218 -4.3995
-10 -4 -10 -5.3633 0.7870
-10 -4 -9 -13.4137 -0.8123
-10 -4 -8 -2.0505 -0.2704
-10 -4 -7 0.5033 -4.2803
-10 -4 -6 4.5561 1.4597
-10 -4 -5 5.0752 -23.7458
-10 -4 -4 -18.7725 -9.7919
-10 -4 -3 -11.6145 -8.0838
-10 -4 -2 2.5818 1.9192
-10 -4 -1 7.0057 6.3903
-10 -3 -36 0.2016 -6.0437
-10 -3 -35 -5.3607 0.9567
-10 -3 -34 1.4109 -3.4945
-10 -3 -33 7.0337 -2.8142
-10 -3 -32 -4.4964 -0.0604
-10 -3 -31 4.1787 8.1722
-10 -3 -30 0.2045 -1.4071
-10 -3 -29 -1.7343 -7.9994
-10 -3 -28 2.8168 -3.1638
-10 -3 -27 3.4388 -15.3862
-10 -3 -26 -5.4085 5.5067
-10 -3 -25 3.2824 -1.6001
-10 -3 -24 -8.2961 9.6048
-10 -3 -23 -5.5795 -4.5856
-10 -3 -22 0.3420 4.7356
-10 -3 -21 1.0679 1.1524
-10 -3 -20 -4.2893 -4.5610
-10 -3 -19 5.8464 -8.4675
-10 -3 -18 0.2856 -3.2253
-10 -3 -17 13.1029 0.0263
-10 -3 -16 -5.0958 -22.6641
-10 -3 -15 -10.6860 -1.4992
-10 -3 -14 -5.6280 -0.8450
-10 -3 -13 -6.0595 -3.3009
-10 -3 -12 -0.2441 -3.9068
-10 -3 -11 7.7487 4.9431
-10 -3 -10 -2.2988 9.0246
-10 -3 -9 -6.7134 5.9775
-10 -3 -8 -14.8218 9.8124
-10 -3 -7 -1.9468 -6.7554
-10 -3 -6 -13.1620 15.4205
-10 -3 -5 -12.3017 19.7129
-10 -3 -4 -1.1269 9.3770
-10 -3 -3 19.6829 -8.1178
-10 -3 -2 -6.4436 -5.5637
-10 -3 -1 -1.7991 10.6180
-10 -2 -37 -4.1108 4.1167
-10 -2 -36 -3.6265 -0.3683
-10 -2 -35 1.0605 0.3952
-10 -2 -34 1.5377 1.2812
-10 -2 -33 0.8330 -5.7028
-10 -2 -32 -4.1469 -7.5325
-10 -2 -31 -4.6771 -2.3220
-10 -2 -30 2.9922 -1.2491
-10 -2 -29 -8.6034 1.0653
-10 -2 -28 0.7313 -1.3317
-10 -2 -27 -1.7891 2.1579
-10 -2 -26 2.7884 4.5490
-10 -2 -25 17.9038 3.2944
-10 -2 -24 -4.8206 3.8976
-10 -2 -23 3.9391 4.2535
-10 -2 -22 -17.8469 -12.2605
-10 -2 -21 -4.2401 -3.9595
-10 -2 -20 -9.9404 8.5052
-10 -2 -19 -7.4225 0.5458
-10 -2 -18 -20.4696 -7.4205
-10 -2 -17 -10.3667 13.8047
-10 -2 -16 0.7495 0.1753
-10 -2 -15 6.8196 15.4454
-10 -2 -14 12.0910 -0.0463
-10 -2 -13 -4.1862 -4.3427
-10 -2 -12 0.9425 -3.9769
-10 -2 -11 2.2980 12.4373
-10 -2 -10 22.7703 12.7231
-10 -2 -9 17.6377 8.8431
-10 -2 -8 2.7335 10.5028
-10 -2 -7 22.0309 5.9122
-10 -2 -6 -6.5661 -12.4742
-10 -2 -5 -6.2279 2.8958
-10 -2 -4 -10.2130 7.1155
-10 -2 -3 10.7453 7.0213
-10 -2 -2 -9.5601 3.4269
-10 -2 -1 3.8902 4.5682
-10 -1 -37 1.2387 15.5441
-10 -1 -36 -3.6903 -5.5582
-10 -1 -35 -4.3624 0.4273
-10 -1 -34 -6.2445 -0.0512
-10 -1 -33 -7.6191 7.8619
-10 -1 -32 -1.3259 -1.5748
-10 -1 -31 2.5020 -0.1429
-10 -1 -30 2.7700 -6.0739
-10 -1 -29 3.8496 1.6674
-10 -1 -28 -0.8597 1.3839
-10 -1 -27 -0.0621 -12.0451
-10 -1 -26 7.1640 5.4646
-10 -1 -25 -1.2479 -5.4157
-10 -1 -24 -9.3584 0.5006
-10 -1 -23 -1.1488 26.6212
-10 -1 -22 6.5186 8.7094
-10 -1 -21 -4.1156 14.4108
-10 -1 -20 5.2481 7.2067
-10 -1 -19 12.5757 16.7421
-10 -1 -18 0.8392 -7.4872
-10 -1 -17 -5.2407 -7.5376
-10 -1 -16 11.9095 -5.4376
-10 -1 -15 -4.6457 -1.0229
-10 -1 -14 10.1662 -9.4060
-10 -1 -13 -0.2101 -2.9598
-10 -1 -12 17.0892 -7.5573
-10 -1 -11 4.2100 -18.3047
-10 -1 -10 12.6325 -8.7490
-10 -1 -9 -0.2657 -20.8231
-10 -1 -8 -1.0971 10.5843
-10 -1 -7 -0.7526 27.4605
-10 -1 -6 4.3767 6.6934
-10 -1 -5 19.9848 4.9109
-10 -1 -4 14.6942 -15.7380
-10 -1 -3 -10.9238 6.5714
-10 -1 -2 -14.5456 -7.2907
-10 -1 -1 -7.4991 11.4898
-9 -15 -9 6.4258 -1.1556
-9 -15 -8 -28.0826 15.5940
-9 -15 -7 3.9999 -6.7620
-9 -15 -6 -5.8900 -0.0376
-9 -15 -5 15.4167 3.1932
-9 -15 -4 -6.4875 -11.1787
-9 -15 -3 16.4968 -11.9199
-9 -15 -2 -8.7655 2.5005
-9 -15 -1 -1.8164 -5.7815
-9 -14 -16 1.8258 2.8979
-9 -14 -15 2.5118 4.7799
-9 -14 -14 -9.4249 -4.1026
-9 -14 -13 2.4166 -1.4653
-9 -14 -12 9.4256 -15.0667
-9 -14 -11 6.1522 5.3922
-9 -14 -10 -0.5312 8.6055
-9 -14 -9 5.1792 13.5439
-9 -14 -8 -5.0831 -7.4921
-9 -14 -7 0.0285 7.4903
-9 -14 -6 -18.7027 -24.2594
-9 -14 -5 -0.4112 0.4213
-9 -14 -4 0.9182 1.3143
-9 -14 -3 0.8820 10.3068
-9 -14 -2 11.2010 -10.6693
-9 -14 -1 3.7198 7.3714
-9 -13 -21 -2.6599 -6.5874
-9 -13 -20 -2.5078 -4.7398
-9 -13 -19 12.3549 0.0123
-9 -13 -18 6.2863 3.5667
-9 -13 -17 3.2405 -1.2314
-9 -13 -16 -5.4097 10.1557
-9 -13 -15 3.2457 -5.7200
-9 -13 -14 10.0321 -5.9319
-9 -13 -13 -9.2800 5.0050
-9 -13 -12 -1.0262 -7.3207
-9 -13 -11 6.2768 -0.4818
-9 -13 -10 10.9642 8.5662
-9 -13 -9 -2.9668 6.1842
-9 -13 -8 -3.1187 3.8403
-9 -13 -7 -12.7813 11.5467
-9 -13 -6 2.4951 -9.4857
-9 -13 -5 -5.7386 -6.9553
-9 -13 -4 13.7728 -3.4890
-9 -13 -3 -9.0880 3.2035
-9 -13 -2 -6.7958 5.3062
-9 -13 -1 0.1560 2.6469
-9 -12 -24 6.7764 10.0633
-9 -12 -23 -11.0933 3.7501
-9 -12 -22 4.6334 -5.0521
-9 -12 -21 -2.1684 -16.8213
-9 -12 -20 3.8316 -11.7025
-9 -12 -19 3.8084 0.3536
-9 -12 -18 3.1066 7.9508
-9 -12 -17 -0.2169 -3.6482
-9 -12 -16 -1.3059 -11.9249
-9 -12 -15 2.0899 1.0003
-9 -12 -14 1.5241 -3.5641
-9 -12 -13 3.2697 -7.0964
-9 -12 -12 7.4433 13.9992
-9 -12 -11 -2.3050 -4.1952
-9 -12 -10 9.6788 -7.1351
-9 -12 -9 2.2080 3.0999
-9 -12 -8 -9.9542 10.9547
-9 -12 -7 -4.8330 0.3121
-9 -12 -6 7.4140 4.5404
-9 -12 -5 -4.2022 2.9578
-9 -12 -4 4.1252 -2.1366
-9 -12 -3 4.8766 -8.9088
-9 -12 -2 -7.3244 7.0326
-9 -12 -1 3.5901 -11.3595
-9 -11 -27 9.1360 1.7809
-9 -11 -26 12.1464 1.5574
-9 -11 -25 0.9898 -4.1613
-9 -11 -24 -5.8897 -0.8997
-9 -11 -23 -4.0257 -1.1948
-9 -11 -22 -11.6504 2.2641
-9 -11 -21 -4.5947 -12.3858
-9 -11 -20 5.9802 10.2897
-9 -11 -19 1.5861 -5.4705
-9 -11 -18 -8.1028 1.6879
-9 -11 -17 -0.7472 -7.2512
-9 -11 -16 -7.7440 0.2334
-9 -11 -15 -3.0301 -3.2399
-9 -11 -14 5.0669 -2.9431
-9 -11 -13 5.3717 -6.8764
-9 -11 -12 5.1741 6.2573
-9 -11 -11 7.3892 0.6907
-9 -11 -10 -12.8827 5.6035
-9 -11 -9 6.5773 -2.4348
-9 -11 -8 6.7788 1.1940
-9 -11 -7 7.5348 -5.4207
-9 -11 -6 1.0930 3.1998
-9 -11 -5 -5.5116 9.8648
-9 -11 -4 -6.9663 12.0289
-9 -11 -3 -2.5894 -7.8566
-9 -11 -2 12.2915 -9.0653
-9 -11 -1 10.5318 -4.4978
-9 -10 -30 8.9329 -5.2499
-9 -10 -29 -1.0864 -7.3383
-9 -10 -28 0.9839 -14.2968
-9 -10 -27 -6.0959 4.0690
-9 -10 -26 0.1877 0.9128
-9 -10 -25 -1.2130 -1.3223
-9 -10 -24 -2.0365 2.9486
-9 -10 -23 -1.0964 3.2801
-9 -10 -22 2.2199 -10.6127
-9 -10 -21 1.6784 11.6629
-9 -10 -20 -3.4250 5.1977
-9 -10 -19 7.9143 2.7812
-9 -10 -18 -9.5998 -5.0560
-9 -10 -17 2.8355 2.7262
-9 -10 -16 -6.2302 -0.5153
-9 -10 -15 5.1137 -2.6579
-9 -10 -14 -2.5928 -12.8333
-9 -10 -13 6.5230 1.6483
-9 -10 -12 1.3541 0.0254
-9 -10 -11 7.3931 -5.4952
-9 -10 -10 -11.3517 8.8772
-9 -10 -9 -1.9577 4.4917
-9 -10 -8 8.6165 -21.3134
-9 -10 -7 14.6695 5.7778
-9 -10 -6 2.6454 -4.4508
-9 -10 -5 3.1052 -4.9079
-9 -10 -4 -11.1202 3.5567
-9 -10 -3 -12.9293 -12.5545
-9 -10 -2 -9.7755 -15.4451
-9 -10 -1 6.7357 -2.4422
-9 -9 -32 -2.3959 -5.2330
-9 -9 -31 -1.5782 2.0903
-9 -9 -30 -5.7439 -3.9238
-9 -9 -29 -2.8772 -3.1993
-9 -9 -28 -0.0180 10.2159
-9 -9 -27 -7.7621 0.2646
-9 -9 -26 6.2421 -0.4445
-9 -9 -25 -8.7373 -1.0413
-9 -9 -24 4.6980 0.3604
-9 -9 -23 0.6911 0.5806
-9 -9 -22 11.2489 -5.1469
-9 -9 -21 3.0805 -3.5233
-9 -9 -20 6.2437 -1.7270
-9 -9 -19 -17.9139 -0.8943
-9 -9 -18 4.0255 -0.8529
-9 -9 -17 -10.4372 9.2650
-9 -9 -16 1.8692 -5.2953
-9 -9 -15 5.0874 -4.0196
-9 -9 -14 2.0493 -7.0732
-9 -9 -13 -9.3018 5.7957
-9 -9 -12 9.5510 -1.1615
-9 -9 -11 -0.7045 5.6315
-9 -9 -10 -5.8457 -6.3967
-9 -9 -9 9.0117 -1.2401
-9 -9 -8 -17.4134 -7.3670
-9 -9 -7 -16.4377 4.0903
-9 -9 -6 9.7578 10.2912
-9 -9 -5 -12.5057 7.5425
-9 -9 -4 -0.7148 1.4676
-9 -9 -3 3.4350 -0.0456
-9 -9 -2 -3.7874 -5.9560
-9 -9 -1 12.3259 -8.3787
-9 -8 -33 5.7252 1.3653
-9 -8 -32 -5.1464 1.6170
-9 -8 -31 -3.4070 -0.7610
-9 -8 -30 4.8259 -1.2489
-9 -8 -29 0.4041 5.5857
-9 -8 -28 6.8106 8.5065
-9 -8 -27 -1.3434 -2.1769
-9 -8 -26 -3.2605 -5.0808
-9 -8 -25 0.6295 -7.0983
-9 -8 -24 -1.5713 2.3004
-9 -8 -23 -5.5744 -18.3438
-9 -8 -22 -2.2910 12.4673
-9 -8 -21 -7.5748 2.6333
-9 -8 -20 8.6079 3.5581
-9 -8 -19 -1.6822 2.4012
-9 -8 -18 1.2037 13.8727
-9 -8 -17 2.0054 -18.6992
-9 -8 -16 -2.0244 1.6633
-9 -8 -15 -8.7422 -5.9355
-9 -8 -14 5.3158 6.0855
-9 -8 -10 7.3980 4.6808
-9 -8 -9 7.6067 7.1867
-9 -8 -8 7.9201 2.5893
-9 -8 -7 -4.2284 14.4169
-9 -8 -6 6.1387 -6.8926
-9 -8 -5 -6.1438 -2.6421
-9 -8 -4 -7.7745 -4.0737
-9 -8 -3 -3.2482 -21.0198
-9 -8 -2 -13.2839 6.0066
-9 -8 -1 -1.7655 -1.4197
-9 -7 -35 4.3660 -0.5673
-9 -7 -34 0.3131 6.0749
-9 -7 -33 -5.6716 1.4890
-9 -7 -32 0.8902 -4.9538
-9 -7 -31 -1.2044 -3.1284
-9 -7 -30 3.8614 -1.1744
-9 -7 -29 2.6929 1.4190
-9 -7 -28 -2.7056 2.3404
-9 -7 -27 -4.0803 -6.7754
-9 -7 -26 -8.9313 8.7513
-9 -7 -25 -5.1145 -2.8417
-9 -7 -24 6.9059 7.1238
-9 -7 -23 11.0863 -0.3070
-9 -7 -22 -4.1690 -3.1863
-9 -7 -21 11.4491 -0.8342
-9 -7 -20 -4.7406 6.1750
-9 -7 -19 1.7153 -12.3362
-9 -7 -18 -2.6102 11.1785
-9 -7 -17 6.1855 -5.7259
-9 -7 -16 -1.0393 -0.2983
-9 -7 -15 5.9768 3.0709
-9 -7 -14 -6.5235 -1.6594
-9 -7 -13 10.0799 -9.2975
-9 -7 -12 -5.9118 -0.9986
-9 -7 -11 -0.2907 -9.2806
-9 -7 -10 1.9495 -4.1909
-9 -7 -9 2.9410 -3.8036
-9 -7 -8 5.3429 5.8588
-9 -7 -1 15.7339 2.5626
-9 -6 -36 4.9672 7.6012
-9 -6 -35 -4.7036 3.1140
-9 -6 -34 0.5251 -3.5139
-9 -6 -33 -3.4064 6.1774
-9 -6 -32 -2.0200 -0.2217
-9 -6 -31 5.5488 -4.3335
-9 -6 -30 3.7753 6.9147
-9 -6 -29 1.2462 1.2679
-9 -6 -28 -6.0817 -1.8594
-9 -6 -27 -2.2941 2.2496
-9 -6 -26 5.3318 1.0827
-9 -6 -25 9.0634 -8.0365
-9 -6 -24 -16.0112 -7.4359
-9 -6 -23 6.4158 -4.2061
-9 -6 -22 -0.0621 -1.7467
-9 -6 -21 4.1201 -2.2379
-9 -6 -20 -2.1097 0.7590
-9 -6 -19 -0.9450 -4.2294
-9 -6 -18 -5.3815 -17.4369
-9 -6 -17 13.2084 2.2561
-9 -6 -16 -8.8305 4.7560
-9 -6 -15 9.6700 1.0926
-9 -6 -14 -1.5301 2.0849
-9 -6 -13 -8.8894 -3.3195
-9 -6 -12 -8.6022 -13.6290
-9 -6 -11 2.5603 10.5176
-9 -6 -10 1.1093 -3.2950
-9 -6 -9 9.1544 -6.4450
-9 -6 -8 -1.0623 0.6640
-9 -6 -7 12.2550 3.8271
-9 -6 -6 9.2024 5.4051
-9 -6 -5 5.6742 7.2717
-9 -6 -4 -9.4284 2.1426
-9 -6 -3 10.3900 -8.5270
-9 -6 -2 -18.4839 -15.1506
-9 -6 -1 8.0141 -15.8930
-9 -5 -37 8.0788 -1.7892
-9 -5 -36 2.4691 -1.8841
-9 -5 -35 6.4423 6.2179
-9 -5 -34 -5.9606 -0.7689
-9 -5 -33 -0.8626 -12.3328
-9 -5 -32 6.5018 0.0728
-9 -5 -31 1.9498 -2.3393
-9 -5 -30 -2.5236 1.9090
-9 -5 -29 -1.1430 5.4446
-9 -5 -28 -4.0866 -4.6831
-9 -5 -27 -6.9330 -1.2410
-9 -5 -26 -0.7850 2.3796
-9 -5 -25 1.3872 0.2604
-9 -5 -24 -9.0985 -2.4908
-9 -5 -23 -6.9723 1.8989
-9 -5 -22 2.6414 -8.9309
-9 -5 -21 -0.0121 3.5413
-9 -5 -20 -13.0290 -1.3202
-9 -5 -19 0.6381 2.9519
-9 -5 -18 -3.1711 -11.8592
-9 -5 -17 1.9850 -8.2545
-9 -5 -16 1.1819 -3.1397
-9 -5 -15 -7.3693 6.6560
-9 -5 -14 -5.9347 -3.7083
-9 -5 -13 -2.1155 15.1942
-9 -5 -12 -7.8321 -4.3325
-9 -5 -11 -2.5561 -6.5715
-9 -5 -10 7.3775 -7.8003
-9 -5 -9 -6.0170 -4.8646
-9 -5 -8 1.6468 -9.2783
-9 -5 -7 -5.2703 -5.0559
-9 -5 -6 10.5821 -6.8290
-9 -5 -5 10.0194 15.2488
-9 -5 -4 -17.3446 -7.8586
-9 -5 -3 -23.9469 -8.1503
-9 -5 -2 -1.3209 -17.4045
-9 -5 -1 -1.5741 -1.8819
-9 -4 -38 -4.1911 -2.3778
-9 -4 -37 0.7130 -3.7348
-9 -4 -36 -6.6816 -5.1066
-9 -4 -35 -2.5879 2.8204
-9 -4 -34 2.4624 0.4443
-9 -4 -33 -7.2341 3.1164
-9 -4 -32 -3.7372 -6.0363
-9 -4 -31 7.2197 4.4644
-9 -4 -30 -4.3264 -2.6990
-9 -4 -29 -3.8532 6.7993
-9 -4 -28 2.1350 5.9336
-9 -4 -27 2.6855 -2.7810
-9 -4 -26 -1.3297 -1.1715
-9 -4 -25 -5.8794 -1.4814
-9 -4 -24 -2.9922 1.5589
-9 -4 -23 -1.0204 -0.3401
-9 -4 -22 -2.4240 4.6792
-9 -4 -21 -1.4403 -0.7903
-9 -4 -20 -7.2963 -2.7003
-9 -4 -19 -5.1229 5.7523
-9 -4 -18 -2.3083 11.0449
-9 -4 -17 -8.1300 15.4772
-9 -4 -16 6.5874 -7.1555
-9 -4 -15 10.5059 4.1171
-9 -4 -14 -2.9587 0.9298
-9 -4 -13 -10.1236 5.7326
-9 -4 -12 -1.5780 11.3833
-9 -4 -11 -11.8694 -3.5050
-9 -4 -10 -1.1312 -15.9381
-9 -4 -9 -14.9844 0.9254
-9 -4 -8 2.6328 5.8535
-9 -4 -7 4.8031 -14.6831
-9 -4 -6 -14.9247 12.6716
-9 -4 -5 -16.2214 6.2363
-9 -4 -4 -3.0300 13.3615
-9 -4 -3 -29.2116 8.6494
-9 -4 -2 -7.9207 6.3694
-9 -4 -1 -7.3064 -4.0888
-9 -3 -38 -5.1664 3.7889
-9 -3 -37 2.6909 1.6948
-9 -3 -36 -0.5629 -2.6739
-9 -3 -35 -1.4210 1.4916
-9 -3 -34 3.3905 2.1152
-9 -3 -33 4.2958 7.2767
-9 -3 -32 -7.1296 4.1159
-9 -3 -31 -6.9202 1.4116
-9 -3 -30 10.3768 -3.7418
-9 -3 -29 -5.1973 -2.5578
-9 -3 -28 2.0046 6.5679
-9 -3 -27 -10.7979 3.0239
-9 -3 -26 -6.8725 -0.5542
-9 -3 -25 -8.2672 7.6892
-9 -3 -24 0.1281 5.7354
-9 -3 -23 12.8342 -2.3217
-9 -3 -22 -4.5264 2.4841
-9 -3 -21 4.2368 5.3994
-9 -3 -20 11.2229 -2.3793
-9 -3 -19 17.8066 1.2734
-9 -3 -18 3.3712 -3.4630
-9 -3 -17 -4.1934 5.9559
-9 -3 -16 -7.4416 -1.1888
-9 -3 -15 -4.7532 5.0360
-9 -3 -14 18.6063 12.3721
-9 -3 -13 -8.0604 7.1721
-9 -3 -12 -8.0194 1.1496
-9 -3 -11 -9.2220 5.3268
-9 -3 -10 -9.5538 6.3754
-9 -3 -9 -7.3866 -1.4638
-9 -3 -8 18.5851 20.8883
-9 -3 -7 20.6369 5.7460
-9 -3 -6 -1.7159 14.9259
-9 -3 -5 7.3850 9.3157
-9 -3 -4 0.8809 -3.9228
-9 -3 -3 21.3228 2.7803
-9 -3 -2 -1.3283 12.4424
-9 -3 -1 11.3325 -6.0710
-9 -2 -39 -4.5658 -5.3731
-9 -2 -38 -1.9078 -8.2829
-9 -2 -37 -0.5079 9.1493
-9 -2 -36 5.0132 -2.8718
-9 -2 -35 9.0691 1.9205
-9 -2 -34 -0.9104 0.3092
-9 -2 -33 6.3928 4.2470
-9 -2 -32 3.6712 -0.8564
-9 -2 -31 -11.4279 7.8892
-9 -2 -30 7.3883 6.0102
-9 -2 -29 3.1424 4.7154
-9 -2 -28 1.8282 7.5227
-9 -2 -27 10.3024 7.4197
-9 -2 -26 -2.0746 13.7270
-9 -2 -25 1.3285 -17.3187
-9 -2 -24 4.8795 -1.5698
-9 -2 -23 -3.7759 -10.2593
-9 -2 -22 -4.6654 -16.4967
-9 -2 -21 -1.2382 -1.4045
-9 -2 -20 1.2285 -0.1066
-9 -2 -19 5.9196 7.6242
-9 -2 -18 4.5504 -1.1438
-9 -2 -17 13.5213 7.0602
-9 -2 -16 14.9110 3.1138
-9 -2 -15 -8.4134 7.8984
-9 -2 -14 3.1244 10.1666
-9 -2 -13 7.8441 2.0161
-9 -2 -12 3.9663 7.1808
-9 -2 -11 1.0314 -6.6090
-9 -2 -10 8.1369 7.8456
-9 -2 -9 17.9152 -26.2785
-9 -2 -8 -0.2698 -18.7031
-9 -2 -7 -6.9600 -10.9752
-9 -2 -6 -14.0428 6.4396
-9 -2 -5 6.0458 -1.1623
-9 -2 -4 -4.4929 -17.3679
-9 -2 -3 10.2730 -18.0701
-9 -2 -2 12.1213 -19.6721
-9 -2 -1 -4.2520 22.0770
-9 -1 -39 5.8552 5.3927
-9 -1 -38 -5.5487 -4.3588
-9 -1 -37 4.5784 -8.8453
-9 -1 -36 5.8215 4.4231
-9 -1 -35 -1.7247 -7.3939
-9 -1 -34 1.7845 -3.7514
-9 -1 -33 -3.9535 9.8832
-9 -1 -32 16.4192 -10.2488
-9 -1 -31 11.2051 -0.5830
-9 -1 -30 4.8042 5.2541
-9 -1 -29 -1.1281 -11.3311
-9 -1 -28 2.6291 2.0075
-9 -1 -27 -9.6832 -7.4691
-9 -1 -26 -1.1079 2.7242
-9 -1 -25 -5.9309 10.3039
-9 -1 -24 -20.5127 -7.7884
-9 -1 -23 2.4257 0.4260
-9 -1 -22 -0.6526 7.9121
-9 -1 -21 17.3463 -9.0099
-9 -1 -20 8.4543 -8.1788
-9 -1 -19 -2.2087 -12.8922
-9 -1 -18 2.1572 -14.9982
-9 -1 -17 7.8605 6.9706
-9 -1 -16 20.8887 1.7446
-9 -1 -15 7.2967 3.2678
-9 -1 -14 -14.3958 -6.1913
-9 -1 -13 -10.8451 -6.2238
-9 -1 -12 1.4139 -2.1503
-9 -1 -11 -11.5825 -3.4835
-9 -1 -10 -22.0981 6.8978
-9 -1 -9 6.7117 13.7054
-9 -1 -8 -27.4442 3.5812
-9 -1 -7 1.2588 16.3676
-9 -1 -6 -6.5229 -0.7476
-9 -1 -5 -3.3878 -12.8381
-9 -1 -4 -29.7751 -12.2277
-9 -1 -3 -3.5198 9.7887
-9 -1 -2 9.9772 -4.5523
-9 -1 -1 -5.7860 4.6573
-8 -16 -3 1.7293 20.7604
-8 -16 -2 -15.4712 -6.7538
-8 -16 -1 4.5558 0.5674
-8 -15 -14 -0.3005 -0.4197
-8 -15 -13 13.6278 -0.3337
-8 -15 -12 2.9783 6.5396
-8 -15 -11 -3.3112 -10.1082
-8 -15 -10 -6.9802 2.0228
-8 -15 -9 2.4751 -4.7277
-8 -15 -8 3.0499 7.7288
-8 -15 -7 13.6467 0.8444
-8 -15 -6 17.3116 -9.0031
-8 -15 -5 7.1714 7.0790
-8 -15 -4 0.8529 9.2398
-8 -15 -3 -14.2839 3.7859
-8 -15 -2 12.8718 6.3422
-8 -15 -1 -11.2265 11.8881
-8 -14 -20 -1.4889 -2.5985
-8 -14 -19 8.7728 -3.7806
-8 -14 -18 -1.5195 -2.5443
-8 -14 -17 -2.5356 5.8175
-8 -14 -16 -19.6678 -2.9945
-8 -14 -15 6.6114 -6.0467
-8 -14 -14 -5.3442 -5.0777
-8 -14 -13 7.6446 -6.2352
-8 -14 -12 3.3773 -0.7687
-8 -14 -11 -2.3749 6.2652
-8 -14 -10 -20.2972 -8.3583
-8 -14 -9 11.4947 -13.1726
-8 -14 -8 -5.3149 -9.8581
-8 -14 -7 4.4047 -4.4296
-8 -14 -6 5.2956 -0.5471
-8 -14 -5 6.0434 1.7841
-8 -14 -4 3.8624 1.4678
-8 -14 -3 -1.1061 -3.9767
-8 -14 -2 -7.7152 -1.8876
-8 -14 -1 -0.6550 -19.3478
-8 -13 -24 1.6484 -2.7143
-8 -13 -23 7.9694 -0.2352
-8 -13 -22 -2.3859 13.0354
-8 -13 -21 -2.5970 -5.4417
-8 -13 -20 0.8038 -5.1646
-8 -13 -19 -1.2151 -1.9503
-8 -13 -18 -0.7744 10.2876
-8 -13 -17 1.9900 9.7821
-8 -13 -16 -9.7544 0.5146
-8 -13 -15 -11.0475 2.3333
-8 -13 -14 0.2540 -22.9814
-8 -13 -13 -3.5571 6.2840
-8 -13 -12 -6.0508 5.0614
-8 -13 -11 -0.8644 4.0464
-8 -13 -10 -2.9988 4.2259
-8 -13 -9 -7.4642 3.2702
-8 -13 -8 -2.4623 -30.5351
-8 -13 -7 0.8269 1.7929
-8 -13 -6 -3.1713 6.0139
-8 -13 -5 1.8789 6.8142
-8 -13 -4 -0.0686 9.5068
-8 -13 -3 -3.8421 9.8536
-8 -13 -2 -14.1724 -5.3552
-8 -13 -1 -4.0629 -1.3228
-8 -12 -27 -6.1059 14.5363
-8 -12 -26 -3.6662 -5.7487
-8 -12 -25 -0.2594 -6.6980
-8 -12 -24 12.2986 5.6786
-8 -12 -23 -6.4875 -5.2027
-8 -12 -22 -8.9325 -8.9831
-8 -12 -21 4.4081 7.6531
-8 -12 -20 1.7195 0.2296
-8 -12 -19 3.4148 2.4631
-8 -12 -18 -3.3437 9.6629
-8 -12 -17 2.2466 3.0779
-8 -12 -16 -3.9325 0.5800
-8 -12 -15 -10.0103 9.6416
-8 -12 -14 0.3723 -2.3171
-8 -12 -13 -9.1702 -1.1854
-8 -12 -12 8.2103 4.9228
-8 -12 -11 -2.5379 -3.4643
-8 -12 -10 -11.6403 2.6936
-8 -12 -9 -8.3236 8.3522
-8 -12 -8 -1.9297 -4.0811
-8 -12 -7 3.1448 -4.5535
-8 -12 -6 22.6460 -4.7941
-8 -12 -5 1.1587 1.3000
-8 -12 -4 -9.3813 8.7160
-8 -12 -3 -6.4085 8.6419
-8 -12 -2 -3.1785 -3.0983
-8 -12 -1 1.6844 4.8500
-8 -11 -29 2.1632 0.9154
-8 -11 -28 5.4109 -0.6462
-8 -11 -27 -4.4321 -2.4583
-8 -11 -26 3.2125 -3.6898
-8 -11 -25 -10.0377 0.7401
-8 -11 -24 2.3941 9.8678
-8 -11 -23 -2.6917 -3.2011
-8 -11 -22 1.0286 -2.9738
-8 -11 -21 1.0498 -5.4525
-8 -11 -20 13.7615 9.6138
-8 -11 -19 -4.8658 2.8074
-8 -11 -18 4.7132 1.0734
-8 -11 -17 -1.0886 4.8059
-8 -11 -16 -1.9557 -6.9984
-8 -11 -15 0.3010 3.0546
-8 -11 -14 6.5968 18.4237
-8 -11 -13 -7.3780 0.1683
-8 -11 -12 5.2255 5.0354
-8 -11 -11 -1.2403 -1.3790
-8 -11 -10 -12.8915 0.9141
-8 -11 -9 2.3227 -3.9747
-8 -11 -8 0.8518 4.2505
-8 -11 -7 -7.4919 5.7476
-8 -11 -6 15.4872 -4.3586
-8 -11 -5 4.7818 8.9025
-8 -11 -4 -2.9767 11.3704
-8 -11 -3 3.0363 -8.6590
-8 -11 -2 1.0341 -10.5352
-8 -11 -1 1.6353 -2.8217
-8 -10 -32 0.6976 5.9143
-8 -10 -31 -1.7343 -2.0008
-8 -10 -30 -2.3367 -8.7050
-8 -10 -29 -8.2224 4.2598
-8 -10 -28 -2.6823 -1.7466
-8 -10 -27 -4.0570 -5.0734
-8 -10 -26 4.8944 5.8402
-8 -10 -25 0.4706 -0.7969
-8 -10 -24 -11.3787 2.4452
-8 -10 -23 -0.3142 -6.3266
-8 -10 -22 3.3806 4.7931
-8 -10 -21 4.0257 -5.6322
-8 -10 -20 -0.7228 2.6449
-8 -10 -19 5.8052 -7.5024
-8 -10 -18 -15.0801 9.5333
-8 -10 -17 -2.3636 -10.1373
-8 -10 -16 6.4625 4.4500
-8 -10 -15 5.2207 -2.7457
-8 -10 -14 10.9295 4.5525
-8 -10 -13 7.1932 -0.3185
-8 -10 -12 -18.5720 19.2275
-8 -10 -11 -3.9550 -2.9950
-8 -10 -10 3.2349 -3.4160
-8 -10 -9 18.8999 -8.5494
-8 -10 -8 5.5345 -15.1948
-8 -10 -7 6.3712 0.6020
-8 -10 -6 -7.2342 7.8085
-8 -10 -5 -7.7553 -10.2077
-8 -10 -4 2.5873 5.6417
-8 -10 -3 -10.6259 -6.7887
-8 -10 -2 -1.7180 0.1573
-8 -10 -1 6.0870 10.4723
-8 -9 -33 -7.3760 7.4094
-8 -9 -32 -0.0109 13.3712
-8 -9 -31 -4.4397 4.9465
-8 -9 -30 -4.1227 1.8170
-8 -9 -29 -6.3476 7.2575
-8 -9 -28 1.8247 5.9165
-8 -9 -27 -4.0304 1.4704
-8 -9 -26 5.2585 13.8454
-8 -9 -25 2.0298 -1.4226
-8 -9 -24 -2.3970 -4.4427
-8 -9 -23 0.4774 1.3383
-8 -9 -22 -4.9301 0.7334
-8 -9 -21 0.1778 5.0210
-8 -9 -20 -6.4157 5.5022
-8 -9 -19 -3.0841 8.5937
-8 -9 -18 -6.6660 0.3456
-8 -9 -17 12.3829 -1.5960
-8 -9 -16 -4.7090 -10.4437
-8 -9 -15 14.4403 1.6274
-8 -9 -14 0.0939 -0.1023
-8 -9 -13 5.6551 4.3183
-8 -9 -12 -17.0742 8.7853
-8 -9 -11 -2.7934 -2.2664
-8 -9 -10 -18.4094 -16.8050
-8 -9 -9 3.1283 1.8878
-8 -9 -8 1.3318 -8.4076
-8 -9 -7 3.7720 10.1699
-8 -9 -6 2.3758 11.1662
-8 -9 -5 -5.1869 10.1733
-8 -9 -4 1.8152 -10.0274
-8 -9 -3 21.6881 3.3386
-8 -9 -2 -2.4346 11.3136
-8 -9 -1 17.6035 0.4902
-8 -8 -35 10.8596 -0.9552
-8 -8 -34 5.0445 7.7489
-8 -8 -33 11.0640 3.1763
-8 -8 -32 7.9882 9.5594
-8 -8 -31 6.0034 -1.4674
-8 -8 -30 3.1138 8.0247
-8 -8 -29 11.2572 -4.7691
-8 -8 -28 10.5450 3.2041
-8 -8 -27 1.6069 -1.5282
-8 -8 -26 -6.3748 -0.0947
-8 -8 -25 -0.8572 -5.0330
-8 -8 -24 1.0172 17.1944
-8 -8 -23 10.0160 4.6074
-8 -8 -22 2.1852 0.3563
-8 -8 -21 4.2991 5.1976
-8 -8 -20 1.7113 3.5853
-8 -8 -19 -8.4847 -0.1084
-8 -8 -18 -0.9397 -5.1075
-8 -8 -17 4.4147 -8.5173
-8 -8 -16 -2.7733 -4.3841
-8 -8 -15 2.6126 10.6601
-8 -8 -14 11.2714 -1.8837
-8 -8 -13 -7.4670 20.6552
-8 -8 -12 1.1450 -2.7771
-8 -8 -11 12.7640 2.1512
-8 -8 -10 -9.1632 -12.1908
-8 -8 -9 -8.8297 6.8405
-8 -8 -8 10.8992 -6.5794
-8 -8 -7 0.3384 3.2705
-8 -8 -6 12.9485 -16.5325
-8 -8 -5 2.2393 -13.4020
-8 -8 -4 -9.5731 -2.5455
-8 -8 -3 -1.7708 -14.2566
-8 -8 -2 16.4256 -0.2654
-8 -8 -1 -3.1336 27.8305
-8 -7 -36 -0.5732 -7.6201
-8 -7 -35 10.7614 -2.8647
-8 -7 -34 3.8162 -8.0554
-8 -7 -33 3.9164 -3.3925
-8 -7 -32 -3.9542 -16.5369
-8 -7 -31 4.0151 -7.2346
-8 -7 -30 -3.0325 2.1498
-8 -7 -29 9.8383 -4.6943
-8 -7 -28 -4.6064 1.4159
-8 -7 -27 5.4602 8.2854
-8 -7 -26 5.1401 -7.0254
-8 -7 -25 10.6939 -7.4296
-8 -7 -24 1.3259 7.0528
-8 -7 -23 9.8467 2.7209
-8 -7 -22 -9.9302 -3.7450
-8 -7 -21 2.6592 11.2766
-8 -7 -20 0.3375 1.0375
-8 -7 -19 -0.8953 -3.8117
-8 -7 -18 -1.9198 -1.5156
-8 -7 -17 -2.0318 -4.9485
-8 -7 -16 -1.7061 -6.6687
-8 -7 -15 9.3627 6.7506
-8 -7 -13 -10.3523 -10.7887
-8 -7 -12 7.7184 1.2146
-8 -7 -11 -15.7838 -0.2711
-8 -7 -10 7.3628 -0.9922
-8 -7 -9 -4.2188 10.9089
-8 -7 -8 -7.8792 -3.8001
-8 -7 -7 -24.5543 -2.6196
-8 -7 -6 -3.8427 2.0112
-8 -7 -5 -5.7850 -0.2438
-8 -7 -4 7.3066 13.7657
-8 -7 -3 15.4473 11.4563
-8 -7 -2 6.4794 -14.6497
-8 -7 -1 20.9790 3.3984
-8 -6 -37 -6.1601 -1.7015
-8 -6 -36 -3.5077 -0.7632
-8 -6 -35 -6.3129 1.6906
-8 -6 -34 -8.2359 -7.7016
-8 -6 -33 -5.3484 3.9964
-8 -6 -32 -0.5027 1.5311
-8 -6 -31 -2.7924 -7.4065
-8 -6 -30 9.6867 -8.8480
-8 -6 -29 6.4039 6.3142
-8 -6 -28 -13.3436 -10.7084
-8 -6 -27 -2.9628 -4.9549
-8 -6 -26 9.4726 -4.6959
-8 -6 -25 5.7534 3.4813
-8 -6 -24 6.5090 1.4585
-8 -6 -23 7.8539 0.1101
-8 -6 -22 -3.3733 -3.3698
-8 -6 -21 -7.1454 8.8683
-8 -6 -20 -0.5927 -4.4573
-8 -6 -19 -4.2653 3.8556
-8 -6 -18 3.2307 3.2246
-8 -6 -17 1.3291 11.7702
-8 -6 -16 1.1737 6.4591
-8 -6 -15 -5.2604 -3.1926
-8 -6 -14 -4.7046 -3.9901
-8 -6 -13 -3.9531 10.1961
-8 -6 -12 6.9535 -3.0191
-8 -6 -11 1.5677 -3.2115
-8 -6 -10 1.8549 22.5483
-8 -6 -9 11.8157 4.6284
-8 -6 -8 9.5526 13.2997
-8 -6 -7 -4.0640 -5.2855
-8 -6 -6 11.8989 4.3714
-8 -6 -5 2.2043 -11.9790
-8 -6 -4 9.8610 -12.4706
-8 -6 -3 10.7707 -2.6988
-8 -6 -2 -3.3169 2.0294
-8 -6 -1 -6.3217 11.2378
-8 -5 -38 2.5222 3.5847
-8 -5 -37 0.5247 1.9850
-8 -5 -36 -1.9035 8.7109
-8 -5 -35 -1.1506 -2.3518
-8 -5 -34 -1.2542 -3.4948
-8 -5 -33 -10.1967 -4.8950
-8 -5 -32 5.5021 1.5693
-8 -5 -31 -0.6045 4.0595
-8 -5 -30 -8.6070 -4.8436
-8 -5 -29 -3.9763 3.5305
-8 -5 -28 3.4898 0.0951
-8 -5 -27 -1.3869 -7.6700
-8 -5 -26 7.2872 -8.7073
-8 -5 -25 3.4031 1.0306
-8 -5 -24 -0.9893 -0.1658
-8 -5 -23 2.1651 1.3823
-8 -5 -22 3.7137 12.9609
-8 -5 -21 10.1620 0.6863
-8 -5 -20 4.6108 -10.6978
-8 -5 -19 3.6350 -9.1589
-8 -5 -18 8.4064 -6.0150
-8 -5 -17 0.9829 -1.5601
-8 -5 -16 3.0800 19.2437
-8 -5 -15 -7.6525 -1.8223
-8 -5 -14 -2.9917 -13.8389
-8 -5 -13 8.8339 1.7987
-8 -5 -12 12.7322 1.0625
-8 -5 -11 4.9671 -13.3410
-8 -5 -10 11.2976 -2.7130
-8 -5 -9 -0.1195 -10.0636
-8 -5 -8 -5.8648 -11.9428
-8 -5 -7 6.0980 0.5881
-8 -5 -6 -10.3170 2.8179
-8 -5 -5 9.5929 -15.5672
-8 -5 -4 -8.3814 -6.9027
-8 -5 -3 2.8473 -22.1206
-8 -5 -2 17.2743 -9.7908
-8 -5 -1 -1.1681 1.1541
-8 -4 -39 4.6738 -5.8550
-8 -4 -38 -4.6667 6.3260
-8 -4 -37 4.0846 0.1635
-8 -4 -36 -6.7924 3.9691
-8 -4 -35 -5.1013 0.9976
-8 -4 -34 -2.1849 1.0663
-8 -4 -33 7.3469 -1.6609
-8 -4 -32 -1.4455 -0.6756
-8 -4 -31 7.5092 -1.7022
-8 -4 -30 -1.4285 7.3717
-8 -4 -29 -17.3894 -5.4602
-8 -4 -28 10.1195 -8.1245
-8 -4 -27 6.3248 -9.3694
-8 -4 -26 -1.6019 -0.7355
-8 -4 -25 -1.2253 -2.1025
-8 -4 -24 8.7665 -8.6382
-8 -4 -23 -6.2738 -7.1303
-8 -4 -22 -11.8269 -2.5305
-8 -4 -21 -1.6278 -1.1363
-8 -4 -20 -18.7800 -8.4424
-8 -4 -19 -2.9148 6.2479
-8 -4 -18 9.2135 -2.2043
-8 -4 -17 2.2990 -3.0623
-8 -4 -16 -7.5190 -5.4390
-8 -4 -15 4.5552 -3.4347
-8 -4 -14 -9.9877 0.9867
-8 -4 -13 -3.2529 -17.7236
-8 -4 -12 4.1501 -11.3116
-8 -4 -11 -8.1892 5.5876
-8 -4 -10 -6.8431 2.1985
-8 -4 -9 -2.5929 -12.9447
-8 -4 -8 -8.5944 8.5291
-8 -4 -7 -3.6662 -2.8437
-8 -4 -6 -7.9646 2.4769
-8 -4 -5 -13.3068 7.0051
-8 -4 -4 -21.3441 -7.6730
-8 -4 -3 -3.3571 4.4185
-8 -4 -2 16.0994 -9.5385
-8 -4 -1 34.0258 -1.6588
-8 -3 -40 -2.2104 8.0281
-8 -3 -39 -0.3718 -2.8388
-8 -3 -38 0.8192 -0.8817
-8 -3 -37 5.8388 7.3885
-8 -3 -36 -4.7626 -7.0208
-8 -3 -35 0.0404 5.6841
-8 -3 -34 -9.7942 -1.7146
-8 -3 -33 7.8198 -0.3225
-8 -3 -32 -5.3687 -12.2371
-8 -3 -31 -7.4354 5.6729
-8 -3 -30 0.1290 -1.5085
-8 -3 -29 -6.6026 -4.2106
-8 -3 -28 -12.7494 -0.3964
-8 -3 -27 0.6603 -7.9425
-8 -3 -26 -10.0461 4.2403
-8 -3 -25 0.9416 8.3694
-8 -3 -24 -1.7109 19.2088
-8 -3 -23 -1.9682 2.9100
-8 -3 -22 1.6746 7.7803
-8 -3 -21 2.2721 -1.3348
-8 -3 -20 -6.2463 -1.8039
-8 -3 -19 -8.5044 13.0236
-8 -3 -18 -5.9954 -2.4547
-8 -3 -17 -10.1269 3.6161
-8 -3 -16 -5.0948 -14.3488
-8 -3 -15 -8.5131 -2.1506
-8 -3 -14 -2.8342 10.2753
-8 -3 -13 3.8972 9.9259
-8 -3 -12 -10.5119 -15.5551
-8 -3 -11 1.4777 3.6175
-8 -3 -10 7.3866 12.8074
-8 -3 -9 3.0551 9.5152
-8 -3 -8 -2.8861 17.0387
-8 -3 -7 25.3110 0.3290
-8 -3 -6 -4.9886 -3.3612
-8 -3 -5 -2.2932 8.8025
-8 -3 -4 -5.6261 -9.0035
-8 -3 -3 8.3698 -17.3831
-8 -3 -2 -3.7284 -9.7618
-8 -3 -1 -4.4216 10.6072
-8 -2 -40 -6.2489 -3.3383
-8 -2 -39 5.0959 8.4859
-8 -2 -38 -4.4716 -6.5313
-8 -2 -37 3.7737 4.5837
-8 -2 -36 0.2047 5.7596
-8 -2 -35 2.2054 4.0833
-8 -2 -34 -4.3244 -0.1599
-8 -2 -33 -13.0459 12.3769
-8 -2 -32 2.2802 -10.2723
-8 -2 -31 -12.8194 16.3843
-8 -2 -30 11.5276 1.4594
-8 -2 -29 7.5561 -2.5129
-8 -2 -28 -0.5063 10.5773
-8 -2 -27 2.0807 1.9752
-8 -2 -26 13.8433 -4.7582
-8 -2 -25 13.9054 1.8880
-8 -2 -24 0.2705 -7.5099
-8 -2 -23 -2.0927 8.8600
-8 -2 -22 -7.9546 2.5998
-8 -2 -21 10.3030 7.7588
-8 -2 -20 1.9200 17.5855
-8 -2 -19 9.6875 13.6899
-8 -2 -18 -15.1475 -4.7654
-8 -2 -17 -20.9164 8.9386
-8 -2 -16 14.6410 2.6524
-8 -2 -15 -4.6934 -4.1834
-8 -2 -14 10.0533 -7.9981
-8 -2 -13 2.6422 1.1003
-8 -2 -12 -2.4905 -6.0197
-8 -2 -11 2.0067 -1.1707
-8 -2 -10 34.6077 -15.1808
-8 -2 -9 -2.4708 -9.9426
-8 -2 -8 -10.4116 -6.3565
-8 -2 -7 -4.9174 10.3829
-8 -2 -6 -13.8958 -11.5553
-8 -2 -5 -7.7642 10.4348
-8 -2 -4 4.3276 -5.6675
-8 -2 -3 10.6836 7.0640
-8 -2 -2 1.5221 -19.3621
-8 -2 -1 -16.8162 6.1906
-8 -1 -40 -4.5007 -3.6404
-8 -1 -39 5.5246 -1.1087
-8 -1 -38 13.1068 -1.9566
-8 -1 -37 -6.5761 1.8246
-8 -1 -36 7.4387 3.4903
-8 -1 -35 5.3436 11.6709
-8 -1 -34 -0.1727 -7.3921
-8 -1 -33 -0.3790 10.7071
-8 -1 -32 5.1471 -0.1736
-8 -1 -31 -8.0389 -17.6307
-8 -1 -30 16.9625 -4.0348
-8 -1 -29 -9.8155 -11.0797
-8 -1 -28 2.1509 0.5383
-8 -1 -27 3.7522 -2.9693
-8 -1 -26 -2.3461 3.7802
-8 -1 -25 4.1959 -2.7018
-8 -1 -24 3.5545 -2.6798
-8 -1 -23 7.2954 3.7279
-8 -1 -22 23.4519 5.8165
-8 -1 -21 4.9863 -4.3965
-8 -1 -20 -2.9974 2.5267
-8 -1 -19 6.6888 17.6626
-8 -1 -18 -2.3318 -13.2950
-8 -1 -17 -12.1905 7.8700
-8 -1 -16 1.1507 -0.9149
-8 -1 -15 -9.4730 -10.7150
-8 -1 -14 -3.6786 -3.3168
-8 -1 -13 -11.1290 -20.7208
-8 -1 -12 4.8312 3.8230
-8 -1 -11 -8.8483 1.8271
-8 -1 -10 -5.8815 2.6940
-8 -1 -9 -1.3867 -8.4796
-8 -1 -8 14.0922 25.7968
-8 -1 -7 -7.3272 6.0176
-8 -1 -6 5.8451 5.9344
-8 -1 -5 2.7937 -24.6391
-8 -1 -4 14.7647 -15.8578
-8 -1 -3 -18.0018 15.0416
-8 -1 -2 13.3876 11.5275
-8 -1 -1 1.2889 4.8033
-7 -16 -11 3.7781 1.3945
-7 -16 -10 -5.2874 -3.2578
-7 -16 -9 4.2593 -5.3089
-7 -16 -8 -18.5776 -3.0199
-7 -16 -7 6.4332 7.8795
-7 -16 -6 -4.1477 -3.5490
-7 -16 -5 -1.2267 6.1964
-7 -16 -4 -3.4350 -0.3581
-7 -16 -3 -0.6865 -11.3096
-7 -16 -2 -11.0506 0.4882
-7 -16 -1 -5.4833 -17.8547
-7 -15 -17 11.3450 -14.1900
-7 -15 -16 3.2955 0.0990
-7 -15 -15 -2.3043 -0.9343
-7 -15 -14 -1.9255 -8.2397
-7 -15 -13 3.6310 3.7148
-7 -15 -12 0.2074 2.2786
-7 -15 -11 -3.0666 -4.7042
-7 -15 -10 6.7543 -5.6219
-7 -15 -9 3.4030 5.3032
-7 -15 -8 0.3386 -7.3154
-7 -15 -7 3.3231 13.3066
-7 -15 -6 1.2491 -1.4126
-7 -15 -5 -14.8937 11.7303
-7 -15 -4 2.1007 -2.3100
-7 -15 -3 -5.3470 7.3601
-7 -15 -2 1.9745 -3.3195
-7 -15 -1 18.5203 5.6267
-7 -14 -22 -1.9374 10.7922
-7 -14 -21 6.3458 -0.9040
-7 -14 -20 -13.2401 4.6134
-7 -14 -19 -5.2793 -4.5958
-7 -14 -18 -7.6270 0.6771
-7 -14 -17 -0.2696 -4.1890
-7 -14 -16 0.7148 2.6985
-7 -14 -15 9.2421 9.0802
-7 -14 -14 2.2950 2.1724
-7 -14 -13 -7.9756 -2.3611
-7 -14 -12 -4.1896 -7.2797
-7 -14 -11 -7.0713 -5.4732
-7 -14 -10 -3.6232 9.7265
-7 -14 -9 8.5434 1.7563
-7 -14 -8 20.4882 2.9365
-7 -14 -7 -5.7123 4.2877
-7 -14 -6 -2.1857 -1.2436
-7 -14 -5 -6.6616 -5.9474
-7 -14 -4 4.8640 4.0288
-7 -14 -3 -0.7725 -17.0976
-7 -14 -2 13.5868 -6.4530
-7 -14 -1 -0.0816 -7.7746
-7 -13 -26 2.6169 -7.9479
-7 -13 -25 9.7469 8.3656
-7 -13 -24 7.4342 2.5920
-7 -13 -23 4.1241 -0.9856
-7 -13 -22 8.7350 1.7601
-7 -13 -21 -4.6485 -0.3024
-7 -13 -20 2.6265 -4.9911
-7 -13 -19 11.0902 4.4192
-7 -13 -18 -1.8060 -6.4847
-7 -13 -17 6.4668 0.8768
-7 -13 -16 -0.8351 -8.5729
-7 -13 -15 7.7048 -2.9779
-7 -13 -14 8.2393 6.7947
-7 -13 -13 -5.5007 4.9048
-7 -13 -12 4.5741 2.7941
-7 -13 -11 11.0308 -7.7655
-7 -13 -10 -0.9993 -7.7209
-7 -13 -9 10.1072 -2.8620
-7 -13 -8 -8.6497 9.6615
-7 -13 -7 -6.0178 6.5115
-7 -13 -6 -1.3705 6.6940
-7 -13 -5 0.5947 -7.4788
-7 -13 -4 -6.8147 -8.4879
-7 -13 -3 3.9494 -6.9558
-7 -13 -2 -2.6014 2.0270
-7 -13 -1 11.6423 -1.8936
-7 -12 -29 -0.9440 -1.4418
-7 -12 -28 4.4764 -2.7490
-7 -12 -27 -6.5957 -5.9322
-7 -12 -26 8.8436 -9.8484
-7 -12 -25 -1.8319 -11.3058
-7 -12 -24 0.5589 4.7205
-7 -12 -23 -8.4497 0.1910
-7 -12 -22 -4.6277 -6.8579
-7 -12 -21 -9.5225 -9.1313
-7 -12 -20 0.2812 -1.3185
-7 -12 -19 2.5368 -11.0809
-7 -12 -18 -2.2485 8.4582
-7 -12 -17 -6.6605 -1.2326
-7 -12 -16 2.9040 -18.9285
-7 -12 -15 -8.9272 -4.6855
-7 -12 -14 -1.3332 -10.4651
-7 -12 -13 7.4850 -9.5626
-7 -12 -12 -3.9253 16.2137
-7 -12 -11 3.1866 -1.9538
-7 -12 -10 6.0857 -9.0845
-7 -12 -9 7.7568 6.8792
-7 -12 -8 -5.2853 -6.6000
-7 -12 -7 0.9437 9.1775
-7 -12 -6 -2.8340 0.8934
-7 -12 -5 -6.1985 -4.3307
-7 -12 -4 -1.9184 -8.5405
-7 -12 -3 -1.1380 4.5498
-7 -12 -2 -1.1527 -6.5884
-7 -12 -1 1.2037 -3.8477
-7 -11 -31 0.9135 -3.5559
-7 -11 -30 -3.9255 2.2487
-7 -11 -29 -1.3604 2.3249
-7 -11 -28 -2.7893 -9.3842
-7 -11 -27 -2.9682 -0.9557
-7 -11 -26 3.4249 14.3038
-7 -11 -25 -3.6405 -2.8511
-7 -11 -24 -1.5460 8.8737
-7 -11 -23 0.2240 7.2378
-7 -11 -22 -12.8094 -0.1465
-7 -11 -21 0.9719 -2.9097
-7 -11 -20 6.5520 4.1874
-7 -11 -19 -0.5699 -0.9599
-7 -11 -18 -13.3106 2.1951
-7 -11 -17 0.2746 8.6781
-7 -11 -16 -17.2168 3.5712
-7 -11 -15 -8.8137 -1.9601
-7 -11 -14 11.6599 -1.3333
-7 -11 -13 7.6636 -9.3143
-7 -11 -12 -4.4915 -5.2212
-7 -11 -11 3.9755 4.3861
-7 -11 -10 -16.4502 2.7408
-7 -11 -9 3.3416 7.2982
-7 -11 -8 15.0912 -1.8008
-7 -11 -7 -3.6435 3.7197
-7 -11 -6 1.9736 -3.9668
-7 -11 -5 -3.7594 1.8267
-7 -11 -4 -1.3545 2.6808
-7 -11 -3 5.2308 -6.6002
-7 -11 -2 10.3284 -2.4653
-7 -11 -1 -3.3898 -6.5660
-7 -10 -33 2.3085 1.5067
-7 -10 -32 -3.5765 -2.3113
-7 -10 -31 -6.2884 -5.1392
-7 -10 -30 0.3970 -0.3714
-7 -10 -29 0.1822 -2.9230
-7 -10 -28 6.6110 -9.6208
-7 -10 -27 1.2073 2.2811
-7 -10 -26 4.3557 8.0161
-7 -10 -25 7.2504 2.5798
-7 -10 -24 -3.5480 -1.0923
-7 -10 -23 2.1689 -6.6752
-7 -10 -22 -0.6743 -2.0454
-7 -10 -21 0.8568 -0.8635
-7 -10 -20 8.1875 3.2550
-7 -10 -19 -1.6737 11.2698
-7 -10 -18 0.9025 -0.3293
-7 -10 -17 3.2051 3.6619
-7 -10 -16 1.1866 3.5803
-7 -10 -15 -2.5358 0.3397
-7 -10 -14 3.5059 -2.6338
-7 -10 -13 0.2395 2.8140
-7 -10 -12 1.2219 -0.0292
-7 -10 -11 11.9642 -2.6318
-7 -10 -10 1.6260 -9.4281
-7 -10 -9 1.0330 6.5952
-7 -10 -8 4.0496 -9.6047
-7 -10 -7 -8.5182 -0.6565
-7 -10 -6 -6.9043 -2.6954
-7 -10 -5 -7.0089 -7.5603
-7 -10 -4 -4.6256 2.3040
-7 -10 -3 -11.9463 -3.4169
-7 -10 -2 -5.4811 -15.8862
-7 -10 -1 9.6323 8.5513
-7 -9 -35 0.7405 3.5895
-7 -9 -34 -8.6785 6.2733
-7 -9 -33 -3.0993 2.5992
-7 -9 -32 -6.4992 -0.0748
-7 -9 -31 -10.4711 6.2085
-7 -9 -30 -5.2180 -8.4566
-7 -9 -29 4.1099 -6.0170
-7 -9 -28 9.2965 5.7984
-7 -9 -27 0.9415 -5.7951
-7 -9 -26 -4.7328 -2.8779
-7 -9 -25 -4.8769 -5.1307
-7 -9 -24 -6.5367 0.1475
-7 -9 -23 -6.1954 -1.2929
-7 -9 -22 11.8701 -3.0854
-7 -9 -21 10.4453 2.3519
-7 -9 -20 -7.7141 -3.1390
-7 -9 -19 6.8737 -6.8219
-7 -9 -18 5.4797 6.1688
-7 -9 -17 -2.8787 -8.1472
-7 -9 -16 11.9986 -8.0011
-7 -9 -15 8.7640 -3.0158
-7 -9 -14 -13.7211 0.5192
-7 -9 -13 -11.0067 -4.0949
-7 -9 -12 -6.1878 -2.4006
-7 -9 -11 2.7503 -3.4557
-7 -9 -10 6.0286 -13.0840
-7 -9 -9 0.9263 9.8088
-7 -9 -8 -3.5706 13.2954
-7 -9 -7 -15.4918 13.3050
-7 -9 -6 9.0107 10.5093
-7 -9 -5 -0.9560 6.8244
-7 -9 -4 -2.9177 2.6533
-7 -9 -3 0.4578 -1.3647
-7 -9 -2 -6.3823 1.3504
-7 -9 -1 -15.8524 -11.8416
-7 -8 -36 10.4133 5.3801
-7 -8 -35 -3.0487 8.7316
-7 -8 -34 5.2861 13.4470
-7 -8 -33 -0.9340 7.5556
-7 -8 -32 -0.1353 -1.5341
-7 -8 -31 -1.5133 1.0162
-7 -8 -30 -3.2958 -13.6549
-7 -8 -29 -3.4028 -7.1400
-7 -8 -28 -3.0274 17.2221
-7 -8 -27 -6.6342 4.9862
-7 -8 -26 -7.7950 3.0428
-7 -8 -25 2.7667 -2.6361
-7 -8 -24 -4.9257 -8.9199
-7 -8 -23 5.9769 -6.7288
-7 -8 -22 -3.9854 1.7504
-7 -8 -21 -2.9345 -5.6195
-7 -8 -20 -2.4535 -1.0280
-7 -8 -19 -6.0208 -5.1637
-7 -8 -18 -1.4561 -11.2233
-7 -8 -17 3.9632 4.9298
-7 -8 -16 -4.5479 -2.2196
-7 -8 -15 -4.7034 9.7894
-7 -8 -14 -1.0700 14.2959
-7 -8 -13 0.9927 2.6907
-7 -8 -12 -6.7827 -12.4533
-7 -8 -11 -5.7218 -6.3518
-7 -8 -10 15.5606 -4.0628
-7 -8 -9 8.4395 7.2299
-7 -8 -8 14.0621 0.0262
-7 -8 -7 -0.0948 -5.4248
-7 -8 -6 3.1017 4.2330
-7 -8 -5 -4.1257 -6.5959
-7 -8 -4 -7.1440 6.9403
-7 -8 -3 -3.0349 6.9582
-7 -8 -2 -6.1581 17.2961
-7 -8 -1 -1.2732 13.2089
-7 -7 -38 1.8311 -1.9440
-7 -7 -37 6.1881 -3.6280
-7 -7 -36 12.0832 0.5750
-7 -7 -35 7.8370 -3.0011
-7 -7 -34 -1.8013 2.7466
-7 -7 -33 0.0703 -0.6288
-7 -7 -32 -16.4557 7.2093
-7 -7 -31 0.1264 -4.5131
-7 -7 -30 14.5044 13.2935
-7 -7 -29 3.7759 12.2049
-7 -7 -28 2.8419 -4.1829
-7 -7 -27 -1.4041 2.0800
-7 -7 -26 -20.5226 5.7000
-7 -7 -25 -0.2777 -1.4992
-7 -7 -24 -2.3575 -1.6208
-7 -7 -23 5.8282 6.3276
-7 -7 -22 -6.2604 -7.4579
-7 -7 -21 -5.8396 2.9711
-7 -7 -20 1.7381 -1.4381
-7 -7 -18 -8.5194 -3.7342
-7 -7 -17 13.1026 -2.0758
-7 -7 -16 16.3179 8.1949
-7 -7 -15 -14.4064 4.5337
-7 -7 -14 5.1681 2.4824
-7 -7 -13 -3.5553 -4.7140
-7 -7 -12 -6.2115 -4.9338
-7 -7 -11 -3.6433 -1.9707
-7 -7 -10 -3.9239 4.5029
-7 -7 -9 -2.7720 -2.6482
-7 -7 -8 2.2783 4.2865
-7 -7 -7 2.4986 -1.5679
-7 -7 -6 -3.2657 12.5229
-7 -7 -5 9.4608 -2.3802
-7 -7 -4 7.3432 7.4731
-7 -7 -3 15.6902 4.2029
-7 -7 -2 -4.9956 -15.6468
-7 -7 -1 -2.0220 8.4932
-7 -6 -39 -5.4579 -7.2060
-7 -6 -38 -1.7042 -12.0413
-7 -6 -37 2.1627 2.8736
-7 -6 -36 -2.9789 1.1030
-7 -6 -35 7.3178 2.9768
-7 -6 -34 2.6586 2.5322
-7 -6 -33 6.5570 0.3244
-7 -6 -32 2.5260 -9.2369
-7 -6 -31 7.6641 -4.0649
-7 -6 -30 0.8823 -5.4665
-7 -6 -29 9.3683 18.6606
-7 -6 -28 -5.7311 2.9016
-7 -6 -27 -4.9511 -2.2928
-7 -6 -26 9.1924 4.8840
-7 -6 -25 4.8898 0.0064
-7 -6 -24 -13.0650 -9.2166
-7 -6 -23 -9.5998 13.8062
-7 -6 -22 0.3423 -12.5341
-7 -6 -21 -1.0007 2.8096
-7 -6 -20 1.7283 2.9463
-7 -6 -19 -0.3212 -3.9916
-7 -6 -18 4.1977 -6.5223
-7 -6 -17 2.3678 0.5599
-7 -6 -16 -3.4285 -5.4833
-7 -6 -15 6.9133 3.3181
-7 -6 -14 -2.0034 7.0008
-7 -6 -13 -5.0616 -11.0462
-7 -6 -12 3.6720 8.6069
-7 -6 -11 19.1913 5.3929
-7 -6 -10 4.4654 4.8021
-7 -6 -9 -2.1763 -4.4317
-7 -6 -8 -0.7446 -11.5005
-7 -6 -7 -1.0910 2.7601
-7 -6 -6 6.6243 -13.6315
-7 -6 -5 9.9804 -0.1670
-7 -6 -4 -14.5312 -7.3087
-7 -6 -3 5.6026 8.2061
-7 -6 -2 2.1371 -16.2951
-7 -6 -1 -17.1006 -1.0667
-7 -5 -40 0.3075 -0.9659
-7 -5 -39 -0.7007 5.3106
-7 -5 -38 0.9135 1.5839
-7 -5 -37 6.0264 -9.2989
-7 -5 -36 -1.8245 -9.3923
-7 -5 -35 -4.3168 -2.8847
-7 -5 -34 -4.5477 -1.8120
-7 -5 -33 -8.1081 0.0454
-7 -5 -32 5.2182 -4.5942
-7 -5 -31 12.8589 5.3015
-7 -5 -30 -2.8240 -6.4073
-7 -5 -29 -4.4382 -2.4068
-7 -5 -28 7.2648 2.9920
-7 -5 -27 -19.6460 2.4328
-7 -5 -26 8.7581 3.3365
-7 -5 -25 13.3565 4.8857
-7 -5 -24 -7.3218 4.5633
-7 -5 -23 -12.1979 5.3845
-7 -5 -22 10.8546 -9.1170
-7 -5 -21 -7.8188 -8.8755
-7 -5 -20 5.0715 -4.9302
-7 -5 -19 -6.6929 1.4856
-7 -5 -18 2.1710 4.4050
-7 -5 -17 -4.7049 0.9690
-7 -5 -16 -10.4782 -4.8069
-7 -5 -15 -3.6149 4.8786
-7 -5 -14 5.6159 -13.5015
-7 -5 -13 0.3732 -4.5515
-7 -5 -12 -2.1160 2.1796
-7 -5 -11 -1.0163 -5.4593
-7 -5 -10 -6.6159 -5.5024
-7 -5 -9 -1.2740 10.7722
-7 -5 -8 -13.3431 1.3005
-7 -5 -7 -14.9176 -17.2851
-7 -5 -6 10.6207 0.5439
-7 -5 -5 -8.3150 -1.5319
-7 -5 -4 -2.8828 8.3591
-7 -5 -3 -28.9520 14.9043
-7 -5 -2 9.4649 12.3214
-7 -5 -1 -15.6526 17.8771
-7 -4 -40 -6.5928 -1.9961
-7 -4 -39 -1.1008 -3.4575
-7 -4 -38 -7.6713 8.9432
-7 -4 -37 -6.7971 1.9227
-7 -4 -36 -0.1697 -3.9208
-7 -4 -35 1.3899 8.8613
-7 -4 -34 5.9209 -5.6208
-7 -4 -33 2.8570 -0.5372
-7 -4 -32 -7.7474 0.9224
-7 -4 -31 -0.6737 8.1720
-7 -4 -30 4.9526 -0.6422
-7 -4 -29 -10.1044 6.0047
-7 -4 -28 8.4848 -5.0422
-7 -4 -27 12.4951 -5.9371
-7 -4 -26 -8.7005 -0.6473
-7 -4 -25 -5.7544 -7.2894
-7 -4 -24 -10.3171 10.6927
-7 -4 -23 -0.3580 3.6125
-7 -4 -22 -4.5061 4.8970
-7 -4 -21 -11.6777 -5.3136
-7 -4 -20 4.4688 -0.7238
-7 -4 -19 7.9187 -2.4014
-7 -4 -18 2.7551 28.0789
-7 -4 -17 0.5014 8.5279
-7 -4 -16 -4.1548 2.1188
-7 -4 -15 -6.5086 0.8714
-7 -4 -14 6.7309 -5.6677
-7 -4 -13 -3.7378 10.4406
-7 -4 -12 7.5212 18.9755
-7 -4 -11 -2.3875 -0.4497
-7 -4 -10 -11.3349 0.2078
-7 -4 -9 -11.3792 9.7713
-7 -4 -8 -1.1685 13.3666
-7 -4 -7 7.5036 5.9029
-7 -4 -6 -4.5599 8.0343
-7 -4 -5 19.7856 6.0600
-7 -4 -4 20.4801 15.8099
-7 -4 -3 17.0059 -0.4532
-7 -4 -2 -17.7463 23.8398
-7 -4 -1 -7.5759 -1.1937
-7 -3 -41 1.4290 1.8230
-7 -3 -40 2.1437 7.0159
-7 -3 -39 4.2451 3.8026
-7 -3 -38 -3.8453 -8.5768
-7 -3 -37 4.5509 5.4679
-7 -3 -36 -4.6623 -4.8024
-7 -3 -35 1.3697 -3.3873
-7 -3 -34 9.2929 2.7599
-7 -3 -33 8.4337 -1.6868
-7 -3 -32 8.8261 5.3578
-7 -3 -31 -18.9307 7.4282
-7 -3 -30 5.7389 -7.0014
-7 -3 -29 -10.2584 -0.1016
-7 -3 -28 -3.1186 8.0047
-7 -3 -27 1.8347 0.5188
-7 -3 -26 10.6434 13.7629
-7 -3 -25 -9.4485 13.3654
-7 -3 -24 9.5807 -0.6710
-7 -3 -23 13.0537 4.0834
-7 -3 -22 -9.4446 -10.4459
-7 -3 -21 4.6965 6.0758
-7 -3 -20 13.0570 2.3228
-7 -3 -19 22.0617 -12.2829
-7 -3 -18 5.9448 -7.4985
-7 -3 -17 13.0459 7.1138
-7 -3 -16 -9.0841 0.1300
-7 -3 -15 10.4566 -1.7459
-7 -3 -14 19.0765 0.5281
-7 -3 -13 1.0926 4.1321
-7 -3 -12 6.7869 6.9128
-7 -3 -11 4.6434 13.0137
-7 -3 -10 -0.0801 18.7880
-7 -3 -9 6.5111 -15.0716
-7 -3 -8 15.6742 -16.2159
-7 -3 -7 20.6812 -9.5613
-7 -3 -6 -3.1606 -15.0264
-7 -3 -5 -3.3542 -0.7519
-7 -3 -4 12.2679 -3.5780
-7 -3 -3 24.5651 12.1733
-7 -3 -2 2.4707 1.2029
-7 -3 -1 3.8419 3.2169
-7 -2 -41 -2.5729 -2.0107
-7 -2 -40 -2.7269 6.4819
-7 -2 -39 3.4141 -0.5902
-7 -2 -38 -5.1291 -6.0022
-7 -2 -37 0.7675 1.1309
-7 -2 -36 8.0769 -4.7239
-7 -2 -35 -4.2445 -4.5851
-7 -2 -34 3.0866 -12.5812
-7 -2 -33 4.1246 12.8258
-7 -2 -32 3.4472 5.0966
-7 -2 -31 6.5535 2.5983
-7 -2 -30 1.1608 18.7967
-7 -2 -29 5.0686 -20.7950
-7 -2 -28 14.0049 -0.5541
-7 -2 -27 0.7639 -5.0410
-7 -2 -26 2.1938 0.4547
-7 -2 -25 9.2608 -10.7408
-7 -2 -24 -8.8628 5.4573
-7 -2 -23 -5.0931 -22.7473
-7 -2 -22 1.2917 -11.0830
-7 -2 -21 -1.4171 -9.9024
-7 -2 -20 4.2489 -6.6579
-7 -2 -19 -6.3337 -0.5181
-7 -2 -18 -6.9477 -20.3461
-7 -2 -17 3.7287 -6.4121
-7 -2 -16 15.4689 -14.0534
-7 -2 -15 3.6780 9.3729
-7 -2 -14 2.8317 -6.6294
-7 -2 -13 10.7662 -0.9311
-7 -2 -12 14.5656 -4.0240
-7 -2 -11 -19.8029 -3.8422
-7 -2 -10 -12.5159 4.3844
-7 -2 -9 -4.3915 -16.5574
-7 -2 -8 -21.6907 -17.4712
-7 -2 -7 -3.2265 -2.2921
-7 -2 -6 10.2814 7.8188
-7 -2 -5 10.0999 7.1288
-7 -2 -4 -5.0106 -9.8351
-7 -2 -3 -13.0575 -12.3153
-7 -2 -2 5.3037 2.8284
-7 -2 -1 -5.3200 23.7636
-7 -1 -42 -1.9783 3.6087
-7 -1 -41 5.8052 0.9423
-7 -1 -40 -2.3971 -3.2548
-7 -1 -39 -0.2542 -4.9828
-7 -1 -38 -5.4327 -4.2781
-7 -1 -37 0.8748 3.6764
-7 -1 -36 -4.3425 -6.5369
-7 -1 -35 7.5759 -1.5437
-7 -1 -34 3.0937 -1.1034
-7 -1 -33 -7.4278 -4.6479
-7 -1 -32 19.6259 -4.2042
-7 -1 -31 -4.1708 -11.6735
-7 -1 -30 -8.9242 -3.0912
-7 -1 -29 1.2002 7.9254
-7 -1 -28 -16.7538 -2.2100
-7 -1 -27 1.3020 -4.7343
-7 -1 -26 -10.7843 9.1119
-7 -1 -25 -3.9686 -1.9028
-7 -1 -24 -19.8365 -1.1981
-7 -1 -23 -7.8171 2.9910
-7 -1 -22 -14.6665 -4.1093
-7 -1 -21 18.6297 0.2603
-7 -1 -20 -13.6454 -7.2497
-7 -1 -19 -15.2056 4.8431
-7 -1 -18 -12.2219 -1.4014
-7 -1 -17 -7.4520 -10.4997
-7 -1 -16 26.9633 -11.4967
-7 -1 -15 -1.9534 -3.0632
-7 -1 -14 -2.8459 -0.1624
-7 -1 -13 -11.7132 15.9636
-7 -1 -12 13.7346 21.5702
-7 -1 -11 -16.2988 0.4294
-7 -1 -10 -5.4743 11.8252
-7 -1 -9 -0.5651 -2.9207
-7 -1 -8 0.7875 0.9764
-7 -1 -7 9.8196 -0.8626
-7 -1 -6 14.8710 -5.3499
-7 -1 -5 11.5773 0.2458
-7 -1 -4 -11.4115 0.2101
-7 -1 -3 -8.0171 12.0511
-7 -1 -2 18.8611 -6.7490
-7 -1 -1 17.4439 -15.9173
-6 -16 -14 4.1984 0.9524
-6 -16 -13 -10.0959 5.6222
-6 -16 -12 -0.0740 3.9566
-6 -16 -11 6.0486 5.7670
-6 -16 -10 -11.3109 5.9869
-6 -16 -9 1.0704 -2.0390
-6 -16 -8 2.6803 -6.0078
-6 -16 -7 -4.5947 12.8108
-6 -16 -6 11.9785 6.3081
-6 -16 -5 -5.2359 -7.6044
-6 -16 -4 0.9345 9.3657
-6 -16 -3 -4.9028 2.7665
-6 -16 -2 -0.8353 -9.9831
-6 -16 -1 -0.0395 10.3320
-6 -15 -20 -1.7543 -2.1979
-6 -15 -19 0.0605 -9.2701
-6 -15 -18 -5.9690 -1.4866
-6 -15 -17 3.8989 -6.5963
-6 -15 -16 0.2397 -2.3015
-6 -15 -15 -3.3839 5.8196
-6 -15 -14 9.4378 -6.1930
-6 -15 -13 3.2584 5.1844
-6 -15 -12 4.9582 -4.3762
-6 -15 -11 -1.4960 -9.8531
-6 -15 -10 -7.9437 -0.6971
-6 -15 -9 5.3414 6.0710
-6 -15 -8 0.7946 1.4470
-6 -15 -7 -7.1370 2.1622
-6 -15 -6 9.4371 -2.8182
-6 -15 -5 -3.9329 -8.1421
-6 -15 -4 -8.6404 12.9884
-6 -15 -3 13.2832 -13.3989
-6 -15 -2 5.0428 9.7429
-6 -15 -1 6.7061 -9.0358
-6 -14 -24 -2.7605 -3.3389
-6 -14 -23 2.9987 3.2395
-6 -14 -22 -5.9696 12.2122
-6 -14 -21 -12.7241 7.7027
-6 -14 -20 -1.6117 -3.1483
-6 -14 -19 -3.3107 -4.1141
-6 -14 -18 -1.1262 -0.1826
-6 -14 -17 2.4991 4.8704
-6 -14 -16 -5.7109 -6.0206
-6 -14 -15 -4.1573 9.2588
-6 -14 -14 -12.1678 -1.8600
-6 -14 -13 -7.8632 -9.9344
-6 -14 -12 1.8108 11.8957
-6 -14 -11 -5.1231 -2.2574
-6 -14 -10 6.0616 -3.6237
-6 -14 -9 3.4106 9.9041
-6 -14 -8 -10.7419 0.0362
-6 -14 -7 -4.0909 -1.9770
-6 -14 -6 -5.7888 0.9834
-6 -14 -5 -4.0432 -7.2978
-6 -14 -4 7.1984 -6.3819
-6 -14 -3 7.8495 -3.4064
-6 -14 -2 -22.2536 2.2444
-6 -14 -1 3.5459 7.7748
-6 -13 -27 -0.5413 8.9822
-6 -13 -26 4.7944 1.9017
-6 -13 -25 -5.3311 -0.8656
-6 -13 -24 16.4356 0.3322
-6 -13 -23 1.5143 -3.0478
-6 -13 -22 0.0534 10.3297
-6 -13 -21 -2.1542 3.1366
-6 -13 -20 -5.7347 -1.5875
-6 -13 -19 -4.2915 -1.5103
-6 -13 -18 10.6099 7.2806
-6 -13 -17 4.6649 4.5088
-6 -13 -16 4.2542 14.9076
-6 -13 -15 -10.8479 9.0026
-6 -13 -14 5.4659 -2.2697
-6 -13 -13 -8.7753 -0.3343
-6 -13 -12 -10.5226 -1.7358
-6 -13 -11 13.8762 9.1498
-6 -13 -10 0.2198 13.9641
-6 -13 -9 -4.8308 -0.5653
-6 -13 -8 0.1345 -0.0055
-6 -13 -7 -9.1254 6.0655
-6 -13 -6 -10.4831 -7.3696
-6 -13 -5 5.3836 0.5965
-6 -13 -4 13.4616 3.3386
-6 -13 -3 2.1305 6.9058
-6 -13 -2 1.1046 11.7535
-6 -13 -1 -1.8025 12.7528
-6 -12 -30 -2.1743 7.9022
-6 -12 -29 0.0588 -1.4814
-6 -12 -28 5.1924 -4.5849
-6 -12 -27 -8.1552 3.0373
-6 -12 -26 -3.4362 -7.6398
-6 -12 -25 -1.3566 0.9076
-6 -12 -24 5.6405 6.7955
-6 -12 -23 -6.1657 0.2164
-6 -12 -22 4.9324 8.1529
-6 -12 -21 8.1587 -6.4620
-6 -12 -20 -0.9184 0.0479
-6 -12 -19 6.1335 0.3373
-6 -12 -18 6.5958 -3.6390
-6 -12 -17 3.2615 0.6814
-6 -12 -16 1.5872 13.4616
-6 -12 -15 1.8998 -2.4150
-6 -12 -14 -1.2520 16.9058
-6 -12 -13 9.5472 -2.8355
-6 -12 -12 12.8617 -0.0436
-6 -12 -11 4.5629 3.6418
-6 -12 -10 -7.0664 -2.4498
-6 -12 -9 -6.8708 9.2261
-6 -12 -8 -1.0554 6.8889
-6 -12 -7 1.4922 -4.0642
-6 -12 -6 5.2187 -8.2806
-6 -12 -5 2.1745 -8.4775
-6 -12 -4 6.2138 3.5381
-6 -12 -3 -3.1270 12.3428
-6 -12 -2 2.2526 8.8334
-6 -12 -1 2.3024 -9.8888
-6 -11 -32 1.8636 0.0846
-6 -11 -31 0.1571 7.6323
-6 -11 -30 1.2116 0.8272
-6 -11 -29 -5.9208 -1.5419
-6 -11 -28 5.2956 3.8724
-6 -11 -27 0.2073 2.7157
-6 -11 -26 4.9056 2.7353
-6 -11 -25 4.1734 -6.3157
-6 -11 -24 2.3814 -2.0373
-6 -11 -23 -4.9111 -0.3218
-6 -11 -22 1.4865 -8.1177
-6 -11 -21 2.1680 -13.2028
-6 -11 -20 -4.1772 12.1725
-6 -11 -19 12.8633 0.4409
-6 -11 -18 3.3939 -5.6436
-6 -11 -17 -6.2281 2.0774
-6 -11 -16 6.1026 -6.4977
-6 -11 -15 11.0509 -14.2727
-6 -11 -14 -9.8060 3.1243
-6 -11 -13 15.0702 0.0755
-6 -11 -12 -4.8982 7.1005
-6 -11 -11 0.2007 6.5469
-6 -11 -10 -0.3128 -4.2042
-6 -11 -9 -0.1639 4.3621
-6 -11 -8 -0.8813 -1.1378
-6 -11 -7 -4.4701 -8.7803
-6 -11 -6 5.3535 -1.5276
-6 -11 -5 15.6001 2.7550
-6 -11 -4 1.0084 4.5210
-6 -11 -3 3.2582 2.2661
-6 -11 -2 -6.0034 6.5791
-6 -11 -1 -14.1315 -0.4352
-6 -10 -34 6.8734 -5.6566
-6 -10 -33 -1.1013 0.6056
-6 -10 -32 1.1062 5.7328
-6 -10 -31 -3.7359 1.0893
-6 -10 -30 5.5037 -9.0989
-6 -10 -29 -3.4687 1.3696
-6 -10 -28 -2.4266 4.6544
-6 -10 -27 -1.4448 -7.0616
-6 -10 -26 1.1242 8.6310
-6 -10 -25 -6.0408 -0.0903
-6 -10 -24 -14.4201 -5.0432
-6 -10 -23 1.3170 -0.5745
-6 -10 -22 8.2283 2.5383
-6 -10 -21 -9.2975 -4.3188
-6 -10 -20 2.9821 1.3821
-6 -10 -19 5.9754 7.2078
-6 -10 -18 -19.7171 -2.5417
-6 -10 -17 -1.7447 3.2362
-6 -10 -16 4.9475 3.2551
-6 -10 -15 1.1392 -5.7539
-6 -10 -14 11.1505 -7.2219
-6 -10 -13 15.4042 6.7544
-6 -10 -12 -17.0274 -4.2951
-6 -10 -11 1.2622 15.7528
-6 -10 -10 0.2930 -7.3751
-6 -10 -9 -0.3795 1.1670
-6 -10 -8 0.7349 -9.2617
-6 -10 -7 -10.5257 -12.2984
-6 -10 -6 -1.1939 -3.7410
-6 -10 -5 11.4408 2.5389
-6 -10 -4 3.9471 -1.3476
-6 -10 -3 1.4798 14.2762
-6 -10 -2 1.4931 2.1141
-6 -10 -1 7.6291 2.4529
-6 -9 -36 -1.2493 3.4668
-6 -9 -35 4.3431 -3.7464
-6 -9 -34 1.4168 1.9894
-6 -9 -33 -2.4825 -3.9670
-6 -9 -32 0.4589 11.2890
-6 -9 -31 2.3447 -0.8653
-6 -9 -30 6.5791 -1.3959
-6 -9 -29 2.6087 -0.5431
-6 -9 -28 6.3308 7.4668
-6 -9 -27 3.1463 -1.6977
-6 -9 -26 -5.6631 9.8905
-6 -9 -25 2.0460 1.6625
-6 -9 -24 -2.1991 -0.8428
-6 -9 -23 7.7538 3.1252
-6 -9 -22 5.9856 3.9124
-6 -9 -21 7.9750 6.3683
-6 -9 -20 3.5824 4.9313
-6 -9 -19 1.2202 -7.7420
-6 -9 -18 -0.4483 4.1199
-6 -9 -17 0.4843 -5.7957
-6 -9 -16 2.0538 -19.1273
-6 -9 -15 -7.7212 2.2833
-6 -9 -14 0.7481 2.2916
-6 -9 -13 5.5452 -3.2832
-6 -9 -12 5.4208 1.1334
-6 -9 -11 -0.9947 8.8014
-6 -9 -10 6.8018 -7.8974
-6 -9 -9 -27.6237 11.0449
-6 -9 -8 1.2740 -0.6211
-6 -9 -7 -1.9606 0.6476
-6 -9 -6 1.6013 2.3228
-6 -9 -5 7.1281 -9.6857
-6 -9 -4 9.3350 -6.3559
-6 -9 -3 -8.0760 -0.1608
-6 -9 -2 0.5871 -12.6782
-6 -9 -1 3.1962 -0.0145
-6 -8 -38 -1.4542 -0.1097
-6 -8 -37 5.4423 -0.3057
-6 -8 -36 -2.8984 -1.8116
-6 -8 -35 -2.0206 -0.9605
-6 -8 -34 0.6082 -2.3323
-6 -8 -33 6.6860 -1.0635
-6 -8 -32 -7.3853 -15.0006
-6 -8 -31 8.9346 -6.8645
-6 -8 -30 -9.2550 1.5107
-6 -8 -29 1.5362 -8.1892
-6 -8 -28 7.8699 4.1235
-6 -8 -27 5.4743 1.2801
-6 -8 -26 -9.6479 -9.7643
-6 -8 -25 13.5571 -10.1711
-6 -8 -24 11.6743 -1.8365
-6 -8 -23 5.5284 1.8370
-6 -8 -22 -5.5963 -15.2257
-6 -8 -21 -2.2336 2.7897
-6 -8 -20 -3.3200 4.7847
-6 -8 -19 -12.5650 3.0767
-6 -8 -18 -1.2461 -3.4391
-6 -8 -17 1.7371 7.0967
-6 -8 -16 -13.7531 -3.4469
-6 -8 -15 -0.1724 -7.0854
-6 -8 -14 7.3557 6.3000
-6 -8 -13 -10.3821 -8.9305
-6 -8 -12 2.5188 -6.0136
-6 -8 -11 11.9191 4.6882
-6 -8 -10 2.2469 9.6508
-6 -8 -9 -8.2658 1.0341
-6 -8 -8 4.1558 15.3139
-6 -8 -7 -3.2835 -19.6204
-6 -8 -6 2.0825 -6.2804
-6 -8 -5 -9.0682 0.7808
-6 -8 -4 -17.4611 11.6600
-6 -8 -3 1.1818 -0.9534
-6 -8 -2 9.0494 -6.9536
-6 -8 -1 -5.4991 -6.3827
-6 -7 -39 1.0425 -5.1101
-6 -7 -38 5.4797 -1.6656
-6 -7 -37 -6.7579 7.7831
-6 -7 -36 -4.7966 -3.2796
-6 -7 -35 -7.1100 4.4248
-6 -7 -34 -8.5534 1.3002
-6 -7 -33 -4.5337 3.0893
-6 -7 -32 0.7597 -5.9920
-6 -7 -31 -9.6985 7.3414
-6 -7 -30 3.4706 -8.1437
-6 -7 -29 -0.2815 5.7163
-6 -7 -28 -13.0487 -6.0969
-6 -7 -27 -5.6128 -1.0148
-6 -7 -26 -5.9894 -18.1892
-6 -7 -25 3.3937 -7.9717
-6 -7 -24 -0.3403 1.1464
-6 -7 -20 11.4973 1.6311
-6 -7 -19 3.3582 5.6239
-6 -7 -18 -1.8695 6.1987
-6 -7 -17 -13.9067 -3.4072
-6 -7 -16 4.8751 10.8493
-6 -7 -15 -5.0364 5.5393
-6 -7 -14 -2.8055 -8.4369
-6 -7 -13 4.4997 -4.4676
-6 -7 -12 -5.4119 5.0074
-6 -7 -11 3.5884 -3.5834
-6 -7 -10 4.3542 0.5974
-6 -7 -9 5.0262 3.1045
-6 -7 -8 -10.3097 4.9886
-6 -7 -7 -5.0035 1.5654
-6 -7 -6 -0.4203 5.6750
-6 -7 -5 16.4250 2.9931
-6 -7 -4 -2.1813 1.0223
-6 -7 -3 0.6444 2.9368
-6 -7 -2 -0.3554 -10.4816
-6 -7 -1 -3.9494 -2.9069
-6 -6 -40 -6.3955 -2.8011
-6 -6 -39 0.4791 7.2518
-6 -6 -38 3.3134 3.1674
-6 -6 -37 2.6881 6.2955
-6 -6 -36 4.5809 11.9779
-6 -6 -35 1.0356 -0.4908
-6 -6 -34 -1.8443 -4.9685
-6 -6 -33 -3.4775 1.3446
-6 -6 -32 2.1900 8.8404
-6 -6 -31 -7.2824 4.1786
-6 -6 -30 10.5293 2.8335
-6 -6 -29 -3.6013 5.0083
-6 -6 -28 -12.0514 7.2031
-6 -6 -27 -18.0156 -7.9589
-6 -6 -26 11.6711 -1.2656
-6 -6 -25 3.1112 3.5565
-6 -6 -24 5.5816 -11.6175
-6 -6 -23 2.3726 -1.1207
-6 -6 -22 7.2754 2.4220
-6 -6 -21 -8.9454 7.1974
-6 -6 -20 3.5432 4.9230
-6 -6 -19 8.9557 -10.9672
-6 -6 -18 2.6137 8.9130
-6 -6 -17 0.1523 -0.4578
-6 -6 -16 1.9689 5.2094
-6 -6 -15 3.9402 -9.2718
-6 -6 -14 -10.1759 0.0084
-6 -6 -13 1.1942 0.6587
-6 -6 -12 9.9561 5.2268
-6 -6 -11 1.1969 1.1938
-6 -6 -10 -3.5634 -4.1474
-6 -6 -9 8.5415 9.6828
-6 -6 -8 6.2951 -9.6624
-6 -6 -7 -0.8644 -6.8947
-6 -6 -6 -5.7754 5.9699
-6 -6 -5 4.1704 -7.7987
-6 -6 -4 3.5077 -16.6255
-6 -6 -3 -4.9467 7.6247
-6 -6 -2 -2.0903 8.6875
-6 -6 -1 -10.5210 -5.4811
-6 -5 -41 0.4301 0.3515
-6 -5 -40 6.2490 -1.7116
-6 -5 -39 5.2450 2.7106
-6 -5 -38 3.5072 -4.1420
-6 -5 -37 -1.6454 -3.4587
-6 -5 -36 0.5603 4.8793
-6 -5 -35 -0.4953 3.9425
-6 -5 -34 1.8365 -1.7152
-6 -5 -33 0.0608 -1.7734
-6 -5 -32 5.1832 -1.6810
-6 -5 -31 10.4021 0.5815
-6 -5 -30 -1.0732 6.0291
-6 -5 -29 -11.2303 4.6686
-6 -5 -28 7.5159 6.3803
-6 -5 -27 5.8787 -6.0518
-6 -5 -26 -10.0656 -4.2039
-6 -5 -25 2.0858 -0.4456
-6 -5 -24 1.0012 -0.3378
-6 -5 -23 0.7059 -6.5615
-6 -5 -22 8.6117 1.5865
-6 -5 -21 6.1011 -1.1026
-6 -5 -20 -4.5204 5.2587
-6 -5 -19 -15.9737 -12.6239
-6 -5 -18 -11.4766 -7.4700
-6 -5 -17 17.2891 4.3857
-6 -5 -16 -9.1424 6.7373
-6 -5 -15 -1.9305 -2.9476
-6 -5 -14 0.9643 -11.1330
-6 -5 -13 4.2394 -0.5769
-6 -5 -12 2.8578 -2.5348
-6 -5 -11 11.5782 -10.9705
-6 -5 -10 -9.0597 1.5616
-6 -5 -9 -19.1420 0.3383
-6 -5 -8 11.9852 -4.6731
-6 -5 -7 -4.6677 -1.7863
-6 -5 -6 -5.6639 4.2153
-6 -5 -5 7.2073 4.6852
-6 -5 -4 -6.4740 -0.5292
-6 -5 -3 0.2226 2.5277
-6 -5 -2 9.8542 -10.2739
-6 -5 -1 -4.1583 -11.7306
-6 -4 -42 0.1746 -2.9809
-6 -4 -41 -0.3336 1.6183
-6 -4 -40 4.0470 0.5995
-6 -4 -39 0.6994 -2.2230
-6 -4 -38 -4.6762 -0.4044
-6 -4 -37 5.8599 2.3313
-6 -4 -36 -3.1258 -5.0983
-6 -4 -35 -3.0970 1.9851
-6 -4 -34 -3.8880 7.0240
-6 -4 -33 3.2518 -5.4398
-6 -4 -32 -0.1227 -7.3166
-6 -4 -31 11.8857 -5.7874
-6 -4 -30 1.6162 3.7076
-6 -4 -29 -14.7752 -0.7670
-6 -4 -28 3.4876 -0.2748
-6 -4 -27 8.2654 -9.3982
-6 -4 -26 -6.0668 4.1471
-6 -4 -25 -9.4418 -0.3030
-6 -4 -24 4.6047 -2.9295
-6 -4 -23 -10.2775 1.4067
-6 -4 -22 -4.2047 3.4348
-6 -4 -21 0.6390 9.4835
-6 -4 -20 -6.3392 9.7909
-6 -4 -19 -1.5546 9.2334
-6 -4 -18 -5.6207 5.3048
-6 -4 -17 7.8134 -3.4752
-6 -4 -16 -9.1249 -21.6618
-6 -4 -15 -6.8519 17.4672
-6 -4 -14 -7.5392 0.8843
-6 -4 -13 -9.6354 -16.1889
-6 -4 -12 0.7085 -6.9248
-6 -4 -11 0.7413 12.1562
-6 -4 -10 -5.7697 0.4632
-6 -4 -9 5.3051 1.0431
-6 -4 -8 -8.3464 1.0353
-6 -4 -7 6.3386 -16.5014
-6 -4 -6 10.2151 4.6335
-6 -4 -5 3.1946 -0.8388
-6 -4 -4 -18.1063 5.8178
-6 -4 -3 -19.2528 10.1895
-6 -4 -2 5.0624 -15.7299
-6 -4 -1 1.2863 -9.1596
-6 -3 -42 -1.0399 -7.9596
-6 -3 -41 3.0628 -0.4263
-6 -3 -40 -2.8775 6.1985
-6 -3 -39 -3.5281 -2.7307
-6 -3 -38 -3.4599 3.0205
-6 -3 -37 2.9919 9.3895
-6 -3 -36 10.1869 -8.5892
-6 -3 -35 -5.5279 4.1533
-6 -3 -34 -2.1384 -6.3072
-6 -3 -33 -5.4851 1.3364
-6 -3 -32 -6.5958 -10.0923
-6 -3 -31 -8.2996 13.0396
-6 -3 -30 0.2607 -4.1706
-6 -3 -29 14.3170 2.5987
-6 -3 -28 -10.6344 1.7654
-6 -3 -27 -4.8506 0.3113
-6 -3 -26 3.1458 7.9162
-6 -3 -25 15.9237 12.5199
-6 -3 -24 2.5875 16.2594
-6 -3 -23 11.4843 -0.0754
-6 -3 -22 -2.1244 8.3214
-6 -3 -21 4.0488 -9.3094
-6 -3 -20 5.3554 -2.0003
-6 -3 -19 9.0738 9.3061
-6 -3 -18 -5.3631 8.4656
-6 -3 -17 -10.7120 11.7800
-6 -3 -16 -3.1833 -12.5203
-6 -3 -15 -12.3310 16.2235
-6 -3 -14 8.7881 3.1131
-6 -3 -13 -9.7524 7.8176
-6 -3 -12 -4.7553 -10.4334
-6 -3 -11 -6.1923 -4.5741
-6 -3 -10 6.5268 10.0863
-6 -3 -9 -2.3841 2.6874
-6 -3 -8 -6.4998 -11.0440
-6 -3 -7 -1.8271 5.4407
-6 -3 -6 7.1620 -0.6539
-6 -3 -5 2.5517 21.0133
-6 -3 -4 -19.3996 10.3164
-6 -3 -3 -4.4980 2.9595
-6 -3 -2 -26.1789 -0.1256
-6 -3 -1 -23.4236 -1.2069
-6 -2 -42 7.7822 5.2326
-6 -2 -41 -1.1412 2.5487
-6 -2 -40 1.8757 2.4049
-6 -2 -39 2.7505 2.8755
-6 -2 -38 -2.0498 -7.6699
-6 -2 -37 -3.0117 -0.9057
-6 -2 -36 -3.8578 1.8582
-6 -2 -35 -2.3834 2.3637
-6 -2 -34 5.1711 9.6952
-6 -2 -33 -5.3803 1.6358
-6 -2 -32 11.7509 7.2405
-6 -2 -31 -17.7820 -6.8175
-6 -2 -30 12.9939 -2.1029
-6 -2 -29 7.1253 -8.1267
-6 -2 -28 17.1193 -7.9252
-6 -2 -27 -0.2479 6.7309
-6 -2 -26 18.5798 -16.9719
-6 -2 -25 12.0697 -11.3930
-6 -2 -24 2.7865 -1.5099
-6 -2 -23 -5.0872 12.0727
-6 -2 -22 -11.6536 -2.6506
-6 -2 -21 7.7957 -0.4755
-6 -2 -20 4.9477 -15.1509
-6 -2 -19 13.5291 12.9994
-6 -2 -18 1.1931 -1.7903
-6 -2 -17 -11.1358 19.3227
-6 -2 -16 10.6149 19.4788
-6 -2 -15 -7.6389 -6.2101
-6 -2 -14 17.7254 -11.0167
-6 -2 -13 -16.0484 8.5547
-6 -2 -12 11.5813 19.9148
-6 -2 -11 -9.6003 -14.9180
-6 -2 -10 15.8931 3.1029
-6 -2 -9 4.8780 -14.9332
-6 -2 -8 -0.9853 4.1545
-6 -2 -7 10.1477 19.8759
-6 -2 -6 16.1022 21.3139
-6 -2 -5 -5.8189 2.1288
-6 -2 -4 11.7980 21.0053
-6 -2 -3 4.5507 4.2148
-6 -2 -2 -7.7544 -30.1623
-6 -2 -1 -24.3451 -7.9117
-6 -1 -43 5.9236 -7.6485
-6 -1 -42 7.1241 5.4591
-6 -1 -41 1.4462 -0.8951
-6 -1 -40 -8.6574 1.6941
-6 -1 -39 2.0871 3.1722
-6 -1 -38 0.8152 4.1637
-6 -1 -37 0.2537 -3.3276
-6 -1 -36 1.9260 2.7847
-6 -1 -35 2.2012 1.0878
-6 -1 -34 6.3976 -8.3481
-6 -1 -33 -1.7875 4.5430
-6 -1 -32 -11.7388 5.2443
-6 -1 -31 -0.1604 -20.5472
-6 -1 -30 -13.4010 -4.5740
-6 -1 -29 -9.6479 -24.2482
-6 -1 -28 -9.7625 -1.1923
-6 -1 -27 5.1964 -8.6636
-6 -1 -26 3.8625 7.1604
-6 -1 -25 -6.7189 -10.8940
-6 -1 -24 6.3476 8.2049
-6 -1 -23 -3.2085 -0.5314
-6 -1 -22 0.8260 1.2434
-6 -1 -21 4.3568 -5.7484
-6 -1 -20 -1.7157 -3.6769
-6 -1 -19 -2.4598 9.2631
-6 -1 -18 37.0915 -7.6896
-6 -1 -17 -8.3476 -2.8001
-6 -1 -16 0.8791 7.0409
-6 -1 -15 1.1134 -11.5565
-6 -1 -14 -6.9432 1.4011
-6 -1 -13 -6.3537 -25.1464
-6 -1 -12 18.3722 18.6774
-6 -1 -11 -8.7841 -19.4535
-6 -1 -10 -18.6330 0.8274
-6 -1 -9 34.5585 -35.9636
-6 -1 -8 18.1780 7.6720
-6 -1 -7 29.9629 4.0835
-6 -1 -6 -9.3027 -6.1673
-6 -1 -5 -13.5109 -17.3806
-6 -1 -4 -23.5519 3.4031
-6 -1 -3 -5.8252 10.6033
-6 -1 -2 -3.2386 8.3897
-6 -1 -1 33.0802 -14.6573
-5 -17 -8 2.3663 -5.8637
-5 -17 -7 -7.1654 2.5136
-5 -17 -6 5.2159 -5.2154
-5 -17 -5 -3.4752 1.6624
-5 -17 -4 -1.9739 3.0080
-5 -17 -3 1.7663 -2.4010
-5 -17 -2 4.1951 -0.2358
-5 -17 -1 10.6141 10.4920
-5 -16 -17 -1.0464 -1.8684
-5 -16 -16 1.7152 2.2843
-5 -16 -15 -4.3671 -2.8163
-5 -16 -14 4.9498 5.0976
-5 -16 -13 -9.8978 -1.6045
-5 -16 -12 2.6846 2.0598
-5 -16 -11 -3.6987 -10.6245
-5 -16 -10 -0.7648 -6.0192
-5 -16 -9 -1.6733 -1.0255
-5 -16 -8 10.6087 4.3169
-5 -16 -7 -0.3570 -2.7886
-5 -16 -6 10.4481 13.3559
-5 -16 -5 1.5309 -7.6786
-5 -16 -4 3.0898 -2.8883
-5 -16 -3 4.3886 -0.9165
-5 -16 -2 -8.7944 2.1228
-5 -16 -1 -3.0856 -0.9671
-5 -15 -22 -1.3647 6.1603
-5 -15 -21 -0.7084 2.1877
-5 -15 -20 -5.6983 5.5159
-5 -15 -19 2.7904 5.3314
-5 -15 -18 -7.0733 -4.5587
-5 -15 -17 6.0043 -3.5281
-5 -15 -16 -0.9529 4.4532
-5 -15 -15 -4.4853 -2.9653
-5 -15 -14 -2.4376 -2.6879
-5 -15 -13 0.1660 1.5107
-5 -15 -12 -14.4968 8.2595
-5 -15 -11 8.6666 -18.1351
-5 -15 -10 -3.9395 -3.8862
-5 -15 -9 -3.6094 -5.3906
-5 -15 -8 11.9909 -7.0272
-5 -15 -7 1.6455 -13.7514
-5 -15 -6 -6.7469 9.1293
-5 -15 -5 9.0330 -11.6958
-5 -15 -4 -2.7011 4.2902
-5 -15 -3 18.7736 5.1476
-5 -15 -2 7.6319 -5.7588
-5 -15 -1 5.4657 -5.8264
-5 -14 -26 -0.3620 2.5944
-5 -14 -25 3.5885 12.6411
-5 -14 -24 8.9835 3.6308
-5 -14 -23 -0.2505 6.4561
-5 -14 -22 14.4163 3.3548
-5 -14 -21 3.8748 0.3871
-5 -14 -20 -8.3585 3.4495
-5 -14 -19 6.4414 -0.8147
-5 -14 -18 1.4645 0.6007
-5 -14 -17 -1.9160 7.4479
-5 -14 -16 4.5004 -3.8663
-5 -14 -15 -1.8315 3.6401
-5 -14 -14 -2.8718 5.4971
-5 -14 -13 -1.3897 -11.6319
-5 -14 -12 -5.8390 -1.9635
-5 -14 -11 -1.9616 13.4230
-5 -14 -10 -16.7619 -5.8331
-5 -14 -9 3.9116 3.6152
-5 -14 -8 1.8382 -5.4059
-5 -14 -7 -1.4999 -7.3780
-5 -14 -6 -9.4024 -1.0396
-5 -14 -5 14.0212 -9.3985
-5 -14 -4 -12.9013 -4.9360
-5 -14 -3 1.6116 -0.7658
-5 -14 -2 -6.7339 -8.6888
-5 -14 -1 -2.7684 6.6020
-5 -13 -29 0.0651 1.9163
-5 -13 -28 17.6093 -0.7170
-5 -13 -27 -0.1560 -9.4518
-5 -13 -26 18.8712 -12.8483
-5 -13 -25 -8.3361 -13.4589
-5 -13 -24 11.6270 -4.4375
-5 -13 -23 -3.9342 1.2664
-5 -13 -22 5.7369 2.0793
-5 -13 -21 -11.5955 -10.0415
-5 -13 -20 12.7515 -1.7231
-5 -13 -19 0.6560 -13.2922
-5 -13 -18 -2.9827 -8.2541
-5 -13 -17 -1.1642 11.1370
-5 -13 -16 -3.4018 -3.2843
-5 -13 -15 -8.1686 -4.5313
-5 -13 -14 -4.5843 9.3908
-5 -13 -13 9.3439 -8.5055
-5 -13 -12 5.4273 -0.1753
-5 -13 -11 6.4547 12.2088
-5 -13 -10 -0.8972 -7.5377
-5 -13 -9 -5.0843 1.3219
-5 -13 -8 -1.2397 -2.3569
-5 -13 -7 -6.5644 4.4294
-5 -13 -6 9.4683 -1.6719
-5 -13 -5 1.0407 7.8956
-5 -13 -4 -5.5395 -5.6434
-5 -13 -3 -3.3288 7.7391
-5 -13 -2 -15.9939 -2.0654
-5 -13 -1 -4.8299 10.4668
-5 -12 -31 -2.4401 -4.2209
-5 -12 -30 -4.7731 -11.4201
-5 -12 -29 -8.1773 -6.2040
-5 -12 -28 -9.8665 4.9586
-5 -12 -27 -9.6026 -5.4724
-5 -12 -26 -1.1850 3.0808
-5 -12 -25 -2.8071 -6.5865
-5 -12 -24 0.4557 17.0956
-5 -12 -23 1.9944 -12.7613
-5 -12 -22 -14.3710 5.5966
-5 -12 -21 -18.8055 -6.7427
-5 -12 -20 -5.7081 9.4084
-5 -12 -19 5.3763 -8.0983
-5 -12 -18 -5.3079 20.8304
-5 -12 -17 2.6876 -1.8436
-5 -12 -16 2.9170 5.4693
-5 -12 -15 -15.1683 -3.5791
-5 -12 -14 -2.0434 -13.7682
-5 -12 -13 11.5305 -1.4507
-5 -12 -12 -9.9170 -3.4350
-5 -12 -11 4.0310 -2.9932
-5 -12 -10 9.5587 -0.2223
-5 -12 -9 -8.2921 -2.4682
-5 -12 -8 3.0387 -6.2456
-5 -12 -7 1.2414 2.1282
-5 -12 -6 6.1281 5.8479
-5 -12 -5 -6.0662 -3.8871
-5 -12 -4 6.4886 16.3854
-5 -12 -3 2.6177 4.7843
-5 -12 -2 -0.9387 -3.8786
-5 -12 -1 -3.2505 -9.7795
-5 -11 -34 1.3391 -3.5725
-5 -11 -33 -4.2219 5.1518
-5 -11 -32 -2.8602 3.3796
-5 -11 -31 2.4570 2.3284
-5 -11 -30 3.4915 9.9650
-5 -11 -29 4.1151 2.2543
-5 -11 -28 3.4470 -8.1479
-5 -11 -27 6.2575 1.0955
-5 -11 -26 -6.9720 2.4709
-5 -11 -25 2.8447 4.7185
-5 -11 -24 1.0585 8.9315
-5 -11 -23 1.6823 7.1685
-5 -11 -22 -8.6420 7.0580
-5 -11 -21 17.1888 4.4252
-5 -11 -20 0.3854 -2.3703
-5 -11 -19 3.5743 0.9672
-5 -11 -18 -0.9726 3.8743
-5 -11 -17 9.1803 3.0148
-5 -11 -16 -21.2512 5.0557
-5 -11 -15 7.3400 -1.1944
-5 -11 -14 -3.6237 2.9086
-5 -11 -13 -3.8799 -2.1584
-5 -11 -12 1.3805 -7.0323
-5 -11 -11 -8.9930 0.3222
-5 -11 -10 -4.5254 -4.4475
-5 -11 -9 11.8049 4.5619
-5 -11 -8 4.0606 2.5361
-5 -11 -7 7.0181 -8.3895
-5 -11 -6 2.4951 3.3188
-5 -11 -5 -1.6861 -7.8464
-5 -11 -4 -5.9275 2.9884
-5 -11 -3 -1.1362 2.5712
-5 -11 -2 -16.7138 -5.9544
-5 -11 -1 7.4753 -8.5831
-5 -10 -36 -1.5777 -2.5195
-5 -10 -35 -0.6422 2.5130
-5 -10 -34 4.8270 0.7150
-5 -10 -33 1.8598 -0.1617
-5 -10 -32 5.2103 -10.4194
-5 -10 -31 -3.0059 -12.2291
-5 -10 -30 -6.2738 1.8081
-5 -10 -29 -5.1068 4.5185
-5 -10 -28 3.7162 1.4214
-5 -10 -27 4.4413 -0.0763
-5 -10 -26 6.2347 3.6997
-5 -10 -25 2.0145 3.4591
-5 -10 -24 7.6951 -15.1568
-5 -10 -23 -7.5299 -0.9326
-5 -10 -22 -1.4809 5.2352
-5 -10 -21 11.4335 -3.4508
-5 -10 -20 5.0443 -6.2252
-5 -10 -19 -0.7197 4.2604
-5 -10 -18 7.2506 -5.1590
-5 -10 -17 0.7501 -2.2430
-5 -10 -16 -2.9900 -0.0603
-5 -10 -15 12.6555 3.9519
-5 -10 -14 -5.1119 -12.8654
-5 -10 -13 -4.7958 12.8409
-5 -10 -12 -2.6422 -1.2096
-5 -10 -11 4.5823 -6.8901
-5 -10 -10 0.3191 -11.7014
-5 -10 -9 -1.5007 -12.4998
-5 -10 -8 7.2978 -3.2043
-5 -10 -7 -10.6772 10.0187
-5 -10 -6 -7.2558 -8.2236
-5 -10 -5 17.4505 15.2716
-5 -10 -4 -7.0184 11.3676
-5 -10 -3 -11.4342 -7.2164
-5 -10 -2 1.7316 -8.6859
-5 -10 -1 -2.3005 3.1431
-5 -9 -37 8.3497 -3.3647
-5 -9 -36 1.5052 -6.4364
-5 -9 -35 -4.2972 -4.3666
-5 -9 -34 -6.6180 0.8864
-5 -9 -33 -8.2634 -3.8107
-5 -9 -32 7.1610 7.0228
-5 -9 -31 4.6987 8.0724
-5 -9 -30 2.8166 -3.2390
-5 -9 -29 9.0151 -12.0702
-5 -9 -28 3.7465 7.4348
-5 -9 -27 -6.7803 -4.1202
-5 -9 -26 -13.9679 -0.7644
-5 -9 -25 5.3130 3.1113
-5 -9 -24 -0.3762 5.1121
-5 -9 -23 -2.9356 -11.2292
-5 -9 -22 8.2266 -0.3550
-5 -9 -21 -13.3122 -10.9997
-5 -9 -20 -15.0615 -12.0689
-5 -9 -19 2.4329 -1.6493
-5 -9 -18 -1.3336 3.4056
-5 -9 -17 -11.5113 -7.0020
-5 -9 -16 3.3419 -5.0795
-5 -9 -15 -0.2493 -0.1488
-5 -9 -14 -4.8533 -4.6244
-5 -9 -13 -10.4812 6.1763
-5 -9 -12 -2.4347 -1.7037
-5 -9 -11 -21.1707 4.7604
-5 -9 -10 -2.9998 -11.4392
-5 -9 -9 -7.5404 0.9056
-5 -9 -8 -0.7854 8.4165
-5 -9 -7 11.6012 -6.9074
-5 -9 -6 9.8371 2.2031
-5 -9 -5 -7.2495 2.5992
-5 -9 -4 5.4566 -2.3464
-5 -9 -3 -12.6775 11.0127
-5 -9 -2 -10.9830 6.3849
-5 -9 -1 0.4144 -0.4964
-5 -8 -39 0.9009 -2.3104
-5 -8 -38 -8.6613 -4.5483
-5 -8 -37 -7.3590 -4.3625
-5 -8 -36 -1.2693 1.1030
-5 -8 -35 -2.4129 5.0611
-5 -8 -34 0.3922 -6.0456
-5 -8 -33 10.2367 -11.1773
-5 -8 -32 -3.3155 -1.4866
-5 -8 -31 -7.5791 -2.0872
-5 -8 -30 0.8240 -3.4802
-5 -8 -29 0.4443 1.1245
-5 -8 -28 0.4191 10.3743
-5 -8 -27 14.8218 5.7090
-5 -8 -26 -6.5869 -3.2156
-5 -8 -25 -2.0152 2.5851
-5 -8 -24 -9.0230 -4.8726
-5 -8 -23 -3.8448 20.6444
-5 -8 -22 -14.2356 6.4204
-5 -8 -21 -2.2335 4.0187
-5 -8 -20 -5.4377 10.8296
-5 -8 -19 0.2007 -4.9366
-5 -8 -18 -1.1888 3.7235
-5 -8 -17 -0.2835 7.4624
-5 -8 -16 -4.9050 6.6179
-5 -8 -15 -6.2502 -3.0627
-5 -8 -14 3.8301 24.5334
-5 -8 -13 12.5890 12.7641
-5 -8 -12 -0.4874 8.2112
-5 -8 -11 -15.0679 1.9230
-5 -8 -10 6.0552 16.1213
-5 -8 -9 -5.1762 -8.5538
-5 -8 -8 3.2571 -3.8024
-5 -8 -7 8.8778 -10.2513
-5 -8 -6 -0.2126 6.3180
-5 -8 -5 -0.3455 12.2114
-5 -8 -4 1.1525 -2.1031
-5 -8 -3 14.5048 -3.0774
-5 -8 -2 7.9062 4.5309
-5 -8 -1 0.1670 -6.3814
-5 -7 -40 -5.1143 6.2613
-5 -7 -39 0.8746 7.9847
-5 -7 -38 -5.5874 -5.1388
-5 -7 -37 -6.0673 7.2387
-5 -7 -36 -3.4864 -0.3765
-5 -7 -35 -4.8509 -6.4395
-5 -7 -34 1.8642 -0.4655
-5 -7 -33 3.8221 10.2713
-5 -7 -32 -3.7320 -2.9670
-5 -7 -31 -1.6421 -3.2336
-5 -7 -30 6.2635 -0.4551
-5 -7 -29 1.7736 -6.0891
-5 -7 -28 0.5788 -8.1214
-5 -7 -27 7.9003 -1.2795
-5 -7 -26 3.8869 9.6690
-5 -7 -25 7.4772 15.4650
-5 -7 -24 14.5816 -4.0878
-5 -7 -23 -3.5134 6.1343
-5 -7 -22 4.8762 -5.6616
-5 -7 -21 -4.9193 0.3185
-5 -7 -20 19.2491 2.5171
-5 -7 -19 2.2294 6.4556
-5 -7 -18 -9.0226 -8.7970
-5 -7 -17 21.6270 -1.4589
-5 -7 -16 13.5921 3.4550
-5 -7 -15 15.7940 -4.5928
-5 -7 -14 -0.5719 -2.6054
-5 -7 -13 21.7059 2.7438
-5 -7 -12 -3.6554 -3.1415
-5 -7 -11 0.2553 3.3346
-5 -7 -10 -5.8116 7.7158
-5 -7 -9 7.1680 -10.2427
-5 -7 -8 -5.0945 -10.7097
-5 -7 -7 5.8969 -1.6604
-5 -7 -6 -6.7113 5.9270
-5 -7 -5 5.1978 -4.0203
-5 -7 -4 -3.4528 -5.4548
-5 -7 -3 -9.1799 -4.9615
-5 -7 -2 5.4640 -20.8067
-5 -7 -1 -3.2186 6.8684
-5 -6 -41 4.0276 3.7730
-5 -6 -40 -0.1100 1.2117
-5 -6 -39 -3.8737 6.6553
-5 -6 -38 -0.0363 1.7227
-5 -6 -37 -4.5465 5.7069
-5 -6 -36 5.1110 -4.7853
-5 -6 -35 4.4082 -9.3366
-5 -6 -34 4.5744 -0.1748
-5 -6 -33 -10.6082 7.9823
-5 -6 -32 -1.2347 -1.5836
-5 -6 -31 -6.8900 -2.9513
-5 -6 -30 -4.5694 0.8143
-5 -6 -29 1.4908 -4.0331
-5 -6 -28 3.7071 -7.6937
-5 -6 -27 -4.1766 -11.0066
-5 -6 -26 3.0407 -8.2088
-5 -6 -25 9.1582 6.4459
-5 -6 -24 -9.6505 0.9037
-5 -6 -23 -17.0383 -5.3293
-5 -6 -22 11.7994 -5.3457
-5 -6 -21 2.8150 -12.4864
-5 -6 -20 -4.4383 0.7178
-5 -6 -19 -4.7351 -12.1730
-5 -6 -18 -0.9974 -4.0005
-5 -6 -17 -9.7406 -15.9711
-5 -6 -16 3.5241 -19.3213
-5 -6 -15 13.8163 10.3697
-5 -6 -14 -3.1172 -5.0281
-5 -6 -13 -16.8783 9.7559
-5 -6 -12 1.4861 -11.1003
-5 -6 -11 7.1967 13.1283
-5 -6 -10 -3.7453 -7.4191
-5 -6 -9 -4.2303 -5.1108
-5 -6 -8 -3.6763 4.5623
-5 -6 -7 -8.3080 9.8962
-5 -6 -6 9.2553 -6.6967
-5 -6 -5 3.5633 0.0922
-5 -6 -4 -17.9709 -3.6481
-5 -6 -3 -7.6749 11.0703
-5 -6 -2 10.9798 -0.4012
-5 -6 -1 -2.5946 -3.9799
-5 -5 -42 -1.5795 3.7542
-5 -5 -41 -0.8037 6.2902
-5 -5 -40 7.2762 -2.9989
-5 -5 -39 -3.4049 3.4805
-5 -5 -38 3.3015 4.4036
-5 -5 -37 -5.5906 -9.5276
-5 -5 -36 -3.7824 -8.1707
-5 -5 -35 3.5038 8.1123
-5 -5 -34 0.8093 9.5314
-5 -5 -33 -1.1464 2.2370
-5 -5 -32 4.0988 8.0534
-5 -5 -31 -2.3130 -4.2820
-5 -5 -30 -6.7424 -2.4129
-5 -5 -29 -4.2257 1.1857
-5 -5 -28 -8.6391 9.5657
-5 -5 -27 -5.7177 5.7440
-5 -5 -26 1.5248 1.3126
-5 -5 -25 4.7552 -9.0643
-5 -5 -24 -0.0708 0.7896
-5 -5 -23 -17.8295 8.0026
-5 -5 -22 0.3881 7.5448
-5 -5 -21 -0.1245 -6.0132
-5 -5 -20 -16.5363 2.0349
-5 -5 -19 -9.1292 0.1662
-5 -5 -18 -0.1508 3.9386
-5 -5 -17 5.9578 -2.8133
-5 -5 -16 -2.2009 -3.1943
-5 -5 -15 2.7929 7.2467
-5 -5 -14 17.9889 6.0976
-5 -5 -13 -6.8872 1.8668
-5 -5 -12 -2.4903 6.1239
-5 -5 -11 -13.8963 -9.7412
-5 -5 -10 21.4773 -3.2446
-5 -5 -9 -7.7882 13.7286
-5 -5 -8 -5.7004 10.9604
-5 -5 -7 2.3124 -7.0011
-5 -5 -6 -7.6655 -2.1226
-5 -5 -5 7.9631 0.2641
-5 -5 -4 5.6332 6.9672
-5 -5 -3 -7.8263 -0.9853
-5 -5 -2 13.1671 11.6442
-5 -5 -1 1.9409 -5.2556
-5 -4 -42 6.1470 -2.4379
-5 -4 -41 -2.7623 0.7971
-5 -4 -40 1.7900 -3.4164
-5 -4 -39 -2.8719 -1.9376
-5 -4 -38 -1.3810 7.6048
-5 -4 -37 4.1191 -3.7937
-5 -4 -36 2.9336 5.3207
-5 -4 -35 1.4738 2.3713
-5 -4 -34 10.3256 -4.3381
-5 -4 -33 1.2083 -1.5959
-5 -4 -32 -2.3345 0.4883
-5 -4 -31 -0.7246 12.5632
-5 -4 -30 10.4714 7.2345
-5 -4 -29 3.4698 5.9270
-5 -4 -28 -1.6173 -1.7696
-5 -4 -27 0.2717 2.8804
-5 -4 -26 -9.4904 -4.7540
-5 -4 -25 -13.1122 -0.5449
-5 -4 -24 9.6012 -1.0072
-5 -4 -23 27.9012 5.4792
-5 -4 -22 -8.1206 21.4763
-5 -4 -21 -14.1438 -3.1836
-5 -4 -20 -6.8525 -0.9456
-5 -4 -19 16.3740 -3.6452
-5 -4 -18 3.7162 -9.6646
-5 -4 -17 13.2980 -0.1016
-5 -4 -16 3.9334 -3.7362
-5 -4 -15 -13.7481 -2.8892
-5 -4 -14 2.8959 4.4085
-5 -4 -13 12.1879 -1.5792
-5 -4 -12 1.8620 7.1861
-5 -4 -11 3.4490 -1.4264
-5 -4 -10 4.5495 1.8959
-5 -4 -9 0.3294 -3.6216
-5 -4 -8 1.4185 24.6672
-5 -4 -7 12.5172 -17.7787
-5 -4 -6 -14.5303 -6.2902
-5 -4 -5 -7.5083 15.4331
-5 -4 -4 24.2751 -17.5621
-5 -4 -3 6.3437 -1.5618
-5 -4 -2 -33.7400 1.6443
-5 -4 -1 5.5640 0.5026
-5 -3 -43 -6.8668 1.2471
-5 -3 -42 3.6684 -2.5101
-5 -3 -41 -2.2565 -2.9095
-5 -3 -40 1.8798 4.2229
-5 -3 -39 4.5903 -5.7511
-5 -3 -38 4.3825 -9.5825
-5 -3 -37 5.5837 2.6159
-5 -3 -36 1.4375 0.7021
-5 -3 -35 0.6391 -2.9873
-5 -3 -34 -4.0560 -6.2776
-5 -3 -33 16.8477 -7.9374
-5 -3 -32 9.7113 1.3340
-5 -3 -31 -1.4213 -0.7481
-5 -3 -30 5.9897 10.4226
-5 -3 -29 -11.2188 -2.7089
-5 -3 -28 1.3248 13.6750
-5 -3 -27 -3.5305 1.7107
-5 -3 -26 6.8220 -2.1461
-5 -3 -25 -6.5954 -8.7905
-5 -3 -24 11.7953 -1.3180
-5 -3 -23 10.5054 -6.9889
-5 -3 -22 2.8644 -2.7804
-5 -3 -21 -6.3122 8.5630
-5 -3 -20 -12.5169 -10.3587
-5 -3 -19 15.6104 -14.9791
-5 -3 -18 -1.8430 -26.0451
-5 -3 -17 -7.6125 23.5488
-5 -3 -16 9.1690 7.9785
-5 -3 -15 -4.0893 -8.8464
-5 -3 -14 3.4363 -5.2342
-5 -3 -13 -1.8899 -21.6649
-5 -3 -12 3.0054 -12.3812
-5 -3 -11 15.1459 21.0779
-5 -3 -10 1.2405 15.4541
-5 -3 -9 -11.7003 -22.4716
-5 -3 -8 3.8690 -7.6586
-5 -3 -7 15.4941 1.2029
-5 -3 -6 -25.1692 -5.0622
-5 -3 -5 5.1085 12.4104
-5 -3 -4 1.3171 1.9788
-5 -3 -3 14.7394 -8.2763
-5 -3 -2 47.2087 -0.9959
-5 -3 -1 9.4485 -12.5916
-5 -2 -43 -1.7891 -7.9722
-5 -2 -42 -3.1179 7.3780
-5 -2 -41 -3.6686 -17.0817
-5 -2 -40 -5.1562 3.3532
-5 -2 -39 0.7704 -7.8752
-5 -2 -38 -0.4335 -11.0594
-5 -2 -37 -2.6383 -3.8784
-5 -2 -36 1.5036 0.7000
-5 -2 -35 -6.3781 -11.0542
-5 -2 -34 -5.3665 -7.3270
-5 -2 -33 -4.9835 5.0277
-5 -2 -32 15.7011 -4.5091
-5 -2 -31 19.7803 12.3394
-5 -2 -30 -3.0287 -1.3837
-5 -2 -29 4.4911 -5.8917
-5 -2 -28 -8.5121 1.3825
-5 -2 -27 -2.1499 -11.3233
-5 -2 -26 -10.1776 3.3341
-5 -2 -25 13.4697 -13.2164
-5 -2 -24 -15.4384 6.0339
-5 -2 -23 -18.1294 -9.7680
-5 -2 -22 -11.8737 -7.5591
-5 -2 -21 5.8336 -10.9990
-5 -2 -20 -2.6081 2.6202
-5 -2 -19 -2.3724 6.1357
-5 -2 -18 1.3788 -6.4122
-5 -2 -17 -14.0305 8.6243
-5 -2 -16 16.6620 -2.5333
-5 -2 -15 -18.0027 -1.1147
-5 -2 -14 -14.6138 3.9108
-5 -2 -13 13.1725 -23.0865
-5 -2 -12 10.7383 7.0876
-5 -2 -11 2.9335 -6.5059
-5 -2 -10 -10.3236 7.6523
-5 -2 -9 -14.7287 5.6518
-5 -2 -8 -16.8790 -5.4808
-5 -2 -7 10.3220 -10.6174
-5 -2 -6 8.6274 7.3089
-5 -2 -5 19.0664 -18.6213
-5 -2 -4 -23.6397 -62.5417
-5 -2 -3 -43.9034 -12.7071
-5 -2 -2 6.8924 -8.5685
-5 -2 -1 18.0545 13.7145
-5 -1 -44 5.7571 3.3346
-5 -1 -43 -7.4660 3.1479
-5 -1 -42 -11.9982 2.3072
-5 -1 -41 2.3794 2.2814
-5 -1 -40 -21.3036 -5.1270
-5 -1 -39 2.3351 0.7630
-5 -1 -38 -10.4285 2.6104
-5 -1 -37 -0.7871 2.6020
-5 -1 -36 -2.8337 0.1550
-5 -1 -35 9.8259 -0.2468
-5 -1 -34 0.7302 -6.0957
-5 -1 -33 0.2774 -12.0954
-5 -1 -32 -5.1270 -4.9284
-5 -1 -31 -7.7574 -13.3501
-5 -1 -30 -0.2264 6.4238
-5 -1 -29 -13.1986 24.0918
-5 -1 -28 4.1561 -4.4508
-5 -1 -27 -7.1372 -3.7797
-5 -1 -26 -9.8724 5.0241
-5 -1 -25 4.5677 21.7900
-5 -1 -24 -16.9647 8.2155
-5 -1 -23 -9.5750 16.4464
-5 -1 -22 -15.8336 -13.9084
-5 -1 -21 17.4780 -10.8580
-5 -1 -20 16.0772 -9.1930
-5 -1 -19 1.6864 22.7191
-5 -1 -18 -10.5945 15.7498
-5 -1 -17 4.4105 -6.5963
-5 -1 -16 5.2067 -10.0571
-5 -1 -15 -18.6855 -14.7591
-5 -1 -14 -1.2617 5.6318
-5 -1 -13 -1.5309 0.7277
-5 -1 -12 1.6751 19.6059
-5 -1 -11 21.9748 8.9757
-5 -1 -10 -31.4162 -10.2036
-5 -1 -9 13.1979 15.6152
-5 -1 -8 -14.6800 1.0067
-5 -1 -7 -39.8655 -15.0094
-5 -1 -6 -35.6365 3.3301
-5 -1 -5 -4.0329 25.9691
-5 -1 -4 -12.9255 -8.3713
-5 -1 -3 10.0652 17.6701
-5 -1 -2 24.5160 -22.1649
-5 -1 -1 -12.6364 -51.8420
-4 -17 -11 4.5964 -0.6183
-4 -17 -10 2.0549 0.9547
-4 -17 -9 -0.8300 2.7867
-4 -17 -8 -4.1232 0.8774
-4 -17 -7 -10.6899 3.8783
-4 -17 -6 -3.0632 9.4858
-4 -17 -5 3.5822 -1.8770
-4 -17 -4 2.2310 5.9777
-4 -17 -3 12.7975 -2.8925
-4 -17 -2 -0.8260 -7.3217
-4 -17 -1 2.4322 -2.4076
-4 -16 -18 2.6181 -8.2018
-4 -16 -17 7.3804 2.2797
-4 -16 -16 3.4790 -5.2716
-4 -16 -15 0.9923 -5.8966
-4 -16 -14 -0.0086 -0.8688
-4 -16 -13 -3.4439 -15.3579
-4 -16 -12 0.1450 0.2672
-4 -16 -11 6.8142 7.7596
-4 -16 -10 3.1521 10.6602
-4 -16 -9 -2.9746 1.5155
-4 -16 -8 5.6343 8.0434
-4 -16 -7 1.4405 4.1269
-4 -16 -6 -0.4441 0.9434
-4 -16 -5 -3.5561 -16.8935
-4 -16 -4 -10.3562 -1.0706
-4 -16 -3 -2.5539 14.5177
-4 -16 -2 -1.3945 -1.6225
-4 -16 -1 4.8467 -4.5758
-4 -15 -23 0.4088 -7.8824
-4 -15 -22 -0.1461 5.2369
-4 -15 -21 -11.0031 0.8277
-4 -15 -20 -10.1477 -4.0474
-4 -15 -19 -6.2156 -10.3345
-4 -15 -18 -8.8190 2.5119
-4 -15 -17 -2.6778 -15.0411
-4 -15 -16 -3.0670 3.7450
-4 -15 -15 -12.3471 10.3908
-4 -15 -14 -3.4128 1.8866
-4 -15 -13 1.1061 -10.3394
-4 -15 -12 -1.1755 0.6844
-4 -15 -11 8.5695 1.2899
-4 -15 -10 0.2476 -1.8684
-4 -15 -9 -0.4247 -1.5584
-4 -15 -8 -2.9737 7.8043
-4 -15 -7 -2.6215 -6.8545
-4 -15 -6 -5.6050 7.3183
-4 -15 -5 12.4776 9.0804
-4 -15 -4 -15.5070 -4.5986
-4 -15 -3 5.6209 -2.8253
-4 -15 -2 -4.2580 5.9929
-4 -15 -1 -17.9267 5.8380
-4 -14 -27 -7.3268 11.5567
-4 -14 -26 1.9350 14.4690
-4 -14 -25 -12.6133 -3.8913
-4 -14 -24 12.4718 9.6839
-4 -14 -23 -6.1740 3.4052
-4 -14 -22 -5.3879 13.4293
-4 -14 -21 1.9441 14.5865
-4 -14 -20 -6.4528 8.5604
-4 -14 -19 -6.1668 -3.7853
-4 -14 -18 5.6342 10.4821
-4 -14 -17 5.7503 3.3647
-4 -14 -16 -5.4537 6.3342
-4 -14 -15 8.4919 11.5421
-4 -14 -14 -8.4709 6.4231
-4 -14 -13 1.7589 -0.0510
-4 -14 -12 -7.2761 9.3283
-4 -14 -11 -1.3567 2.1596
-4 -14 -10 -2.7017 -3.5342
-4 -14 -9 -2.3545 13.7306
-4 -14 -8 1.3695 3.7837
-4 -14 -7 10.0950 -6.6539
-4 -14 -6 -13.0613 6.9966
-4 -14 -5 5.7539 11.6370
-4 -14 -4 8.9694 -2.8997
-4 -14 -3 2.7368 11.9347
-4 -14 -2 1.9980 -17.1340
-4 -14 -1 -3.0458 6.0361
-4 -13 -30 8.7523 4.8965
-4 -13 -29 1.0168 3.0064
-4 -13 -28 8.1486 -4.4926
-4 -13 -27 8.3760 3.1518
-4 -13 -26 4.7104 0.6845
-4 -13 -25 3.0676 -6.6664
-4 -13 -24 7.8795 5.9589
-4 -13 -23 11.9731 -1.2315
-4 -13 -22 -1.5042 11.6451
-4 -13 -21 9.0650 -13.3225
-4 -13 -20 1.7102 -1.8528
-4 -13 -19 4.4353 5.1637
-4 -13 -18 4.6444 -1.1461
-4 -13 -17 18.0639 -0.6952
-4 -13 -16 -3.0267 11.8147
-4 -13 -15 12.7071 -3.4041
-4 -13 -14 12.8472 3.5533
-4 -13 -13 5.1953 24.5268
-4 -13 -12 1.7484 -3.5827
-4 -13 -11 11.1707 11.2766
-4 -13 -10 1.8799 -4.1581
-4 -13 -9 0.2508 -9.1387
-4 -13 -8 8.0238 2.1355
-4 -13 -7 3.7464 4.6003
-4 -13 -6 -3.8288 -8.4760
-4 -13 -5 -2.4082 -6.7290
-4 -13 -4 -4.4903 -7.5544
-4 -13 -3 -3.6077 11.1066
-4 -13 -2 -5.2323 9.0028
-4 -13 -1 7.1601 -0.5596
-4 -12 -32 0.3298 -6.9510
-4 -12 -31 -7.5090 3.5175
-4 -12 -30 -3.3698 1.8119
-4 -12 -29 9.5728 -5.1806
-4 -12 -28 -3.0333 -4.2780
-4 -12 -27 -10.5244 -8.4101
-4 -12 -26 9.8629 -1.8411
-4 -12 -25 3.1875 -0.4373
-4 -12 -24 -2.1685 -1.3238
-4 -12 -23 -3.5314 -5.0477
-4 -12 -22 1.5432 -1.4133
-4 -12 -21 -0.0596 -6.5588
-4 -12 -20 -3.1512 -8.4833
-4 -12 -19 15.9269 1.4247
-4 -12 -18 5.2851 -3.3913
-4 -12 -17 1.3032 -2.3928
-4 -12 -16 10.2411 -12.7627
-4 -12 -15 16.3038 -8.3465
-4 -12 -14 -2.7080 -16.6331
-4 -12 -13 12.2961 0.2168
-4 -12 -12 4.0510 -3.0756
-4 -12 -11 -20.1185 0.0530
-4 -12 -10 4.7036 0.1925
-4 -12 -9 -6.5813 -4.0089
-4 -12 -8 -2.1496 -1.4860
-4 -12 -7 -3.0005 16.2912
-4 -12 -6 -7.8007 0.8302
-4 -12 -5 5.3303 -5.7559
-4 -12 -4 6.1407 2.9176
-4 -12 -3 5.9427 -3.8752
-4 -12 -2 5.5351 -16.0975
-4 -12 -1 1.2479 9.2019
-4 -11 -35 2.3844 4.0265
-4 -11 -34 -0.6875 6.9898
-4 -11 -33 -1.5329 1.6388
-4 -11 -32 3.9692 0.0497
-4 -11 -31 3.7328 -4.5000
-4 -11 -30 -5.3032 2.8006
-4 -11 -29 -2.7397 -6.9212
-4 -11 -28 -5.1787 -5.3844
-4 -11 -27 -6.3992 4.0083
-4 -11 -26 -0.7930 0.1822
-4 -11 -25 2.1329 -9.0806
-4 -11 -24 -3.6009 7.8446
-4 -11 -23 -5.2686 -4.6939
-4 -11 -22 -0.1961 -5.4685
-4 -11 -21 1.9080 -3.1475
-4 -11 -20 -3.7410 4.0163
-4 -11 -19 8.6516 -15.6129
-4 -11 -18 -2.7974 -8.3935
-4 -11 -17 -18.9928 -2.4212
-4 -11 -16 -11.8995 0.0173
-4 -11 -15 -1.8416 3.1764
-4 -11 -14 -4.2011 -3.2186
-4 -11 -13 2.3825 5.1777
-4 -11 -12 11.0546 2.0756
-4 -11 -11 -9.1861 9.7448
-4 -11 -10 -4.2680 6.5917
-4 -11 -9 13.3160 1.1640
-4 -11 -8 -2.1447 10.3661
-4 -11 -7 -11.9905 -13.3651
-4 -11 -6 5.6723 -3.9069
-4 -11 -5 -12.2178 3.7949
-4 -11 -4 -7.0997 -14.1917
-4 -11 -3 11.6953 0.7840
-4 -11 -2 5.5777 4.0847
-4 -11 -1 -2.2889 6.0201
-4 -10 -36 4.3646 6.4042
-4 -10 -35 8.5289 2.8905
-4 -10 -34 -5.2230 -7.8012
-4 -10 -33 -7.8482 -7.5121
-4 -10 -32 -6.9219 7.2647
-4 -10 -31 -2.2319 2.0344
-4 -10 -30 -3.8324 7.9100
-4 -10 -29 -1.8824 11.0775
-4 -10 -28 -9.0408 1.8345
-4 -10 -27 7.1398 1.4692
-4 -10 -26 1.9336 0.8478
-4 -10 -25 -8.2797 -5.8363
-4 -10 -24 -5.5400 -3.7034
-4 -10 -23 15.8559 -0.1423
-4 -10 -22 -3.1880 4.2532
-4 -10 -21 -1.4699 -6.0946
-4 -10 -20 -1.7936 -1.0402
-4 -10 -19 -4.1733 11.2461
-4 -10 -18 -1.7017 2.9041
-4 -10 -17 21.1882 5.9420
-4 -10 -16 -5.5789 4.0970
-4 -10 -15 -0.5395 -0.0235
-4 -10 -14 5.5283 -8.7867
-4 -10 -13 -1.3126 4.2150
-4 -10 -12 10.4642 1.9443
-4 -10 -11 7.4749 -1.6670
-4 -10 -10 4.8558 4.5331
-4 -10 -9 -4.5928 9.3949
-4 -10 -8 -4.4732 0.0631
-4 -10 -7 -6.0600 7.5625
-4 -10 -6 -9.6648 8.8923
-4 -10 -5 9.6240 -4.8990
-4 -10 -4 3.2815 -3.3342
-4 -10 -3 -7.1546 -10.3608
-4 -10 -2 6.9688 -8.6660
-4 -10 -1 2.9734 -3.1882
-4 -9 -38 4.8843 -8.1385
-4 -9 -37 6.1031 -0.9905
-4 -9 -36 -4.2154 5.9476
-4 -9 -35 -10.8372 7.6801
-4 -9 -34 1.6072 1.7136
-4 -9 -33 8.0958 5.8002
-4 -9 -32 8.7562 4.3791
-4 -9 -31 13.4592 2.4851
-4 -9 -30 2.2301 2.6263
-4 -9 -29 -2.7739 -0.9643
-4 -9 -28 -7.0518 -1.2139
-4 -9 -27 -1.1025 -0.2516
-4 -9 -26 -7.2130 -8.9982
-4 -9 -25 -2.6120 -3.2820
-4 -9 -24 3.1594 -8.3192
-4 -9 -23 0.9916 -0.6309
-4 -9 -22 -3.0409 -3.2128
-4 -9 -21 4.5484 4.6680
-4 -9 -20 0.8939 -14.9058
-4 -9 -19 -3.2580 -2.7470
-4 -9 -18 -0.6493 9.0350
-4 -9 -17 5.7460 -4.6502
-4 -9 -16 3.9796 -7.5066
-4 -9 -15 -5.4899 7.0527
-4 -9 -14 1.1581 -9.1484
-4 -9 -13 -4.5389 -1.4346
-4 -9 -12 1.4764 -5.0006
-4 -9 -11 10.1424 -11.6872
-4 -9 -10 9.5949 11.6923
-4 -9 -9 -2.3919 0.6281
-4 -9 -8 6.9769 6.8275
-4 -9 -7 9.9330 6.1057
-4 -9 -6 -2.1066 -1.3375
-4 -9 -5 -6.7640 -7.1810
-4 -9 -4 -0.6960 7.1163
-4 -9 -3 -11.1388 10.1549
-4 -9 -2 -5.6092 -4.9574
-4 -9 -1 18.2791 -1.1068
-4 -8 -39 2.4494 -3.0950
-4 -8 -38 0.7578 1.5294
-4 -8 -37 5.2547 11.7794
-4 -8 -36 1.0788 -7.1311
-4 -8 -35 -2.7207 -5.5260
-4 -8 -34 3.9707 -2.5604
-4 -8 -33 2.1174 -7.8347
-4 -8 -32 3.8180 -7.5713
-4 -8 -31 -2.1996 9.6767
-4 -8 -30 -4.6866 7.3999
-4 -8 -29 -3.1817 1.5385
-4 -8 -28 -8.9817 4.5539
-4 -8 -27 -4.3273 6.6251
-4 -8 -26 -10.9963 -8.8016
-4 -8 -25 2.5913 2.7571
-4 -8 -24 7.5601 4.9950
-4 -8 -23 -11.3064 2.8666
-4 -8 -22 -7.4558 -4.7369
-4 -8 -21 -2.1899 -0.4876
-4 -8 -20 10.7287 9.4387
-4 -8 -19 2.0554 -3.5510
-4 -8 -18 7.7096 0.2430
-4 -8 -17 -11.1734 -0.2017
-4 -8 -16 -14.4072 -3.6091
-4 -8 -15 8.4395 5.5105
-4 -8 -14 -3.1076 10.9452
-4 -8 -13 -7.8207 -4.9920
-4 -8 -12 -0.1621 -12.2827
-4 -8 -11 -5.0880 -6.4745
-4 -8 -10 13.0763 -7.4791
-4 -8 -9 19.9450 -10.3731
-4 -8 -8 -14.3836 3.7981
-4 -8 -7 12.2583 -0.6004
-4 -8 -6 4.5196 -13.7351
-4 -8 -5 -3.8605 7.9563
-4 -8 -4 -4.6883 7.8165
-4 -8 -3 15.6179 -17.5878
-4 -8 -2 4.1588 -5.1351
-4 -8 -1 -2.6899 -1.7229
-4 -7 -41 -1.3796 5.7171
-4 -7 -40 1.7602 -10.1719
-4 -7 -39 0.8858 -0.1905
-4 -7 -38 5.3743 1.9124
-4 -7 -37 -14.1569 8.6281
-4 -7 -36 2.5566 -3.2118
-4 -7 -35 -2.5924 0.7701
-4 -7 -34 5.9885 -2.4641
-4 -7 -33 0.5310 0.2872
-4 -7 -32 7.2886 4.5749
-4 -7 -31 -10.6628 4.8316
-4 -7 -30 7.1942 4.2068
-4 -7 -29 9.6234 -1.8870
-4 -7 -28 0.5440 6.0394
-4 -7 -27 -2.8628 5.9183
-4 -7 -26 6.7399 -11.6050
-4 -7 -25 -1.6997 8.2549
-4 -7 -24 -0.1000 1.5967
-4 -7 -23 1.8920 4.3000
-4 -7 -22 5.5137 -5.1814
-4 -7 -21 -5.3788 -16.6937
-4 -7 -20 -0.4022 2.3136
-4 -7 -19 14.4686 11.6450
-4 -7 -18 -8.3975 6.6985
-4 -7 -17 0.6352 -2.2160
-4 -7 -16 -1.8822 14.0485
-4 -7 -15 6.6446 -0.7873
-4 -7 -14 -1.4847 -11.9077
-4 -7 -13 -11.4835 3.3848
-4 -7 -12 -13.3592 -9.3699
-4 -7 -11 -21.0311 -2.1326
-4 -7 -10 2.8996 -7.1107
-4 -7 -9 10.8119 -13.7790
-4 -7 -8 -10.2824 10.0067
-4 -7 -7 -12.5546 13.0329
-4 -7 -6 -4.8588 -10.2956
-4 -7 -5 -6.7162 10.8313
-4 -7 -4 1.5924 -16.3011
-4 -7 -3 -4.4624 -3.9895
-4 -7 -2 -6.0552 2.7153
-4 -7 -1 -8.2952 8.2752
-4 -6 -42 -0.6785 2.3533
-4 -6 -41 0.3814 -5.3684
-4 -6 -40 0.2118 -0.1496
-4 -6 -39 -2.2908 7.9047
-4 -6 -38 11.3334 0.6083
-4 -6 -37 -1.4837 -11.9121
-4 -6 -36 1.1134 9.9670
-4 -6 -35 -1.2091 -8.5704
-4 -6 -34 3.5417 -1.4824
-4 -6 -33 -3.5576 3.3019
-4 -6 -32 2.0215 13.4431
-4 -6 -31 -4.5780 -17.4262
-4 -6 -30 4.6762 -1.2688
-4 -6 -29 4.5453 -12.1945
-4 -6 -28 -1.2690 0.7994
-4 -6 -27 6.3878 3.9508
-4 -6 -26 2.6898 7.9465
-4 -6 -25 -9.3128 -3.3073
-4 -6 -24 -1.0570 -6.5456
-4 -6 -23 -11.2513 -6.3443
-4 -6 -22 13.5005 7.9144
-4 -6 -21 5.2658 5.2882
-4 -6 -20 0.7224 -2.7390
-4 -6 -19 9.4225 -5.1995
-4 -6 -18 0.3901 -2.5343
-4 -6 -17 -5.0514 12.1735
-4 -6 -16 -3.2228 0.7919
-4 -6 -15 -4.4350 13.0469
-4 -6 -14 -14.2215 0.2413
-4 -6 -13 -3.9800 16.0965
-4 -6 -12 8.0833 15.3918
-4 -6 -11 2.1415 -14.8560
-4 -6 -10 5.0290 0.8918
-4 -6 -9 -4.6530 3.8684
-4 -6 -8 18.7287 9.8013
-4 -6 -7 12.5392 6.5856
-4 -6 -6 -24.0199 11.5381
-4 -6 -5 3.1012 -3.3198
-4 -6 -4 20.6849 -16.7415
-4 -6 -3 -9.1720 18.1911
-4 -6 -2 14.1759 31.0836
-4 -6 -1 3.2324 -10.4304
-4 -5 -43 0.3671 -0.8320
-4 -5 -42 0.4265 2.4148
-4 -5 -41 0.1722 -1.1140
-4 -5 -40 -1.0928 -1.9139
-4 -5 -39 -3.7077 -1.6955
-4 -5 -38 -0.6288 -1.6852
-4 -5 -37 3.4996 -8.3203
-4 -5 -36 -3.5297 6.3256
-4 -5 -35 7.8306 4.6748
-4 -5 -34 -6.1628 1.4246
-4 -5 -33 -2.4712 0.2056
-4 -5 -32 -9.0574 -3.0345
-4 -5 -31 5.7228 -12.3214
-4 -5 -30 -12.5393 -1.9288
-4 -5 -29 -1.6413 -3.3139
-4 -5 -28 2.7222 1.9847
-4 -5 -27 15.4198 0.6510
-4 -5 -26 -7.3812 5.8836
-4 -5 -25 -6.6914 3.8661
-4 -5 -24 4.6252 -4.1658
-4 -5 -23 5.6259 -16.3858
-4 -5 -22 -0.8520 -3.0713
-4 -5 -21 6.2870 -2.2883
-4 -5 -20 -5.1863 17.4361
-4 -5 -19 -11.7947 -3.7266
-4 -5 -18 7.3543 -2.7562
-4 -5 -17 27.3423 15.0818
-4 -5 -16 12.5731 2.6805
-4 -5 -15 -8.8287 -5.9657
-4 -5 -14 1.6138 -3.2478
-4 -5 -13 -17.0936 -4.3511
-4 -5 -12 -0.9641 -5.3423
-4 -5 -11 19.9599 -14.0195
-4 -5 -10 -9.6050 -8.7729
-4 -5 -9 -6.8561 4.8722
-4 -5 -8 3.6058 7.2622
-4 -5 -7 13.5694 -23.1973
-4 -5 -6 -17.1755 -4.8549
-4 -5 -5 10.1945 3.8718
-4 -5 -4 7.5565 -12.3292
-4 -5 -3 -9.2147 5.4417
-4 -5 -2 17.1356 -9.6730
-4 -5 -1 -6.4471 -13.8366
-4 -4 -43 -1.7341 -5.7797
-4 -4 -42 -2.4195 1.9506
-4 -4 -41 -2.4478 1.5785
-4 -4 -40 2.4773 6.2370
-4 -4 -39 -2.8405 -4.7874
-4 -4 -38 -6.7292 0.2615
-4 -4 -37 2.7752 6.0946
-4 -4 -36 1.4607 -4.5305
-4 -4 -35 1.9119 10.2247
-4 -4 -34 -10.0504 8.9493
-4 -4 -33 -10.6413 2.3269
-4 -4 -32 -2.8950 -12.0493
-4 -4 -31 3.1625 10.6713
-4 -4 -30 1.6791 -1.1529
-4 -4 -29 1.2283 4.1379
-4 -4 -28 -0.6475 -5.2648
-4 -4 -27 1.4051 -11.7244
-4 -4 -26 -3.6443 -3.8363
-4 -4 -25 -4.6104 2.7428
-4 -4 -24 -5.5143 9.0421
-4 -4 -23 10.2633 4.5589
-4 -4 -22 -3.2506 2.9564
-4 -4 -21 1.5669 1.5609
-4 -4 -20 2.3561 -5.3096
-4 -4 -19 8.5809 -7.5520
-4 -4 -18 -16.9646 -7.2984
-4 -4 -17 -0.4710 -5.5301
-4 -4 -16 -0.5745 -1.9255
-4 -4 -15 -9.3779 34.0006
-4 -4 -14 -1.5577 22.6611
-4 -4 -13 -2.4554 -22.3177
-4 -4 -12 -9.0481 -11.9563
-4 -4 -11 -5.7444 11.7048
-4 -4 -10 2.3193 12.4180
-4 -4 -9 5.2776 14.8113
-4 -4 -8 -19.5857 -0.8374
-4 -4 -7 -11.0678 -5.5112
-4 -4 -6 6.8551 -13.6406
-4 -4 -5 11.7576 23.1711
-4 -4 -4 -27.6015 9.5319
-4 -4 -3 -16.5897 16.7871
-4 -4 -2 2.8935 16.2827
-4 -4 -1 -8.8480 10.8438
-4 -3 -44 -1.0111 0.8888
-4 -3 -43 -1.8105 0.5073
-4 -3 -42 -0.5660 5.2859
-4 -3 -41 8.4573 -3.4112
-4 -3 -40 -0.6914 9.1017
-4 -3 -39 12.8498 1.9389
-4 -3 -38 -3.8104 5.2783
-4 -3 -37 2.7988 5.2611
-4 -3 -36 12.1601 1.6534
-4 -3 -35 -3.6871 -0.9822
-4 -3 -34 0.5398 -1.0642
-4 -3 -33 -1.5151 1.4761
-4 -3 -32 1.6155 -7.4602
-4 -3 -31 -11.4878 1.1609
-4 -3 -30 9.0122 1.0459
-4 -3 -29 -3.4268 3.3916
-4 -3 -28 -3.8964 -1.8216
-4 -3 -27 -16.0168 2.6830
-4 -3 -26 12.1725 -2.3187
-4 -3 -25 35.3349 -7.4755
-4 -3 -24 1.9698 4.1639
-4 -3 -23 5.3183 10.3575
-4 -3 -22 -15.9801 3.7121
-4 -3 -21 -14.0627 12.1056
-4 -3 -20 3.4440 -11.3632
-4 -3 -19 15.2599 8.6000
-4 -3 -18 9.5061 7.7339
-4 -3 -17 -0.1895 7.9773
-4 -3 -16 10.9979 -15.8501
-4 -3 -15 0.7798 3.7804
-4 -3 -14 5.5192 6.6035
-4 -3 -13 -0.1044 8.6484
-4 -3 -12 10.6842 -9.1626
-4 -3 -11 10.4363 -1.7393
-4 -3 -10 16.7584 22.0691
-4 -3 -9 14.5502 -5.8758
-4 -3 -8 -12.1573 -14.6477
-4 -3 -7 -1.8718 22.2221
-4 -3 -6 32.2454 17.5322
-4 -3 -5 23.2839 18.5845
-4 -3 -4 34.4625 5.8495
-4 -3 -3 19.1902 4.4955
-4 -3 -2 -3.9717 -15.3978
-4 -3 -1 -17.6453 -1.3793
-4 -2 -44 7.5697 -0.4993
-4 -2 -43 -3.1419 -3.4180
-4 -2 -42 11.3318 -0.7672
-4 -2 -41 10.2057 -14.0752
-4 -2 -40 -5.2725 -9.9050
-4 -2 -39 8.9191 7.1168
-4 -2 -38 -1.4415 -7.5403
-4 -2 -37 -6.1117 6.6697
-4 -2 -36 -12.4812 -0.6499
-4 -2 -35 -4.2967 -0.2671
-4 -2 -34 -3.5805 2.9094
-4 -2 -33 10.0766 3.2649
-4 -2 -32 4.6829 7.5072
-4 -2 -31 -8.5766 -6.4520
-4 -2 -30 -0.2251 2.7110
-4 -2 -29 -0.5746 -10.4175
-4 -2 -28 9.5295 -1.7716
-4 -2 -27 -11.9698 -14.9138
-4 -2 -26 4.6925 -5.5648
-4 -2 -25 11.8502 -21.6888
-4 -2 -24 15.6268 4.3490
-4 -2 -23 6.6411 28.9608
-4 -2 -22 -6.7666 -2.9171
-4 -2 -21 3.5611 -7.5204
-4 -2 -20 2.0897 -22.4150
-4 -2 -19 -14.6837 -1.6923
-4 -2 -18 13.0274 7.0048
-4 -2 -17 -9.1356 3.8950
-4 -2 -16 3.2592 16.1791
-4 -2 -15 4.2941 -34.9122
-4 -2 -14 7.4901 -32.9774
-4 -2 -13 -14.4843 -4.8919
-4 -2 -12 14.2057 14.1155
-4 -2 -11 -5.7930 -21.6565
-4 -2 -10 2.2250 -7.0079
-4 -2 -9 11.7595 -19.2584
-4 -2 -8 9.3619 -29.0134
-4 -2 -7 42.6275 -6.9179
-4 -2 -6 15.7590 -30.8013
-4 -2 -5 -31.5123 -37.2778
-4 -2 -4 -1.1105 3.2070
-4 -2 -3 1.0225 21.2235
-4 -2 -2 5.5663 8.8025
-4 -2 -1 -10.5227 -3.3739
-4 -1 -44 -11.7013 -2.2732
-4 -1 -43 -3.1203 -17.1630
-4 -1 -42 -11.4134 8.1988
-4 -1 -41 1.7120 -5.0499
-4 -1 -40 -4.6138 5.9942
-4 -1 -39 5.3790 11.7763
-4 -1 -38 9.3471 6.6634
-4 -1 -37 2.9509 8.9463
-4 -1 -36 -0.6425 -2.5370
-4 -1 -35 -7.4451 -3.6792
-4 -1 -34 7.4251 -10.3801
-4 -1 -33 -4.0805 1.2075
-4 -1 -32 -4.9878 1.3021
-4 -1 -31 -2.7404 7.3235
-4 -1 -30 -10.5902 -7.7048
-4 -1 -29 -12.0230 -5.9916
-4 -1 -28 -10.4062 2.2633
-4 -1 -27 14.5504 -11.5694
-4 -1 -26 -5.1460 3.6128
-4 -1 -25 1.4440 -14.6911
-4 -1 -24 -4.3050 6.8695
-4 -1 -23 7.7424 1.1518
-4 -1 -22 -5.2215 4.0808
-4 -1 -21 7.9517 4.4292
-4 -1 -20 -2.2787 -0.1250
-4 -1 -19 -9.0539 9.2842
-4 -1 -18 14.1876 -9.2879
-4 -1 -17 -14.0845 -27.2691
-4 -1 -16 -42.3847 12.3226
-4 -1 -15 -5.8043 8.6559
-4 -1 -14 -23.3564 0.8134
-4 -1 -13 14.1784 -17.0377
-4 -1 -12 -0.5358 9.6730
-4 -1 -11 -13.7759 -13.1095
-4 -1 -10 -61.2911 -15.7507
-4 -1 -9 -22.6153 -43.0275
-4 -1 -8 -6.1474 8.3991
-4 -1 -7 -1.0911 20.7326
-4 -1 -6 -0.5957 -13.6047
-4 -1 -5 2.4224 12.1407
-4 -1 -4 13.1279 6.2184
-4 -1 -3 -1.8422 -15.1236
-4 -1 -2 5.7239 13.8758
-4 -1 -1 7.8286 -11.0306
-3 -17 -13 -0.4198 -6.7359
-3 -17 -12 -4.5566 -1.6521
-3 -17 -11 5.5141 1.9489
-3 -17 -10 -3.5209 0.3982
-3 -17 -9 -7.5556 -0.1372
-3 -17 -8 0.9714 3.0816
-3 -17 -7 -1.9571 -14.3146
-3 -17 -6 7.4456 1.8168
-3 -17 -5 12.1457 -6.6147
-3 -17 -4 -0.9827 -5.0472
-3 -17 -3 1.5603 -6.0987
-3 -17 -2 5.0253 0.7879
-3 -17 -1 -7.2395 14.9987
-3 -16 -20 -1.1469 12.1166
-3 -16 -19 10.7693 7.3984
-3 -16 -18 -0.2318 -1.9663
-3 -16 -17 -0.5063 -13.5855
-3 -16 -16 7.9765 5.4102
-3 -16 -15 -3.5477 -7.4947
-3 -16 -14 -12.2094 -3.9431
-3 -16 -13 5.5123 3.2269
-3 -16 -12 2.7375 1.3270
-3 -16 -11 -2.8089 -0.2778
-3 -16 -10 -5.9141 7.3956
-3 -16 -9 -1.0162 8.8541
-3 -16 -8 -5.2611 -9.3626
-3 -16 -7 5.4187 -13.1221
-3 -16 -6 -2.2536 0.6784
-3 -16 -5 7.9951 0.7968
-3 -16 -4 -3.5589 -4.5259
-3 -16 -3 17.1642 1.7376
-3 -16 -2 -7.1768 -7.8210
-3 -16 -1 -2.3130 -4.9996
-3 -15 -24 -1.8363 -0.3508
-3 -15 -23 -1.0410 -14.5509
-3 -15 -22 9.1154 4.3683
-3 -15 -21 -3.1102 -1.6853
-3 -15 -20 -7.7737 -8.1996
-3 -15 -19 3.7483 -3.4237
-3 -15 -18 -7.6711 -8.2466
-3 -15 -17 -9.5082 13.6466
-3 -15 -16 -8.8589 3.5687
-3 -15 -15 5.0471 -4.8559
-3 -15 -14 -8.0512 -0.3717
-3 -15 -13 10.9757 6.7373
-3 -15 -12 14.1294 -3.0744
-3 -15 -11 2.0025 0.5366
-3 -15 -10 -1.3194 -2.6560
-3 -15 -9 -2.1159 -5.1768
-3 -15 -8 -1.9882 -8.2969
-3 -15 -7 2.7163 1.0878
-3 -15 -6 -6.0176 -10.2575
-3 -15 -5 -5.7120 1.9245
-3 -15 -4 -8.7541 -5.5213
-3 -15 -3 -4.2778 15.2399
-3 -15 -2 5.8501 -5.7001
-3 -15 -1 -3.1093 -3.0862
-3 -14 -28 5.8678 4.9777
-3 -14 -27 -1.6639 10.6314
-3 -14 -26 1.2027 -0.1653
-3 -14 -25 2.9527 -5.8389
-3 -14 -24 4.5756 -3.7208
-3 -14 -23 -4.8503 -0.5176
-3 -14 -22 -9.0381 2.9314
-3 -14 -21 1.9658 7.3942
-3 -14 -20 -5.4018 10.4935
-3 -14 -19 2.1217 -9.1539
-3 -14 -18 12.7778 5.8967
-3 -14 -17 0.3537 12.9565
-3 -14 -16 -0.5966 -7.4154
-3 -14 -15 -8.2477 -12.6414
-3 -14 -14 1.3652 -11.6038
-3 -14 -13 -6.4034 -8.2314
-3 -14 -12 -4.0878 -10.3233
-3 -14 -11 -4.5194 11.9367
-3 -14 -10 1.0280 -1.3721
-3 -14 -9 -2.7646 -15.7615
-3 -14 -8 5.6509 10.2957
-3 -14 -7 2.0156 18.7939
-3 -14 -6 -0.4119 4.8090
-3 -14 -5 7.0483 2.6943
-3 -14 -4 12.1686 -6.6493
-3 -14 -3 -26.5800 0.0902
-3 -14 -2 -7.1541 -1.3487
-3 -14 -1 -10.3681 9.9150
-3 -13 -31 -0.8729 -4.4995
-3 -13 -30 11.3723 -3.2715
-3 -13 -29 10.1384 -1.9310
-3 -13 -28 -2.7457 -0.5735
-3 -13 -27 0.1161 -15.5644
-3 -13 -26 -6.7914 5.5212
-3 -13 -25 -16.9247 -5.0290
-3 -13 -24 4.7163 8.8733
-3 -13 -23 10.9203 1.7058
-3 -13 -22 -2.2827 2.5456
-3 -13 -21 -2.8118 -11.9750
-3 -13 -20 1.2664 -4.7216
-3 -13 -19 -6.6611 -0.4729
-3 -13 -18 -20.8602 3.4482
-3 -13 -17 7.0094 2.6761
-3 -13 -16 -8.7687 11.4578
-3 -13 -15 -14.9842 7.9607
-3 -13 -14 -2.5736 5.3751
-3 -13 -13 5.6456 -12.6697
-3 -13 -12 -5.5500 -4.8294
-3 -13 -11 -4.7486 -5.6766
-3 -13 -10 12.2338 -4.2135
-3 -13 -9 8.6596 -11.0759
-3 -13 -8 9.2017 1.3119
-3 -13 -7 6.3808 -13.7187
-3 -13 -6 -8.3256 -0.1362
-3 -13 -5 -6.2541 16.6687
-3 -13 -4 2.0690 8.2153
-3 -13 -3 9.2660 3.2480
-3 -13 -2 4.1095 16.2053
-3 -13 -1 -6.5350 -6.3356
-3 -12 -33 2.2302 2.2341
-3 -12 -32 -5.6201 -8.7226
-3 -12 -31 -0.0537 -10.4048
-3 -12 -30 -10.9073 -5.9568
-3 -12 -29 2.9374 13.3290
-3 -12 -28 -3.7373 14.6256
-3 -12 -27 5.7671 7.0006
-3 -12 -26 0.5883 -2.6141
-3 -12 -25 2.6947 6.7164
-3 -12 -24 -17.7768 4.4318
-3 -12 -23 6.9352 -4.3743
-3 -12 -22 -5.9451 8.9796
-3 -12 -21 -1.0719 17.0181
-3 -12 -20 -1.7568 12.6368
-3 -12 -19 21.3935 10.4850
-3 -12 -18 -1.2011 -1.3786
-3 -12 -17 5.8571 -9.4727
-3 -12 -16 2.0208 -9.7084
-3 -12 -15 -8.2403 16.6110
-3 -12 -14 -18.6457 -2.3626
-3 -12 -13 -0.3680 1.6625
-3 -12 -12 -8.8844 -10.5636
-3 -12 -11 -4.4503 -17.1429
-3 -12 -10 -4.8749 -8.5933
-3 -12 -9 -2.1593 8.5401
-3 -12 -8 -11.2353 3.9792
-3 -12 -7 20.8587 -3.5902
-3 -12 -6 8.3761 3.0490
-3 -12 -5 8.8552 -6.4152
-3 -12 -4 1.0394 -3.2637
-3 -12 -3 8.6629 6.4742
-3 -12 -2 -0.3559 -5.2768
-3 -12 -1 -1.3696 0.6175
-3 -11 -35 0.7832 0.4530
-3 -11 -34 -7.7927 0.7563
-3 -11 -33 -7.4756 3.4565
-3 -11 -32 2.2409 -5.1683
-3 -11 -31 15.2729 2.2562
-3 -11 -30 8.9832 -3.5064
-3 -11 -29 1.3888 -1.7005
-3 -11 -28 9.5450 -8.1521
-3 -11 -27 -4.6467 17.8445
-3 -11 -26 5.4154 7.0388
-3 -11 -25 11.9737 5.5839
-3 -11 -24 11.1329 -4.9214
-3 -11 -23 2.9365 2.6784
-3 -11 -22 12.3957 -12.1463
-3 -11 -21 10.0982 1.4457
-3 -11 -20 -8.7486 -3.9393
-3 -11 -19 -16.5014 -2.7197
-3 -11 -18 -1.4008 -6.3309
-3 -11 -17 -3.3019 21.7441
-3 -11 -16 0.6959 -3.2039
-3 -11 -15 8.2691 -1.2443
-3 -11 -14 -2.9108 2.1664
-3 -11 -13 -27.5710 8.9066
-3 -11 -12 2.0816 -2.4482
-3 -11 -11 -0.3659 6.8482
-3 -11 -10 6.6851 -4.0409
-3 -11 -9 4.6918 -7.2368
-3 -11 -8 -1.8208 -20.1073
-3 -11 -7 -11.5326 1.3797
-3 -11 -6 -1.7636 -10.9015
-3 -11 -5 9.4843 -1.2147
-3 -11 -4 -3.1845 -2.5695
-3 -11 -3 -0.4373 18.0433
-3 -11 -2 -7.8362 -11.1097
-3 -11 -1 -8.2055 4.1520
-3 -10 -37 5.8905 6.4361
-3 -10 -36 -1.3568 -3.2447
-3 -10 -35 -3.8683 -1.4404
-3 -10 -34 -2.4454 -3.4595
-3 -10 -33 -7.9553 -11.7898
-3 -10 -32 -1.1941 -5.0137
-3 -10 -31 3.8297 -0.8906
-3 -10 -30 2.9632 5.8054
-3 -10 -29 5.1833 2.7998
-3 -10 -28 15.4675 -9.5149
-3 -10 -27 4.4665 -15.5911
-3 -10 -26 -1.0024 3.3655
-3 -10 -25 -7.6061 -15.1097
-3 -10 -24 7.0273 -3.2840
-3 -10 -23 -6.1162 8.2848
-3 -10 -22 -2.4250 12.0869
-3 -10 -21 -2.9649 3.3964
-3 -10 -20 6.0124 0.1995
-3 -10 -19 -3.6329 -8.2246
-3 -10 -18 -6.0896 0.6159
-3 -10 -17 -5.8373 3.6392
-3 -10 -16 -3.9302 9.0878
-3 -10 -15 -5.0262 -0.2687
-3 -10 -14 18.2443 -2.1958
-3 -10 -13 -8.6291 -0.3450
-3 -10 -12 -6.7853 2.0830
-3 -10 -11 -5.0100 -1.2009
-3 -10 -10 -14.1604 1.7556
-3 -10 -9 -12.4561 -9.4340
-3 -10 -8 10.0502 15.6295
-3 -10 -7 -15.1717 4.4592
-3 -10 -6 4.0842 -10.7308
-3 -10 -5 12.5620 0.3512
-3 -10 -4 3.3959 5.2805
-3 -10 -3 -11.8227 5.8360
-3 -10 -2 11.2583 4.4554
-3 -10 -1 -10.3411 7.6377
-3 -9 -39 -1.0370 -1.8147
-3 -9 -38 3.3175 3.8688
-3 -9 -37 -1.2690 0.5338
-3 -9 -36 -10.7891 0.9695
-3 -9 -35 -13.3174 9.7064
-3 -9 -34 3.0427 -3.6870
-3 -9 -33 8.2947 -9.6512
-3 -9 -32 11.4650 2.0324
-3 -9 -31 1.6749 -6.8749
-3 -9 -30 -11.8837 -12.7695
-3 -9 -29 -5.5865 -3.8471
-3 -9 -28 -7.8892 2.4117
-3 -9 -27 -0.0214 -3.3144
-3 -9 -26 -1.5583 -5.9339
-3 -9 -25 12.2979 4.0112
-3 -9 -24 1.6252 6.5216
-3 -9 -23 12.3333 0.7479
-3 -9 -22 -11.7891 10.6697
-3 -9 -21 -22.6288 2.1292
-3 -9 -20 -3.1577 6.8497
-3 -9 -19 15.7282 7.5090
-3 -9 -18 3.8150 19.0961
-3 -9 -17 7.2570 -4.1940
-3 -9 -16 -8.0939 -11.0091
-3 -9 -15 -14.6369 10.6673
-3 -9 -14 -0.7289 3.8917
-3 -9 -13 13.1789 -5.1172
-3 -9 -12 -1.1122 31.0965
-3 -9 -11 -0.3578 -1.3068
-3 -9 -10 5.6189 -6.5270
-3 -9 -9 -8.3030 11.9148
-3 -9 -8 0.2190 5.2122
-3 -9 -7 14.0202 -14.0855
-3 -9 -6 -12.5339 7.9117
-3 -9 -5 -5.0220 -2.2511
-3 -9 -4 10.3646 -2.5592
-3 -9 -3 -1.5059 4.4527
-3 -9 -2 -4.6440 6.3309
-3 -9 -1 -2.8023 2.0173
-3 -8 -40 3.9856 -0.0886
-3 -8 -39 4.2985 9.8130
-3 -8 -38 -0.1455 4.1313
-3 -8 -37 -5.2619 0.2912
-3 -8 -36 0.8940 4.0236
-3 -8 -35 -8.0433 -8.4352
-3 -8 -34 -1.1323 -13.3349
-3 -8 -33 0.0035 -5.5082
-3 -8 -32 0.6576 10.3851
-3 -8 -31 -9.3780 8.6539
-3 -8 -30 -6.0890 7.9084
-3 -8 -29 -0.4486 -3.9304
-3 -8 -28 -5.6343 -4.9350
-3 -8 -27 6.2901 -4.9010
-3 -8 -26 10.3042 -7.1606
-3 -8 -25 1.3793 10.8147
-3 -8 -24 10.2529 6.7429
-3 -8 -23 9.0926 16.7487
-3 -8 -22 6.9157 -4.2541
-3 -8 -21 8.3291 -5.6063
-3 -8 -20 3.4881 -7.1453
-3 -8 -19 8.0959 -9.1377
-3 -8 -18 -5.8762 3.8304
-3 -8 -17 14.7092 16.0896
-3 -8 -16 -5.5541 -5.1801
-3 -8 -15 2.5701 3.6289
-3 -8 -14 9.3795 -2.3959
-3 -8 -13 11.2987 -9.8668
-3 -8 -12 9.2484 -0.7922
-3 -8 -11 10.7305 1.1833
-3 -8 -10 -15.8034 5.2199
-3 -8 -9 13.9003 12.9628
-3 -8 -8 -2.8545 -2.0198
-3 -8 -7 1.2859 -21.3423
-3 -8 -6 -0.1232 15.2943
-3 -8 -5 -8.0137 8.9463
-3 -8 -4 -1.3806 -10.5880
-3 -8 -3 24.0485 -3.0166
-3 -8 -2 7.0562 -3.7906
-3 -8 -1 -9.3400 -5.1526
-3 -7 -41 10.6443 3.6644
-3 -7 -40 -1.1435 3.5745
-3 -7 -39 2.3740 4.9143
-3 -7 -38 -2.4110 -3.9101
-3 -7 -37 -12.0218 8.3354
-3 -7 -36 -1.6976 4.4167
-3 -7 -35 3.3249 -14.0298
-3 -7 -34 1.4231 2.8353
-3 -7 -33 6.8971 5.9403
-3 -7 -32 5.6595 2.0111
-3 -7 -31 -0.7779 -1.1144
-3 -7 -30 -6.5650 14.1574
-3 -7 -29 -2.0006 -10.1776
-3 -7 -28 -2.1328 -12.6045
-3 -7 -27 10.0239 -1.3883
-3 -7 -26 6.1336 -6.5404
-3 -7 -25 8.6463 -4.1246
-3 -7 -24 -7.4573 -3.9098
-3 -7 -23 -23.4669 -13.3575
-3 -7 -22 -4.9176 -3.7904
-3 -7 -21 0.8853 0.0602
-3 -7 -20 11.3144 1.9096
-3 -7 -19 -0.6155 -4.4867
-3 -7 -18 -10.5367 -17.1619
-3 -7 -17 4.0532 6.8226
-3 -7 -16 4.8562 -10.9904
-3 -7 -15 -6.9349 -2.5762
-3 -7 -14 2.3811 -26.5065
-3 -7 -13 -11.0326 5.0442
-3 -7 -12 15.1743 -9.3130
-3 -7 -11 16.4647 -1.2346
-3 -7 -10 -16.1184 16.8504
-3 -7 -9 5.2417 5.7590
-3 -7 -8 0.7472 -27.7873
-3 -7 -7 -20.1650 30.2989
-3 -7 -6 -0.2456 -9.5633
-3 -7 -5 27.7104 -14.9032
-3 -7 -4 -23.6298 1.8484
-3 -7 -3 0.2764 -2.0199
-3 -7 -2 9.1810 -7.2208
-3 -7 -1 1.5827 22.5726
-3 -6 -42 4.3040 -1.4363
-3 -6 -41 5.7218 -1.4233
-3 -6 -40 6.6740 5.0330
-3 -6 -39 -6.4175 6.1945
-3 -6 -38 3.1143 0.8171
-3 -6 -37 -7.3712 -1.1727
-3 -6 -36 2.2427 -9.5463
-3 -6 -35 1.3663 -9.2875
-3 -6 -34 1.2676 5.1559
-3 -6 -33 -1.7230 6.5997
-3 -6 -32 1.2236 1.2887
-3 -6 -31 6.4384 -2.8997
-3 -6 -30 -4.1872 -3.9851
-3 -6 -29 2.4034 -1.6564
-3 -6 -28 -10.1702 -4.6952
-3 -6 -27 -4.0209 6.2997
-3 -6 -26 -7.7951 13.1210
-3 -6 -25 -0.8253 16.9466
-3 -6 -24 1.0017 5.1166
-3 -6 -23 -7.6327 0.9213
-3 -6 -22 -3.9484 -10.1113
-3 -6 -21 6.6743 -2.3183
-3 -6 -20 -9.0333 6.6610
-3 -6 -19 -11.2534 2.8072
-3 -6 -18 -7.5018 11.7907
-3 -6 -17 -21.6040 -1.6873
-3 -6 -16 -2.0944 -10.7048
-3 -6 -15 0.6502 0.7245
-3 -6 -14 11.5508 -5.6628
-3 -6 -13 -21.6244 -8.5584
-3 -6 -12 20.4698 13.4873
-3 -6 -11 -1.6187 -6.4388
-3 -6 -10 10.7397 7.8468
-3 -6 -9 5.2486 5.3117
-3 -6 -8 -18.2718 -11.6384
-3 -6 -7 -19.6034 13.3605
-3 -6 -6 23.7397 -11.8910
-3 -6 -5 -11.1465 -25.0879
-3 -6 -4 13.4289 -3.5934
-3 -6 -3 -11.7638 24.4013
-3 -6 -2 -1.1263 -11.0071
-3 -6 -1 1.9957 2.3694
-3 -5 -43 1.6157 -8.1611
-3 -5 -42 -2.8197 1.7101
-3 -5 -41 5.2386 -2.0938
-3 -5 -40 -2.0931 -4.6095
-3 -5 -39 3.7715 0.9350
-3 -5 -38 -12.0455 12.2584
-3 -5 -37 1.2836 -8.0093
-3 -5 -36 -2.2739 -5.6202
-3 -5 -35 3.1175 5.9896
-3 -5 -34 11.1890 1.2981
-3 -5 -33 0.6240 -12.1510
-3 -5 -32 -13.4585 3.9254
-3 -5 -31 -7.0095 -4.7658
-3 -5 -30 5.5240 -3.7737
-3 -5 -29 12.2774 16.0125
-3 -5 -28 16.9486 12.3630
-3 -5 -27 5.3605 3.6863
-3 -5 -26 4.0110 -8.6961
-3 -5 -25 -8.6585 -2.1939
-3 -5 -24 -7.2327 -1.7918
-3 -5 -23 5.2646 8.6495
-3 -5 -22 6.3810 14.0850
-3 -5 -21 7.2763 2.5848
-3 -5 -20 5.3338 -0.8049
-3 -5 -19 -1.6178 22.3658
-3 -5 -18 1.3459 14.4025
-3 -5 -17 6.0295 -12.2869
-3 -5 -16 -24.0404 -12.1752
-3 -5 -15 -8.3826 -6.8273
-3 -5 -14 20.5274 12.3397
-3 -5 -13 14.3497 -2.6668
-3 -5 -12 -12.4885 5.7765
-3 -5 -11 -11.9610 -17.3884
-3 -5 -10 -1.1662 11.5919
-3 -5 -9 5.3146 4.2072
-3 -5 -8 -29.5180 25.6878
-3 -5 -7 -4.3878 -10.8505
-3 -5 -6 4.2784 -22.6656
-3 -5 -5 -19.2965 15.5385
-3 -5 -4 16.7790 19.3682
-3 -5 -3 3.4492 -19.7579
-3 -5 -2 -32.2133 28.3616
-3 -5 -1 -26.2934 -36.2217
-3 -4 -44 -3.6279 -2.4418
-3 -4 -43 0.8520 -0.7087
-3 -4 -42 -3.7237 1.9414
-3 -4 -41 -4.2371 1.3229
-3 -4 -40 1.0614 3.0928
-3 -4 -39 4.6233 0.3979
-3 -4 -38 -2.2189 -7.4271
-3 -4 -37 3.6871 5.2696
-3 -4 -36 -6.5484 -13.1492
-3 -4 -35 -6.3987 11.7250
-3 -4 -34 6.9549 2.3988
-3 -4 -33 2.8815 1.5838
-3 -4 -32 4.4189 0.2032
-3 -4 -31 8.5605 -3.3538
-3 -4 -30 5.5232 -13.2386
-3 -4 -29 4.2091 -11.0675
-3 -4 -28 1.3445 4.5893
-3 -4 -27 -3.8917 8.3746
-3 -4 -26 -3.4391 13.5853
-3 -4 -25 -3.9311 -9.5767
-3 -4 -24 9.7790 -13.0661
-3 -4 -23 19.0570 -11.0097
-3 -4 -22 4.4282 -2.5267
-3 -4 -21 -4.9264 3.5166
-3 -4 -20 -0.0356 -5.0913
-3 -4 -19 7.7533 4.2434
-3 -4 -18 1.2451 0.7887
-3 -4 -17 -4.8920 6.7575
-3 -4 -16 8.6645 -7.6097
-3 -4 -15 -2.0609 3.4968
-3 -4 -14 -2.0023 -0.8076
-3 -4 -13 21.5229 11.7187
-3 -4 -12 -1.9675 6.0795
-3 -4 -11 -0.4847 13.2595
-3 -4 -10 6.7176 11.5727
-3 -4 -9 2.0092 0.8263
-3 -4 -8 -6.7500 2.3516
-3 -4 -7 35.1628 3.3754
-3 -4 -6 -26.7277 -26.5705
-3 -4 -5 -16.9751 27.8255
-3 -4 -4 24.7696 33.2007
-3 -4 -3 -11.7835 -10.5364
-3 -4 -2 -14.4505 2.7183
-3 -4 -1 45.8855 17.9820
-3 -3 -44 -7.2841 7.8632
-3 -3 -43 4.4036 1.2000
-3 -3 -42 8.7578 4.0020
-3 -3 -41 -1.5447 -2.7389
-3 -3 -40 -6.5877 4.7864
-3 -3 -39 -2.3218 -4.7744
-3 -3 -38 -0.7295 -9.0953
-3 -3 -37 6.5828 2.5109
-3 -3 -36 12.2974 -0.8494
-3 -3 -35 -4.3112 -11.3051
-3 -3 -34 1.5101 -16.0286
-3 -3 -33 -13.6194 -6.4793
-3 -3 -32 3.9526 -0.2114
-3 -3 -31 -2.3115 1.7459
-3 -3 -30 -1.4577 10.8135
-3 -3 -29 -1.7169 -11.4089
-3 -3 -28 7.3845 -1.4743
-3 -3 -27 -1.6657 -0.1940
-3 -3 -26 -12.0520 6.4667
-3 -3 -25 -5.3028 -5.3075
-3 -3 -24 -16.0405 -4.5845
-3 -3 -23 3.8575 -4.6083
-3 -3 -22 9.4286 -7.8592
-3 -3 -21 -3.2567 2.8074
-3 -3 -20 -3.9902 1.1857
-3 -3 -19 11.9481 -16.7900
-3 -3 -18 0.1035 -29.6886
-3 -3 -17 -15.9809 10.1162
-3 -3 -16 21.8897 16.5506
-3 -3 -15 24.6854 -19.0111
-3 -3 -14 3.9240 -3.6344
-3 -3 -13 -22.2459 -16.5241
-3 -3 -12 15.4826 -12.6411
-3 -3 -11 12.5143 22.6216
-3 -3 -10 -5.1876 11.6982
-3 -3 -9 -15.8257 -27.3430
-3 -3 -8 -12.4314 -5.6523
-3 -3 -7 16.7959 27.8959
-3 -3 -6 23.1691 8.0427
-3 -3 -5 -4.2335 16.1590
-3 -3 -4 3.1361 -40.5464
-3 -3 -3 -21.3995 -39.2062
-3 -3 -2 -2.7335 -24.0296
-3 -3 -1 -0.3472 -19.6011
-3 -2 -45 4.4991 0.4540
-3 -2 -44 0.0363 -3.5633
-3 -2 -43 11.0098 -3.0478
-3 -2 -42 -8.9344 -0.2633
-3 -2 -41 8.4247 -0.5709
-3 -2 -40 -17.1209 1.5512
-3 -2 -39 -8.3684 -5.0977
-3 -2 -38 -11.2157 -7.4393
-3 -2 -37 -10.9354 -6.4596
-3 -2 -36 -5.0115 7.9090
-3 -2 -35 4.0770 11.5671
-3 -2 -34 -6.6037 -0.5869
-3 -2 -33 -1.0286 0.3612
-3 -2 -32 13.3283 9.5718
-3 -2 -31 0.0757 -5.8926
-3 -2 -30 -4.0232 3.2784
-3 -2 -29 -5.8608 7.6910
-3 -2 -28 -4.3839 9.9319
-3 -2 -27 15.4026 -3.1482
-3 -2 -26 -11.0671 7.3484
-3 -2 -25 12.9791 -7.5519
-3 -2 -24 -18.3992 -0.5751
-3 -2 -23 -21.3403 8.7785
-3 -2 -22 -8.1187 -13.7339
-3 -2 -21 -1.9763 -11.6929
-3 -2 -20 -10.3416 4.0472
-3 -2 -19 -6.7435 5.5007
-3 -2 -18 -1.6757 -15.3019
-3 -2 -17 -3.8825 -13.9512
-3 -2 -16 10.9809 -12.3980
-3 -2 -15 -11.3382 7.7951
-3 -2 -14 -23.9084 7.5197
-3 -2 -13 9.5328 11.8139
-3 -2 -12 3.5581 5.8572
-3 -2 -11 17.4259 -14.7360
-3 -2 -10 -4.2503 14.3858
-3 -2 -9 11.9349 11.2639
-3 -2 -8 0.4547 -19.2265
-3 -2 -7 -11.5854 -3.4310
-3 -2 -6 -13.1262 17.2275
-3 -2 -5 -28.1080 23.9675
-3 -2 -4 -45.7071 -5.8672
-3 -2 -3 -41.3251 -1.8515
-3 -2 -2 33.6259 41.9674
-3 -2 -1 12.9879 -10.4486
-3 -1 -45 -10.0342 -2.7712
-3 -1 -44 7.3253 2.4967
-3 -1 -43 -5.0638 -2.4229
-3 -1 -42 -5.6427 5.8570
-3 -1 -41 -1.2860 22.6175
-3 -1 -40 -1.9721 -1.4966
-3 -1 -39 0.6069 21.3347
-3 -1 -38 7.4167 -2.8171
-3 -1 -37 9.4699 -6.2435
-3 -1 -36 -2.5582 -11.3213
-3 -1 -35 11.8707 -1.1480
-3 -1 -34 11.0613 -0.1796
-3 -1 -33 -5.4645 7.2644
-3 -1 -32 2.9441 -4.4111
-3 -1 -31 6.8427 -0.6852
-3 -1 -30 3.2896 1.2668
-3 -1 -29 4.1781 2.0975
-3 -1 -28 -2.3908 15.1920
-3 -1 -27 -10.5081 -12.4301
-3 -1 -26 -12.4485 0.8440
-3 -1 -25 8.9544 36.6050
-3 -1 -24 -4.9997 -2.6767
-3 -1 -23 2.9829 22.9834
-3 -1 -22 -22.9608 -5.8797
-3 -1 -21 -2.4599 -9.0482
-3 -1 -20 12.2293 -8.4259
-3 -1 -19 -19.4706 13.7948
-3 -1 -18 -16.3290 12.8755
-3 -1 -17 15.0220 -1.3314
-3 -1 -16 18.9105 -7.7803
-3 -1 -15 -11.4504 3.4532
-3 -1 -14 13.6308 9.4453
-3 -1 -13 -1.4354 -7.2631
-3 -1 -12 17.3271 -4.5755
-3 -1 -11 -17.0044 -6.3342
-3 -1 -10 -8.0372 -28.3156
-3 -1 -9 19.1651 49.5828
-3 -1 -8 31.0273 24.7394
-3 -1 -7 9.5493 22.5489
-3 -1 -6 -7.7429 19.5748
-3 -1 -5 -0.5351 8.9145
-3 -1 -4 38.2879 -0.6385
-3 -1 -3 -4.0667 6.2835
-3 -1 -2 -5.1639 -12.7777
-3 -1 -1 27.4133 -39.6157
-2 -18 -1 3.1151 -9.9979
-2 -17 -15 -15.1520 -9.8333
-2 -17 -14 -3.5837 18.3358
-2 -17 -13 2.9011 10.3017
-2 -17 -12 -9.3346 -10.6592
-2 -17 -11 -0.9133 -2.3257
-2 -17 -10 6.0683 -2.3781
-2 -17 -9 -12.5508 -5.8570
-2 -17 -8 -5.8159 8.2052
-2 -17 -7 6.5712 -4.8368
-2 -17 -6 6.9657 -4.8654
-2 -17 -5 -4.2984 0.9697
-2 -17 -4 -4.5905 -11.3612
-2 -17 -3 -5.9114 6.1880
-2 -17 -2 -0.0430 4.6832
-2 -17 -1 0.2101 -6.6930
-2 -16 -20 -8.8645 2.7271
-2 -16 -19 2.1019 4.5981
-2 -16 -18 1.4436 -7.3852
-2 -16 -17 5.0215 3.0265
-2 -16 -16 7.6417 -4.0204
-2 -16 -15 -2.5648 18.7255
-2 -16 -14 -13.7344 1.7124
-2 -16 -13 0.3394 -1.6074
-2 -16 -12 -10.7092 14.7075
-2 -16 -11 -3.5631 17.7204
-2 -16 -10 4.2389 4.2327
-2 -16 -9 -3.4095 -7.6104
-2 -16 -8 1.7834 -1.2909
-2 -16 -7 4.3568 5.1830
-2 -16 -6 -8.9552 2.4306
-2 -16 -5 2.5986 -2.9590
-2 -16 -4 -1.2276 -0.0339
-2 -16 -3 -2.6025 -2.8852
-2 -16 -2 6.7380 5.4048
-2 -16 -1 -8.9305 2.0089
-2 -15 -25 4.3118 7.3211
-2 -15 -24 1.6428 -8.2827
-2 -15 -23 1.7130 -12.7147
-2 -15 -22 8.6992 -0.4932
-2 -15 -21 -1.5404 4.2343
-2 -15 -20 -12.4216 -5.1402
-2 -15 -19 -5.2588 2.6438
-2 -15 -18 15.1155 4.5613
-2 -15 -17 -4.2326 1.5734
-2 -15 -16 5.8747 13.5216
-2 -15 -15 15.7537 26.1380
-2 -15 -14 25.7085 8.4217
-2 -15 -13 0.1120 -10.4858
-2 -15 -12 20.1591 6.0058
-2 -15 -11 -0.3619 12.5660
-2 -15 -10 -15.9769 -5.6799
-2 -15 -9 7.9234 0.6146
-2 -15 -8 -1.1426 -0.2635
-2 -15 -7 -8.8107 -3.5163
-2 -15 -6 -6.9296 4.0297
-2 -15 -5 -3.1375 6.8524
-2 -15 -4 0.3177 -9.8465
-2 -15 -3 7.7544 -0.4155
-2 -15 -2 1.6675 -1.5771
-2 -15 -1 -9.1656 2.9368
-2 -14 -28 1.7745 0.2441
-2 -14 -27 9.8776 2.7648
-2 -14 -26 -13.1479 -2.8821
-2 -14 -25 -2.5315 -16.2359
-2 -14 -24 -2.5756 6.0969
-2 -14 -23 -6.0101 8.5814
-2 -14 -22 2.1265 6.9956
-2 -14 -21 13.4440 0.6386
-2 -14 -20 16.4796 -2.8411
-2 -14 -19 2.7765 -3.5458
-2 -14 -18 14.4470 -8.2214
-2 -14 -17 23.5555 -17.3071
-2 -14 -16 2.6996 -10.0647
-2 -14 -15 7.4669 -22.0103
-2 -14 -14 10.4469 -8.9976
-2 -14 -13 -1.8665 7.9990
-2 -14 -12 2.5663 12.4734
-2 -14 -11 13.8748 -12.8450
-2 -14 -10 -6.7083 15.3734
-2 -14 -9 -7.1647 18.3196
-2 -14 -8 5.7999 1.6457
-2 -14 -7 -3.3142 6.9137
-2 -14 -6 -3.3800 -7.0812
-2 -14 -5 -1.2065 -3.6803
-2 -14 -4 3.0659 -3.8969
-2 -14 -3 -1.7491 7.5021
-2 -14 -2 5.8566 -0.9071
-2 -14 -1 4.5496 -4.8300
-2 -13 -31 6.7263 -5.2959
-2 -13 -30 2.0546 -9.4618
-2 -13 -29 -3.6605 -0.4948
-2 -13 -28 -18.3481 -1.7555
-2 -13 -27 -4.3417 8.9426
-2 -13 -26 8.7775 -1.9354
-2 -13 -25 1.0950 -3.5729
-2 -13 -24 2.8557 -12.7091
-2 -13 -23 16.1586 0.5443
-2 -13 -22 -15.6576 -18.3749
-2 -13 -21 -4.9951 -17.0729
-2 -13 -20 -2.2898 -5.9270
-2 -13 -19 -10.0542 -7.6947
-2 -13 -18 -17.0000 -2.5248
-2 -13 -17 -1.7927 -8.5460
-2 -13 -16 2.1495 -9.2353
-2 -13 -15 -3.6106 -7.9516
-2 -13 -14 4.2794 -10.7048
-2 -13 -13 11.7907 9.0737
-2 -13 -12 5.8727 1.3721
-2 -13 -11 14.1448 -9.2716
-2 -13 -10 13.7573 2.7429
-2 -13 -9 -2.8805 8.2482
-2 -13 -8 -16.2034 -0.1057
-2 -13 -7 -2.0588 1.6378
-2 -13 -6 -1.1196 -3.3666
-2 -13 -5 -4.5971 -11.9309
-2 -13 -4 5.4777 1.6678
-2 -13 -3 -8.2275 6.3542
-2 -13 -2 -2.0702 -0.6458
-2 -13 -1 3.7353 -5.9134
-2 -12 -34 -3.3479 -4.0580
-2 -12 -33 -4.2348 -8.3101
-2 -12 -32 -8.4728 -1.7057
-2 -12 -31 -9.6741 11.7778
-2 -12 -30 0.1314 11.1795
-2 -12 -29 4.8802 5.1242
-2 -12 -28 -4.5623 -3.7895
-2 -12 -27 -21.4945 -5.3611
-2 -12 -26 0.7156 -6.3426
-2 -12 -25 -9.2014 3.8778
-2 -12 -24 -8.1416 1.9109
-2 -12 -23 -3.8143 -4.9758
-2 -12 -22 7.3324 3.3859
-2 -12 -21 -13.8856 17.5315
-2 -12 -20 -3.0750 -5.0428
-2 -12 -19 3.9825 -6.6058
-2 -12 -18 -4.5509 -2.7993
-2 -12 -17 -12.4208 1.3860
-2 -12 -16 -7.4722 -9.1182
-2 -12 -15 7.4748 0.4654
-2 -12 -14 -5.6779 -2.6652
-2 -12 -13 0.6642 -26.3982
-2 -12 -12 4.3614 -3.7409
-2 -12 -11 -12.8092 17.8530
-2 -12 -10 0.2089 12.2740
-2 -12 -9 8.0462 -2.0252
-2 -12 -8 -8.3420 9.6271
-2 -12 -7 -8.8124 2.0564
-2 -12 -6 2.0630 -4.6745
-2 -12 -5 8.2643 8.5305
-2 -12 -4 -1.4561 3.2078
-2 -12 -3 4.6322 -10.5045
-2 -12 -2 -0.1109 -15.1800
-2 -12 -1 -15.6966 -2.6756
-2 -11 -36 -5.7460 3.7264
-2 -11 -35 2.9310 14.6569
-2 -11 -34 -0.5467 3.5236
-2 -11 -33 1.4301 3.6401
-2 -11 -32 7.6320 -0.7943
-2 -11 -31 2.7581 5.3502
-2 -11 -30 -7.1015 11.7858
-2 -11 -29 -4.8168 12.2756
-2 -11 -28 5.7626 5.7628
-2 -11 -27 -0.8595 2.0493
-2 -11 -26 -11.6639 0.3701
-2 -11 -25 3.2212 -9.8250
-2 -11 -24 0.6788 1.2042
-2 -11 -23 -5.0667 -10.5462
-2 -11 -22 4.7318 7.8408
-2 -11 -21 -2.5692 8.2369
-2 -11 -20 -17.1895 4.3047
-2 -11 -19 -2.0863 -7.1985
-2 -11 -18 7.9620 -2.8327
-2 -11 -17 -2.0824 4.6934
-2 -11 -16 -12.4213 11.2407
-2 -11 -15 -4.3873 8.2079
-2 -11 -14 2.3745 -3.8128
-2 -11 -13 5.4074 6.9349
-2 -11 -12 14.3608 1.3047
-2 -11 -11 10.4227 14.1255
-2 -11 -10 -13.3220 3.0546
-2 -11 -9 9.7903 -2.3343
-2 -11 -8 1.3695 -1.5652
-2 -11 -7 2.9270 -8.4458
-2 -11 -6 -3.5104 6.1599
-2 -11 -5 -7.1276 8.3132
-2 -11 -4 -13.0440 -4.7039
-2 -11 -3 -6.4944 12.9881
-2 -11 -2 -4.3301 -0.3477
-2 -11 -1 -8.3091 -0.8525
-2 -10 -38 5.5163 0.7308
-2 -10 -37 5.4345 -0.9701
-2 -10 -36 5.8573 3.4847
-2 -10 -35 4.8614 -4.7702
-2 -10 -34 -1.0224 -0.1525
-2 -10 -33 -1.7527 6.5607
-2 -10 -32 9.9635 7.1469
-2 -10 -31 13.6770 -2.1477
-2 -10 -30 8.7387 -2.2417
-2 -10 -29 -10.8285 2.4329
-2 -10 -28 -7.4539 4.1933
-2 -10 -27 1.7077 5.0666
-2 -10 -26 -8.2160 8.8550
-2 -10 -25 -7.2090 -0.6422
-2 -10 -24 2.6680 -14.9074
-2 -10 -23 9.4106 17.5355
-2 -10 -22 -4.1392 10.1375
-2 -10 -21 6.1678 -13.4986
-2 -10 -20 -9.8603 0.3384
-2 -10 -19 -5.0401 9.5193
-2 -10 -18 9.1830 -3.7176
-2 -10 -17 20.8354 2.9314
-2 -10 -16 10.7677 0.9761
-2 -10 -15 -4.3890 -5.4747
-2 -10 -14 5.1896 -18.5337
-2 -10 -13 4.6499 13.2910
-2 -10 -12 9.8279 6.8672
-2 -10 -11 5.2658 -15.8227
-2 -10 -10 -0.8270 1.9674
-2 -10 -9 -16.6306 9.5421
-2 -10 -8 17.1577 -14.1181
-2 -10 -7 11.7982 17.4667
-2 -10 -6 2.0209 9.1160
-2 -10 -5 19.0082 4.9415
-2 -10 -4 -2.6620 -5.0450
-2 -10 -3 -9.3317 -0.0496
-2 -10 -2 3.1579 -7.8067
-2 -10 -1 -4.1892 -12.3401
-2 -9 -39 -1.6821 -4.3202
-2 -9 -38 -3.3742 -11.2039
-2 -9 -37 3.8793 4.7133
-2 -9 -36 5.2742 -0.1963
-2 -9 -35 -0.5514 -2.7616
-2 -9 -34 4.4154 2.2375
-2 -9 -33 8.2109 -4.8698
-2 -9 -32 -9.2857 -5.6268
-2 -9 -31 2.0060 2.7060
-2 -9 -30 3.2565 2.8468
-2 -9 -29 6.9588 2.4540
-2 -9 -28 -0.7124 7.1476
-2 -9 -27 1.3773 -1.4884
-2 -9 -26 -2.6205 0.2340
-2 -9 -25 1.4265 1.5468
-2 -9 -24 0.0368 -3.9283
-2 -9 -23 -5.1704 6.5327
-2 -9 -22 3.8312 4.0530
-2 -9 -21 -2.9425 -4.9322
-2 -9 -20 6.1240 -8.2103
-2 -9 -19 9.1930 -0.7072
-2 -9 -18 -14.0681 -8.4106
-2 -9 -17 -1.5782 -2.0198
-2 -9 -16 9.2913 -13.6035
-2 -9 -15 -1.5185 -6.0845
-2 -9 -14 1.6562 7.8086
-2 -9 -13 -5.6885 -6.0124
-2 -9 -12 1.0608 -4.4071
-2 -9 -11 -7.3095 -6.4681
-2 -9 -10 8.5337 -6.1300
-2 -9 -9 5.7269 -7.5781
-2 -9 -8 -4.3777 -11.2529
-2 -9 -7 7.0567 -12.3680
-2 -9 -6 3.8224 1.0290
-2 -9 -5 -15.8553 -7.7325
-2 -9 -4 1.9533 9.2867
-2 -9 -3 -15.4449 9.9821
-2 -9 -2 3.0946 -23.7099
-2 -9 -1 18.1625 -9.8491
-2 -8 -41 -4.1543 6.4308
-2 -8 -40 2.1396 -0.7576
-2 -8 -39 3.3250 -6.7521
-2 -8 -38 -4.2405 2.0780
-2 -8 -37 -1.9021 -0.3186
-2 -8 -36 9.8915 -11.2673
-2 -8 -35 -6.1971 3.4258
-2 -8 -34 3.1670 9.8295
-2 -8 -33 -1.6183 -8.5043
-2 -8 -32 -4.9101 -1.7348
-2 -8 -31 -4.7107 5.3212
-2 -8 -30 2.3150 -6.1892
-2 -8 -29 5.4120 0.6964
-2 -8 -28 3.7325 -0.1580
-2 -8 -27 -3.0936 5.2918
-2 -8 -26 -0.3047 -6.4317
-2 -8 -25 11.6296 6.3309
-2 -8 -24 -0.5274 1.8587
-2 -8 -23 -4.1132 -7.1168
-2 -8 -22 -1.2325 -13.1037
-2 -8 -21 -3.7428 -0.4984
-2 -8 -20 -0.3611 7.5994
-2 -8 -19 13.7893 -3.8388
-2 -8 -18 -11.8702 -6.0326
-2 -8 -17 -19.8544 10.4087
-2 -8 -16 1.9930 -14.7828
-2 -8 -15 -3.2571 10.6608
-2 -8 -14 7.3661 20.8011
-2 -8 -13 -0.8852 -11.6392
-2 -8 -12 -20.7491 -8.2698
-2 -8 -11 -16.9722 11.6451
-2 -8 -10 -0.1187 -0.4639
-2 -8 -9 5.4254 -17.5837
-2 -8 -8 -10.9099 17.9827
-2 -8 -7 -12.4164 3.7687
-2 -8 -6 18.1107 -13.8584
-2 -8 -5 -9.3740 19.4655
-2 -8 -4 -20.9981 1.9068
-2 -8 -3 12.0434 -16.7154
-2 -8 -2 -8.1005 7.5882
-2 -8 -1 -8.4592 0.5242
-2 -7 -42 0.9667 4.6432
-2 -7 -41 -2.9563 -2.0257
-2 -7 -40 -2.7686 -3.8776
-2 -7 -39 -3.4084 -3.8730
-2 -7 -38 1.8164 5.2697
-2 -7 -37 0.4845 -2.6462
-2 -7 -36 -0.7432 1.9842
-2 -7 -35 0.7439 1.6974
-2 -7 -34 5.4236 5.6560
-2 -7 -33 -6.5343 -2.2530
-2 -7 -32 -3.5163 12.3532
-2 -7 -31 2.8360 -6.1905
-2 -7 -30 -8.2463 -2.1958
-2 -7 -29 5.1257 -7.2087
-2 -7 -28 4.7867 -1.1854
-2 -7 -27 -8.5495 -0.5564
-2 -7 -26 -4.0467 -3.2136
-2 -7 -25 -7.9328 -1.9618
-2 -7 -24 -4.8415 -2.9105
-2 -7 -23 -6.4154 2.5544
-2 -7 -22 8.0154 -9.4035
-2 -7 -21 -4.8517 -0.9062
-2 -7 -20 -2.8444 4.4698
-2 -7 -19 7.2681 13.5097
-2 -7 -18 9.4350 -6.4317
-2 -7 -17 0.7135 11.9330
-2 -7 -16 8.0335 -2.2621
-2 -7 -15 -10.6890 0.6178
-2 -7 -14 19.5369 5.7331
-2 -7 -13 2.5536 -3.9046
-2 -7 -12 -15.9678 22.1346
-2 -7 -11 0.4698 11.6137
-2 -7 -10 1.5137 -9.2104
-2 -7 -9 1.5468 -11.3602
-2 -7 -8 10.1074 3.2532
-2 -7 -7 9.4400 12.6363
-2 -7 -6 -12.7417 16.3378
-2 -7 -5 11.5216 -5.8312
-2 -7 -4 15.6779 6.0518
-2 -7 -3 -10.2079 -12.3394
-2 -7 -2 0.0132 3.4434
-2 -7 -1 -27.6348 20.5325
-2 -6 -43 3.2582 8.0468
-2 -6 -42 -0.0295 0.2305
-2 -6 -41 -0.5480 2.8023
-2 -6 -40 -4.8011 -3.6310
-2 -6 -39 -0.9700 3.6141
-2 -6 -38 6.5642 -4.7822
-2 -6 -37 9.3344 -2.9966
-2 -6 -36 -11.2243 8.3255
-2 -6 -35 5.0050 3.5123
-2 -6 -34 0.5771 -5.0390
-2 -6 -33 2.6297 5.0799
-2 -6 -32 0.1168 11.7806
-2 -6 -31 5.2528 -12.1228
-2 -6 -30 -14.0682 -0.1397
-2 -6 -29 -2.8003 11.5669
-2 -6 -28 -5.6827 -0.6270
-2 -6 -27 8.1886 10.1323
-2 -6 -26 -5.9291 13.7612
-2 -6 -25 -10.0599 -10.2909
-2 -6 -24 -1.8330 -11.0845
-2 -6 -23 -1.0960 5.6091
-2 -6 -22 13.2353 8.7366
-2 -6 -21 2.4727 -14.2674
-2 -6 -20 -1.0241 -5.2684
-2 -6 -19 -13.0627 -10.0196
-2 -6 -18 6.9062 -1.0078
-2 -6 -17 3.1440 3.3376
-2 -6 -16 10.6848 0.5191
-2 -6 -15 -10.9341 -13.5157
-2 -6 -14 15.5946 -0.1876
-2 -6 -13 -1.1379 -0.3207
-2 -6 -12 -3.2922 28.4885
-2 -6 -11 16.5619 -17.9088
-2 -6 -10 -21.3742 -30.0279
-2 -6 -9 -11.3881 8.4451
-2 -6 -8 28.4792 -18.1596
-2 -6 -7 23.1556 -15.6519
-2 -6 -6 -19.2311 11.6035
-2 -6 -5 -5.6645 -2.6554
-2 -6 -4 11.2026 -13.3043
-2 -6 -3 11.4880 42.0680
-2 -6 -2 -3.8584 16.6708
-2 -6 -1 36.9697 -38.4707
-2 -5 -43 12.9330 -6.2134
-2 -5 -42 -6.3507 -0.2306
-2 -5 -41 -1.9948 4.8032
-2 -5 -40 -0.2634 2.7014
-2 -5 -39 -2.3407 -0.9052
-2 -5 -38 5.0868 0.0825
-2 -5 -37 3.7742 2.8644
-2 -5 -36 6.7753 -2.2657
-2 -5 -35 -3.8738 3.9682
-2 -5 -34 -2.3789 -9.3980
-2 -5 -33 -5.2115 5.2894
-2 -5 -32 2.1014 -3.5013
-2 -5 -31 8.6577 9.0750
-2 -5 -30 1.8578 2.7574
-2 -5 -29 4.8131 8.0297
-2 -5 -28 -4.5977 -1.3432
-2 -5 -27 -0.6283 -1.1238
-2 -5 -26 -3.4814 -1.5410
-2 -5 -25 0.5028 7.0335
-2 -5 -24 -8.5074 -6.3009
-2 -5 -23 6.0762 -6.7889
-2 -5 -22 -7.5919 6.0748
-2 -5 -21 -4.3715 10.1924
-2 -5 -20 -2.1144 16.7305
-2 -5 -19 3.2677 -14.4987
-2 -5 -18 -17.1608 -5.3555
-2 -5 -17 7.0089 -5.6515
-2 -5 -16 1.4637 -5.7151
-2 -5 -15 -0.7057 -4.6486
-2 -5 -14 -2.2879 13.6854
-2 -5 -13 -12.1944 2.7083
-2 -5 -12 -18.3559 13.8764
-2 -5 -11 9.3084 -20.0688
-2 -5 -10 -37.8058 -17.6075
-2 -5 -9 -12.2927 13.2564
-2 -5 -8 8.9991 6.5621
-2 -5 -7 -4.0081 -8.9968
-2 -5 -6 28.7890 -14.3843
-2 -5 -5 17.3545 13.0716
-2 -5 -4 -19.1539 2.2731
-2 -5 -3 -23.4468 -18.6840
-2 -5 -2 -1.9002 -3.4300
-2 -5 -1 -14.3542 21.6590
-2 -4 -44 -3.3067 0.7303
-2 -4 -43 6.7389 2.4977
-2 -4 -42 -3.2477 -8.8915
-2 -4 -41 9.7468 11.4641
-2 -4 -40 6.2158 -5.0457
-2 -4 -39 3.1337 -4.1263
-2 -4 -38 -10.3344 -2.9811
-2 -4 -37 -5.0247 6.9424
-2 -4 -36 9.8963 -1.9375
-2 -4 -35 2.0937 5.5830
-2 -4 -34 0.2148 13.8551
-2 -4 -33 -2.6148 -14.4429
-2 -4 -32 8.0962 -11.6636
-2 -4 -31 -4.7994 5.1029
-2 -4 -30 12.4300 7.4707
-2 -4 -29 -3.6135 1.7500
-2 -4 -28 -0.8504 1.4814
-2 -4 -27 -7.8639 -2.8952
-2 -4 -26 -1.7951 -10.0362
-2 -4 -25 6.2103 11.2462
-2 -4 -24 6.1528 5.4461
-2 -4 -23 16.2240 5.4306
-2 -4 -22 4.8595 -19.6274
-2 -4 -21 -14.6414 17.0225
-2 -4 -20 -3.4016 5.3324
-2 -4 -19 7.1224 10.4254
-2 -4 -18 -22.7188 -6.5848
-2 -4 -17 -2.1896 3.4077
-2 -4 -16 9.9977 -14.4015
-2 -4 -15 15.3441 33.5856
-2 -4 -14 7.9462 24.1088
-2 -4 -13 -7.8857 -3.0588
-2 -4 -12 -22.3896 -7.1840
-2 -4 -11 -15.6831 16.8972
-2 -4 -10 16.8283 6.7416
-2 -4 -9 44.6094 2.2013
-2 -4 -8 -23.2524 -45.3637
-2 -4 -7 -21.4056 3.7346
-2 -4 -6 14.4442 2.8323
-2 -4 -5 7.5371 21.9670
-2 -4 -4 8.9210 48.6563
-2 -4 -3 6.6787 -13.5110
-2 -4 -2 14.3181 -33.1408
-2 -4 -1 21.2774 7.7149
-2 -3 -45 2.2323 -1.3011
-2 -3 -44 -2.2760 3.2843
-2 -3 -43 -1.8301 -5.5062
-2 -3 -42 1.6731 1.3253
-2 -3 -41 -3.3492 -1.6327
-2 -3 -40 6.7850 -2.1314
-2 -3 -39 0.6779 6.0393
-2 -3 -38 3.0690 -7.2719
-2 -3 -37 -1.9132 -2.8610
-2 -3 -36 4.3998 -2.2468
-2 -3 -35 -10.2166 -5.7882
-2 -3 -34 -1.0738 4.1141
-2 -3 -33 -2.3885 4.9549
-2 -3 -32 -4.1666 -3.6160
-2 -3 -31 -1.5666 -9.4776
-2 -3 -30 1.5205 7.0536
-2 -3 -29 -4.4325 -2.1935
-2 -3 -28 1.2108 8.6311
-2 -3 -27 -1.1735 -1.3948
-2 -3 -26 -0.9657 -0.1203
-2 -3 -25 10.4591 -18.7515
-2 -3 -24 3.6098 -10.1834
-2 -3 -23 -4.5842 17.6757
-2 -3 -22 12.5720 15.0134
-2 -3 -21 -0.1179 7.2086
-2 -3 -20 13.0357 -6.3273
-2 -3 -19 -9.3160 -4.8800
-2 -3 -18 14.0153 6.1831
-2 -3 -17 -7.4230 1.6626
-2 -3 -16 23.9974 -17.5671
-2 -3 -15 -4.8002 2.4415
-2 -3 -14 12.1509 17.8427
-2 -3 -13 -15.2009 12.4613
-2 -3 -12 2.0069 -20.8384
-2 -3 -11 -19.3806 -26.1366
-2 -3 -10 -4.2630 13.7301
-2 -3 -9 4.2093 -0.7773
-2 -3 -8 8.1165 -23.5672
-2 -3 -7 0.7374 22.8006
-2 -3 -6 53.9313 -8.9628
-2 -3 -5 -32.7894 -34.6532
-2 -3 -4 8.9976 -43.2963
-2 -3 -3 16.7954 -3.5398
-2 -3 -2 -22.7322 21.2759
-2 -3 -1 10.1302 -4.0892
-2 -2 -45 3.7759 -8.1130
-2 -2 -44 11.3040 2.2861
-2 -2 -43 -0.7507 -1.4969
-2 -2 -42 -2.6314 3.5308
-2 -2 -41 -0.0032 -8.7682
-2 -2 -40 -18.5542 -4.1708
-2 -2 -39 -5.3681 5.0750
-2 -2 -38 7.9179 11.8557
-2 -2 -37 3.5290 7.6425
-2 -2 -36 -3.1532 8.4906
-2 -2 -35 -1.1703 3.3821
-2 -2 -34 -3.9571 -0.1013
-2 -2 -33 0.2517 3.7983
-2 -2 -32 3.5655 19.0870
-2 -2 -31 -4.3302 -5.3450
-2 -2 -30 -0.1708 -7.3874
-2 -2 -29 11.4300 -9.8984
-2 -2 -28 4.5265 3.6876
-2 -2 -27 -2.8090 -11.2714
-2 -2 -26 -14.6586 10.1616
-2 -2 -25 13.8514 -12.5255
-2 -2 -24 16.3746 -26.1726
-2 -2 -23 3.4865 10.2259
-2 -2 -22 -3.9719 7.1278
-2 -2 -21 6.7916 -7.5098
-2 -2 -20 -9.4871 -6.8779
-2 -2 -19 -11.9720 -1.5390
-2 -2 -18 7.5614 0.1771
-2 -2 -17 14.1103 -5.5558
-2 -2 -16 -6.1828 27.0494
-2 -2 -15 -1.1968 -19.1303
-2 -2 -14 -11.9645 5.2663
-2 -2 -13 -27.5315 4.4076
-2 -2 -12 7.5612 42.8116
-2 -2 -11 28.6046 -31.2870
-2 -2 -10 -13.4560 -12.4082
-2 -2 -9 -34.3877 -24.5139
-2 -2 -8 -10.5587 -5.4484
-2 -2 -7 -9.4289 11.1415
-2 -2 -6 -21.3617 11.0975
-2 -2 -5 -38.8017 -52.2961
-2 -2 -4 -3.6240 15.2228
-2 -2 -3 18.0934 -31.7058
-2 -2 -2 42.9066 23.1345
-2 -2 -1 -21.7127 7.0579
-2 -1 -45 -1.5048 2.0890
-2 -1 -44 -5.9378 0.4306
-2 -1 -43 7.7084 1.9656
-2 -1 -42 -9.2482 20.0102
-2 -1 -41 9.9859 8.5993
-2 -1 -40 5.1582 -5.7314
-2 -1 -39 12.2069 -6.7079
-2 -1 -38 14.2042 -3.5252
-2 -1 -37 11.2361 4.3189
-2 -1 -36 -4.7577 3.2102
-2 -1 -35 -1.4529 10.0414
-2 -1 -34 9.7438 -2.1926
-2 -1 -33 -1.8153 -3.1352
-2 -1 -32 -7.8866 -6.6617
-2 -1 -31 -4.3816 -4.5704
-2 -1 -30 -18.1484 -1.5061
-2 -1 -29 -5.7842 -8.8460
-2 -1 -28 -2.4581 3.8632
-2 -1 -27 7.4045 -4.9824
-2 -1 -26 -26.9517 -13.4800
-2 -1 -25 7.7916 2.5573
-2 -1 -24 -10.3453 1.5715
-2 -1 -23 6.4855 2.6393
-2 -1 -22 14.3104 1.0739
-2 -1 -21 -12.6659 2.4391
-2 -1 -20 -5.0899 -2.5637
-2 -1 -19 -5.6365 22.5153
-2 -1 -18 19.6407 -13.9925
-2 -1 -17 3.4678 -13.2928
-2 -1 -16 -5.8667 16.2241
-2 -1 -15 4.8448 53.2612
-2 -1 -14 -3.6799 -16.8991
-2 -1 -13 7.9674 -40.1750
-2 -1 -12 -18.8715 3.9413
-2 -1 -11 12.1576 39.7563
-2 -1 -10 -51.3210 16.2012
-2 -1 -9 19.8250 26.6314
-2 -1 -8 2.0853 33.7724
-2 -1 -7 -9.6386 -2.6592
-2 -1 -6 -32.8287 -6.4049
-2 -1 -5 -0.3221 2.0468
-2 -1 -4 -11.9858 12.6686
-2 -1 -3 32.0595 -1.5888
-2 -1 -2 -23.7089 3.3140
-2 -1 -1 25.6384 7.1656
-1 -18 -4 14.9259 -8.2933
-1 -18 -3 -12.2082 -9.4498
-1 -18 -2 -5.7989 -2.2692
-1 -18 -1 7.4597 2.5867
-1 -17 -15 -2.7484 9.5754
-1 -17 -14 -13.3226 -10.1233
-1 -17 -13 -9.8167 1.9065
-1 -17 -12 4.3011 -16.9974
-1 -17 -11 -6.6126 0.7301
-1 -17 -10 12.7972 4.5447
-1 -17 -9 8.2419 3.3129
-1 -17 -8 1.0440 -0.6749
-1 -17 -7 2.8436 -6.1652
-1 -17 -6 -4.6157 -6.5742
-1 -17 -5 -16.4585 16.6869
-1 -17 -4 -6.1268 -8.2268
-1 -17 -3 15.5670 -12.1409
-1 -17 -2 5.0169 11.4803
-1 -17 -1 -0.7803 -7.8888
-1 -16 -21 -3.9487 1.4640
-1 -16 -20 -12.0288 1.6575
-1 -16 -19 8.9132 6.4715
-1 -16 -18 11.1766 -3.0098
-1 -16 -17 -20.3431 -18.3958
-1 -16 -16 14.0718 27.0580
-1 -16 -15 -23.3122 1.2489
-1 -16 -14 -19.6546 7.1186
-1 -16 -13 6.4392 -1.8666
-1 -16 -12 21.0814 -12.8704
-1 -16 -11 -9.0450 -22.3502
-1 -16 -10 11.7398 8.8267
-1 -16 -9 -3.3497 5.6712
-1 -16 -8 2.0169 6.1938
-1 -16 -7 3.1595 3.2856
-1 -16 -6 -0.7289 -3.5919
-1 -16 -5 -7.1041 -7.6315
-1 -16 -4 2.2903 -1.3623
-1 -16 -3 -5.8210 0.1610
-1 -16 -2 13.5663 1.7393
-1 -16 -1 -5.5824 16.9470
-1 -15 -25 5.1396 8.9407
-1 -15 -24 14.9610 -3.5075
-1 -15 -23 -2.3051 0.9689
-1 -15 -22 -6.9185 6.0313
-1 -15 -21 0.5716 7.3040
-1 -15 -20 -1.7086 -1.1583
-1 -15 -19 -6.8953 6.7803
-1 -15 -18 15.8527 8.3173
-1 -15 -17 1.5954 30.4071
-1 -15 -16 -5.5804 14.8416
-1 -15 -15 18.4954 -23.7558
-1 -15 -14 -18.3786 10.0051
-1 -15 -13 -10.8849 -20.4516
-1 -15 -12 -5.4131 -6.5195
-1 -15 -11 9.2554 -1.0269
-1 -15 -10 1.6059 -2.4437
-1 -15 -9 8.9404 -14.1937
-1 -15 -8 -9.3774 7.3426
-1 -15 -7 -14.4118 -1.8470
-1 -15 -6 -2.6849 4.1667
-1 -15 -5 8.6745 -9.6845
-1 -15 -4 13.6628 3.8910
-1 -15 -3 6.0783 14.4182
-1 -15 -2 -7.6945 10.2253
-1 -15 -1 -8.2689 -2.2873
-1 -14 -29 -0.8101 -7.9764
-1 -14 -28 -1.8346 -9.4246
-1 -14 -27 11.0016 1.3259
-1 -14 -26 -11.8280 -6.8958
-1 -14 -25 -1.2409 6.6600
-1 -14 -24 17.2259 8.0719
-1 -14 -23 -7.1495 -0.8700
-1 -14 -22 8.2510 1.0988
-1 -14 -21 15.8684 5.3553
-1 -14 -20 19.8663 -6.7937
-1 -14 -19 12.8761 -14.6806
-1 -14 -18 5.8246 2.9947
-1 -14 -17 1.0001 -3.1873
-1 -14 -16 -9.5322 8.2776
-1 -14 -15 -16.8756 -3.4532
-1 -14 -14 4.5390 -0.5572
-1 -14 -13 -1.9631 6.2458
-1 -14 -12 -33.2627 -5.8468
-1 -14 -11 13.6269 11.8778
-1 -14 -10 -10.3789 0.4473
-1 -14 -9 -6.5887 -0.2315
-1 -14 -8 4.8632 4.3040
-1 -14 -7 0.8543 1.3055
-1 -14 -6 -0.0555 -17.3780
-1 -14 -5 27.1887 -12.1613
-1 -14 -4 6.4995 5.2278
-1 -14 -3 8.1287 8.9275
-1 -14 -2 -6.5290 10.6327
-1 -14 -1 0.7967 -0.7346
-1 -13 -32 1.8420 -5.8609
-1 -13 -31 -3.1480 -4.4364
-1 -13 -30 -6.3080 -8.1842
-1 -13 -29 -3.8392 5.1252
-1 -13 -28 -2.8511 0.1085
-1 -13 -27 8.0169 -7.3745
-1 -13 -26 14.3631 6.1153
-1 -13 -25 -1.1630 5.7758
-1 -13 -24 -5.6289 -12.3590
-1 -13 -23 0.8813 -10.5639
-1 -13 -22 -1.5029 -11.8311
-1 -13 -21 -10.4204 -22.2054
-1 -13 -20 -6.0497 6.6596
-1 -13 -19 -0.7498 7.2185
-1 -13 -18 -6.0878 8.6526
-1 -13 -17 8.8364 -2.6249
-1 -13 -16 5.2451 -5.9019
-1 -13 -15 -7.8628 23.0120
-1 -13 -14 -10.1097 9.1158
-1 -13 -13 30.8827 -1.6826
-1 -13 -12 5.3809 18.6490
-1 -13 -11 -10.1467 2.9338
-1 -13 -10 5.0233 -17.4572
-1 -13 -9 -13.7999 14.7939
-1 -13 -8 -12.6397 -21.9620
-1 -13 -7 7.1851 -23.0117
-1 -13 -6 -0.7050 -2.2510
-1 -13 -5 -1.7491 9.4701
-1 -13 -4 10.5662 -1.5528
-1 -13 -3 2.5831 6.2724
-1 -13 -2 -8.8246 -11.7149
-1 -13 -1 -5.1567 0.4102
-1 -12 -34 -5.1465 -5.3418
-1 -12 -33 -5.0598 10.6609
-1 -12 -32 -1.8242 3.7976
-1 -12 -31 -4.5033 -2.3089
-1 -12 -30 -5.8962 -4.6453
-1 -12 -29 1.4913 5.5122
-1 -12 -28 12.4487 -7.8017
-1 -12 -27 -0.4749 -4.8958
-1 -12 -26 7.1310 -0.8397
-1 -12 -25 1.1459 10.3964
-1 -12 -24 -27.9671 1.4302
-1 -12 -23 -0.4141 8.4945
-1 -12 -22 13.4121 2.0786
-1 -12 -21 -2.3445 -0.2369
-1 -12 -20 0.7617 5.3928
-1 -12 -19 11.5438 1.1908
-1 -12 -18 -11.2031 -15.4742
-1 -12 -17 7.8311 3.6808
-1 -12 -16 10.0345 -3.8567
-1 -12 -15 9.2223 -8.0675
-1 -12 -14 5.7757 -3.9574
-1 -12 -13 -6.7057 -3.3573
-1 -12 -12 8.0666 -12.0847
-1 -12 -11 -12.6813 21.0223
-1 -12 -10 -22.9322 11.0158
-1 -12 -9 -4.7400 1.1365
-1 -12 -8 4.3727 -6.9398
-1 -12 -7 6.4041 -13.9433
-1 -12 -6 17.7098 -4.7962
-1 -12 -5 -4.7461 13.9876
-1 -12 -4 -11.6359 -0.3780
-1 -12 -3 -12.3992 -1.4146
-1 -12 -2 4.2609 1.5316
-1 -12 -1 -8.5859 -0.5145
-1 -11 -36 2.7628 -1.1148
-1 -11 -35 10.8732 8.4527
-1 -11 -34 6.5756 8.8330
-1 -11 -33 -5.2483 0.2269
-1 -11 -32 -2.5277 4.5884
-1 -11 -31 2.9333 -0.8892
-1 -11 -30 3.1246 -6.5602
-1 -11 -29 -3.3883 -13.7149
-1 -11 -28 7.2095 -11.2250
-1 -11 -27 -2.9119 6.4731
-1 -11 -26 3.9670 10.4013
-1 -11 -25 6.2791 -11.1672
-1 -11 -24 9.0380 -0.2898
-1 -11 -23 -14.1718 3.4980
-1 -11 -22 5.1495 -13.8762
-1 -11 -21 -1.9619 10.5305
-1 -11 -20 -7.6464 4.0821
-1 -11 -19 -5.0743 -14.6401
-1 -11 -18 -1.3317 -7.7991
-1 -11 -17 -14.4565 12.1252
-1 -11 -16 -2.3903 -8.2467
-1 -11 -15 -3.4813 -4.3210
-1 -11 -14 8.6818 1.2785
-1 -11 -13 -8.0075 20.6800
-1 -11 -12 3.3718 6.1155
-1 -11 -11 10.0468 -2.8982
-1 -11 -10 -0.5600 5.1040
-1 -11 -9 -17.8163 -31.1057
-1 -11 -8 -1.2225 -10.7519
-1 -11 -7 -6.3025 22.6034
-1 -11 -6 8.2090 6.8020
-1 -11 -5 8.9988 6.7183
-1 -11 -4 -1.1615 2.3041
-1 -11 -3 -12.7908 3.1513
-1 -11 -2 5.2734 -2.9791
-1 -11 -1 1.8591 -6.8399
-1 -10 -38 8.2800 3.6265
-1 -10 -37 14.8592 -9.6844
-1 -10 -36 1.7854 -15.2405
-1 -10 -35 2.1452 3.5388
-1 -10 -34 7.3585 4.2371
-1 -10 -33 -9.3375 -5.1627
-1 -10 -32 -8.6217 -3.5316
-1 -10 -31 -1.4931 -2.1334
-1 -10 -30 -8.1437 -4.6638
-1 -10 -29 1.2319 -1.4304
-1 -10 -28 -3.5531 -0.1899
-1 -10 -27 0.5736 -1.4092
-1 -10 -26 -8.2225 6.3804
-1 -10 -25 -6.8098 -3.0644
-1 -10 -24 10.6862 2.6386
-1 -10 -23 9.7656 0.9727
-1 -10 -22 -15.0738 13.4836
-1 -10 -21 -4.5979 -0.4043
-1 -10 -20 5.0521 4.3646
-1 -10 -19 -7.9742 3.5402
-1 -10 -18 2.3033 12.7885
-1 -10 -17 4.0552 3.6867
-1 -10 -16 0.7409 -5.2134
-1 -10 -15 3.4805 -2.5480
-1 -10 -14 15.1290 -0.9168
-1 -10 -13 -6.9813 -8.5016
-1 -10 -12 -13.9814 22.5197
-1 -10 -11 -19.8903 0.9775
-1 -10 -10 8.2926 -5.2589
-1 -10 -9 12.1252 -1.4704
-1 -10 -8 6.2369 7.0413
-1 -10 -7 14.1991 -2.0210
-1 -10 -6 -7.5170 -1.1290
-1 -10 -5 -9.5747 -8.1658
-1 -10 -4 8.0861 8.8817
-1 -10 -3 -9.2690 0.3298
-1 -10 -2 18.5591 3.7138
-1 -10 -1 2.2804 -14.2482
-1 -9 -39 -7.3990 -7.4514
-1 -9 -38 -8.0113 0.6091
-1 -9 -37 8.6930 -13.5051
-1 -9 -36 -4.6762 11.0592
-1 -9 -35 -4.1283 9.2644
-1 -9 -34 -0.7557 -1.7617
-1 -9 -33 -2.1785 -0.2528
-1 -9 -32 -3.1757 5.7467
-1 -9 -31 0.6439 -8.4905
-1 -9 -30 -0.1611 5.3855
-1 -9 -29 5.7488 13.0268
-1 -9 -28 6.7181 7.9244
-1 -9 -27 2.5108 0.8641
-1 -9 -26 -0.9228 -17.5311
-1 -9 -25 -4.2815 5.4103
-1 -9 -24 -1.4232 3.2312
-1 -9 -23 21.9667 -0.9852
-1 -9 -22 0.9555 16.4165
-1 -9 -21 -0.1564 2.5337
-1 -9 -20 1.5891 -14.9542
-1 -9 -19 8.0757 11.5877
-1 -9 -18 -2.6721 -2.6597
-1 -9 -17 1.1806 -18.3271
-1 -9 -16 -4.6073 -1.7985
-1 -9 -15 -7.3594 15.9138
-1 -9 -14 9.9364 9.3507
-1 -9 -13 11.4790 -0.3310
-1 -9 -12 -1.8346 3.3586
-1 -9 -11 -0.9821 -14.9352
-1 -9 -10 -12.3496 -14.3478
-1 -9 -9 4.0718 2.7235
-1 -9 -8 0.4834 22.1614
-1 -9 -7 15.4278 -10.1406
-1 -9 -6 -8.2441 2.6792
-1 -9 -5 -11.6782 5.7992
-1 -9 -4 2.4211 -14.7870
-1 -9 -3 3.6658 -12.4347
-1 -9 -2 -17.6024 16.6417
-1 -9 -1 18.0118 8.7382
-1 -8 -41 -4.4608 2.0465
-1 -8 -40 -0.3056 2.3446
-1 -8 -39 3.3104 -3.1210
-1 -8 -38 8.5514 -11.3276
-1 -8 -37 3.0063 3.5219
-1 -8 -36 -0.7741 4.2377
-1 -8 -35 5.5788 7.5144
-1 -8 -34 -17.5520 -5.1143
-1 -8 -33 2.9371 -2.5031
-1 -8 -32 12.9006 -8.6433
-1 -8 -31 9.3895 -6.4775
-1 -8 -30 2.9868 -4.8088
-1 -8 -29 8.8497 4.2926
-1 -8 -28 -16.8394 -1.0338
-1 -8 -27 -0.9996 6.4996
-1 -8 -26 4.7502 -1.7530
-1 -8 -25 5.6601 -8.4234
-1 -8 -24 11.9823 -9.3997
-1 -8 -23 -1.4430 -2.2575
-1 -8 -22 3.6013 -9.2708
-1 -8 -21 3.8082 14.8484
-1 -8 -20 -23.8816 -0.3529
-1 -8 -19 -6.4479 3.8977
-1 -8 -18 10.4211 -11.1598
-1 -8 -17 -6.8780 1.9893
-1 -8 -16 19.3715 3.9705
-1 -8 -15 0.0368 -3.0764
-1 -8 -14 -15.7062 -1.6638
-1 -8 -13 -7.1596 3.5513
-1 -8 -12 7.2536 -3.7666
-1 -8 -11 8.9027 -1.4259
-1 -8 -10 2.2884 4.9251
-1 -8 -9 4.8216 3.7247
-1 -8 -8 1.8787 -13.5970
-1 -8 -7 -1.7287 3.7777
-1 -8 -6 -20.9301 5.8514
-1 -8 -5 9.8509 26.8461
-1 -8 -4 1.0969 -11.1356
-1 -8 -3 32.3461 -26.0730
-1 -8 -2 30.0073 -23.1272
-1 -8 -1 14.9120 -11.5318
-1 -7 -42 3.4652 -9.7258
-1 -7 -41 -10.5700 -2.2651
-1 -7 -40 -5.5686 -7.3746
-1 -7 -39 -1.7977 -4.5019
-1 -7 -38 2.5935 -2.4937
-1 -7 -37 1.8854 10.0071
-1 -7 -36 6.1347 7.7086
-1 -7 -35 -6.4042 -9.8978
-1 -7 -34 -12.9490 -6.3969
-1 -7 -33 -14.5254 -4.2165
-1 -7 -32 3.5770 -16.0264
-1 -7 -31 8.9685 8.7100
-1 -7 -30 8.9995 12.5318
-1 -7 -29 1.0597 -2.7439
-1 -7 -28 -1.5478 -10.0381
-1 -7 -27 -15.9696 5.2364
-1 -7 -26 -2.1182 -17.0488
-1 -7 -25 -0.0097 2.4816
-1 -7 -24 4.2891 -2.8859
-1 -7 -23 -4.0321 9.9812
-1 -7 -22 7.8222 14.3033
-1 -7 -21 6.0019 8.4294
-1 -7 -20 4.0737 4.5877
-1 -7 -19 -19.8890 -4.4095
-1 -7 -18 7.3110 -25.9728
-1 -7 -17 -9.6655 17.3019
-1 -7 -16 16.3776 24.3991
-1 -7 -15 7.4052 -24.3427
-1 -7 -14 -14.9424 7.1021
-1 -7 -13 -10.9649 -10.0014
-1 -7 -12 8.6078 -19.2615
-1 -7 -11 -1.1518 2.8478
-1 -7 -10 2.4396 15.5687
-1 -7 -9 6.9910 -0.1921
-1 -7 -8 14.2970 0.8671
-1 -7 -7 -12.9219 11.2345
-1 -7 -6 -3.7009 -13.8046
-1 -7 -5 -7.4117 -28.8608
-1 -7 -4 -22.9441 -31.4504
-1 -7 -3 -45.1435 12.9544
-1 -7 -2 16.9634 -10.5689
-1 -7 -1 14.4216 18.1743
-1 -6 -43 -7.7219 1.7138
-1 -6 -42 -10.2105 -2.1349
-1 -6 -41 4.5924 2.3899
-1 -6 -40 1.6550 -5.7903
-1 -6 -39 2.5638 -3.7917
-1 -6 -38 0.7205 7.1002
-1 -6 -37 -4.4491 3.3962
-1 -6 -36 -7.0193 4.0732
-1 -6 -35 -8.2683 7.9776
-1 -6 -34 2.9547 -0.3122
-1 -6 -33 11.9038 -11.4390
-1 -6 -32 -0.9894 -9.6386
-1 -6 -31 1.9633 -5.3405
-1 -6 -30 2.6503 5.5515
-1 -6 -29 -14.4222 11.9853
-1 -6 -28 -5.1093 5.7036
-1 -6 -27 5.9220 -4.3917
-1 -6 -26 3.0212 -6.2626
-1 -6 -25 6.4125 -8.5167
-1 -6 -24 30.4831 1.1162
-1 -6 -23 -6.7634 -3.8160
-1 -6 -22 -0.8844 8.2874
-1 -6 -21 -9.5346 1.4115
-1 -6 -20 -3.0132 -3.3564
-1 -6 -19 14.7990 0.8728
-1 -6 -18 6.9728 8.0545
-1 -6 -17 -9.6502 -10.9597
-1 -6 -16 7.1365 11.3976
-1 -6 -15 -18.7075 -8.8010
-1 -6 -14 -13.8016 12.7436
-1 -6 -13 22.4816 3.7987
-1 -6 -12 -18.1966 -3.4999
-1 -6 -11 14.4002 -8.8920
-1 -6 -10 23.7597 -16.1657
-1 -6 -9 -3.0066 -4.9317
-1 -6 -8 -25.9519 30.9562
-1 -6 -7 -21.3427 20.5426
-1 -6 -6 -14.8188 29.5950
-1 -6 -5 -1.4981 -8.3627
-1 -6 -4 11.9420 -8.6315
-1 -6 -3 -3.3580 6.7264
-1 -6 -2 -1.5148 14.9231
-1 -6 -1 -29.3968 -31.9144
-1 -5 -44 4.4701 1.7621
-1 -5 -43 -7.8093 -0.4689
-1 -5 -42 -10.7307 -1.3294
-1 -5 -41 -2.5692 1.9533
-1 -5 -40 11.9286 -7.3376
-1 -5 -39 2.9170 16.4824
-1 -5 -38 9.8686 4.3349
-1 -5 -37 -1.0931 0.0143
-1 -5 -36 -13.3490 -12.8031
-1 -5 -35 -11.7802 -5.8516
-1 -5 -34 1.8675 -4.8704
-1 -5 -33 3.1540 -4.0041
-1 -5 -32 2.3541 9.3810
-1 -5 -31 -0.0628 10.7981
-1 -5 -30 5.4814 -8.2156
-1 -5 -29 -0.9581 -0.5981
-1 -5 -28 -11.0000 3.2732
-1 -5 -27 -3.4156 -28.8690
-1 -5 -26 2.0573 -12.4687
-1 -5 -25 -6.5340 12.5956
-1 -5 -24 6.3979 3.4420
-1 -5 -23 13.4506 7.9236
-1 -5 -22 -2.6480 13.8534
-1 -5 -21 -1.3449 -32.9385
-1 -5 -20 -5.5423 -10.7576
-1 -5 -19 2.6850 7.1177
-1 -5 -18 18.2206 7.2932
-1 -5 -17 8.9289 13.9958
-1 -5 -16 -12.2029 -10.6343
-1 -5 -15 -8.0793 -4.8320
-1 -5 -14 8.5062 18.5117
-1 -5 -13 25.9448 -25.9444
-1 -5 -12 -32.2556 -13.5696
-1 -5 -11 -13.1747 18.2542
-1 -5 -10 30.4214 -13.0337
-1 -5 -9 25.6614 42.0056
-1 -5 -8 21.0238 30.1930
-1 -5 -7 12.6931 -12.8982
-1 -5 -6 -17.8134 -18.6146
-1 -5 -5 -14.1014 14.8034
-1 -5 -4 -11.6358 6.2455
-1 -5 -3 30.4956 2.8834
-1 -5 -2 -2.6225 10.6589
-1 -5 -1 0.2180 -9.5361
-1 -4 -44 -6.4142 -0.4610
-1 -4 -43 5.9426 1.3276
-1 -4 -42 4.5867 0.6327
-1 -4 -41 4.0297 -14.5681
-1 -4 -40 4.5215 -0.0232
-1 -4 -39 -4.1580 -0.2997
-1 -4 -38 -0.9029 6.9687
-1 -4 -37 -18.9210 5.6233
-1 -4 -36 3.1281 8.6119
-1 -4 -35 -3.7669 -10.4230
-1 -4 -34 7.0773 -7.4214
-1 -4 -33 6.3195 -2.1169
-1 -4 -32 2.7836 -0.5218
-1 -4 -31 -3.6659 7.9303
-1 -4 -30 -11.5095 13.4004
-1 -4 -29 -17.8637 -11.9295
-1 -4 -28 1.3104 -3.6662
-1 -4 -27 10.7919 7.5614
-1 -4 -26 2.2700 -4.6945
-1 -4 -25 22.5082 -8.9916
-1 -4 -24 -12.6471 -4.2157
-1 -4 -23 -24.6040 -7.0505
-1 -4 -22 2.0580 4.8855
-1 -4 -21 -4.2307 2.8758
-1 -4 -20 -5.7837 -15.0916
-1 -4 -19 26.2748 -10.5624
-1 -4 -18 -7.6577 -8.7305
-1 -4 -17 -6.8993 2.8796
-1 -4 -16 9.4795 6.5611
-1 -4 -15 -26.3159 -6.9595
-1 -4 -14 2.4947 2.0091
-1 -4 -13 10.7878 -2.2591
-1 -4 -12 -0.6071 -22.3261
-1 -4 -11 45.7101 -11.3087
-1 -4 -10 3.9030 -16.3734
-1 -4 -9 -15.8439 -5.1554
-1 -4 -8 25.3408 0.6820
-1 -4 -7 -11.3523 9.9665
-1 -4 -6 2.9304 7.7655
-1 -4 -5 -2.5109 -8.2902
-1 -4 -4 8.2217 14.7887
-1 -4 -3 -7.1877 -15.4185
-1 -4 -2 5.5907 -51.8326
-1 -4 -1 14.9335 51.7860
-1 -3 -45 -1.4120 -4.4720
-1 -3 -44 -9.8798 -4.3567
-1 -3 -43 -8.4599 -1.3909
-1 -3 -42 11.4697 -5.3949
-1 -3 -41 3.7178 1.4008
-1 -3 -40 -12.4144 9.3926
-1 -3 -39 9.7108 0.6823
-1 -3 -38 -7.1104 -4.0646
-1 -3 -37 -4.1740 1.6307
-1 -3 -36 -0.3253 5.4323
-1 -3 -35 3.1349 -13.6816
-1 -3 -34 -10.0118 3.3813
-1 -3 -33 2.9085 -0.4291
-1 -3 -32 10.4352 6.9318
-1 -3 -31 -1.4046 12.8196
-1 -3 -30 -3.1220 6.8712
-1 -3 -29 -1.4663 -13.1217
-1 -3 -28 -12.3551 -13.6416
-1 -3 -27 5.4064 -7.6857
-1 -3 -26 -6.6072 22.2586
-1 -3 -25 -6.2103 11.2852
-1 -3 -24 -1.6851 -5.8774
-1 -3 -23 -2.5478 11.5225
-1 -3 -22 -7.0904 -21.1845
-1 -3 -21 -10.9107 -8.6976
-1 -3 -20 -14.4790 18.3665
-1 -3 -19 5.0219 -6.9891
-1 -3 -18 7.0437 -17.7885
-1 -3 -17 -27.9147 29.3012
-1 -3 -16 11.5479 -2.2401
-1 -3 -15 27.3652 -12.5675
-1 -3 -14 -36.3689 -13.4569
-1 -3 -13 -53.4941 -36.3748
-1 -3 -12 4.2281 4.1108
-1 -3 -11 24.4440 9.7186
-1 -3 -10 3.9117 -8.6144
-1 -3 -9 -2.6527 14.0030
-1 -3 -8 -12.7412 -38.1104
-1 -3 -7 -16.8362 6.8232
-1 -3 -6 31.7863 35.6113
-1 -3 -5 2.3327 -30.9792
-1 -3 -4 -33.9826 4.3791
-1 -3 -3 18.8521 -12.6555
-1 -3 -2 -13.5782 3.3269
-1 -3 -1 -30.1694 9.8384
-1 -2 -45 0.1696 2.9759
-1 -2 -44 -2.7873 -4.7215
-1 -2 -43 -1.3911 -1.9876
-1 -2 -42 -0.3606 -2.2360
-1 -2 -41 1.7551 -0.7300
-1 -2 -40 -5.2357 11.6865
-1 -2 -39 3.5686 9.0065
-1 -2 -38 -8.0692 -7.3079
-1 -2 -37 3.2539 2.0055
-1 -2 -36 2.1005 -5.7204
-1 -2 -35 -1.1095 6.1776
-1 -2 -34 5.3259 -5.5012
-1 -2 -33 8.8895 0.6850
-1 -2 -32 0.6768 2.5521
-1 -2 -31 1.6258 -2.3517
-1 -2 -30 -3.1835 -1.6657
-1 -2 -29 -1.8035 2.5152
-1 -2 -28 8.4854 15.4384
-1 -2 -27 11.7290 4.8896
-1 -2 -26 -10.6589 -19.6465
-1 -2 -25 2.3533 14.9462
-1 -2 -24 -27.6836 5.7838
-1 -2 -23 2.0958 18.9393
-1 -2 -22 0.8760 7.9523
-1 -2 -21 -9.0795 -13.6945
-1 -2 -20 9.3883 -7.3140
-1 -2 -19 -3.9769 24.1114
-1 -2 -18 -10.6914 0.8158
-1 -2 -17 -8.4569 -12.1598
-1 -2 -16 -3.5005 24.7574
-1 -2 -15 -32.4024 13.7754
-1 -2 -14 11.5520 20.0141
-1 -2 -13 -3.0709 13.1983
-1 -2 -12 6.6426 -23.1073
-1 -2 -11 2.3216 -29.9796
-1 -2 -10 -26.9747 23.2566
-1 -2 -9 2.7796 34.2373
-1 -2 -8 11.7457 -10.2206
-1 -2 -7 -36.2081 -27.9792
-1 -2 -6 34.7063 1.5193
-1 -2 -5 -2.4690 2.8537
-1 -2 -4 -22.0598 8.3901
-1 -2 -3 37.6424 20.9509
-1 -2 -2 -14.5815 41.8626
-1 -2 -1 -2.3835 -2.1636
-1 -1 -45 -4.9319 3.8263
-1 -1 -44 -2.3949 3.3171
-1 -1 -43 4.9784 1.1033
-1 -1 -42 1.0814 -0.3924
-1 -1 -41 -0.7072 1.6353
-1 -1 -40 6.2257 -0.9047
-1 -1 -39 4.0439 3.3374
-1 -1 -38 -3.9093 -0.8211
-1 -1 -37 -3.0053 4.5071
-1 -1 -36 -8.5293 -21.3389
-1 -1 -35 -3.8829 1.3513
-1 -1 -34 13.2213 -0.9032
-1 -1 -33 -5.5372 -9.1867
-1 -1 -32 -5.8084 2.8677
-1 -1 -31 -1.8332 -6.3533
-1 -1 -30 11.8376 -12.9510
-1 -1 -29 1.0871 3.7816
-1 -1 -28 -4.2211 20.4167
-1 -1 -27 11.4840 8.6123
-1 -1 -26 -6.3974 4.8979
-1 -1 -25 0.7634 17.4394
-1 -1 -24 37.7633 -8.3563
-1 -1 -23 -23.5912 20.4240
-1 -1 -22 -14.1428 -12.2777
-1 -1 -21 4.1778 23.8557
-1 -1 -20 21.8002 -11.5242
-1 -1 -19 2.5513 12.1930
-1 -1 -18 8.4820 28.7985
-1 -1 -17 19.8713 -0.5278
-1 -1 -16 23.6238 -7.5416
-1 -1 -15 -17.3426 -6.2427
-1 -1 -14 -20.3565 11.3406
-1 -1 -13 35.1941 -10.7571
-1 -1 -12 4.0645 34.3124
-1 -1 -11 -13.1863 -12.6240
-1 -1 -10 -4.4041 7.8596
-1 -1 -9 -17.8607 11.1142
-1 -1 -8 9.2026 -6.5159
-1 -1 -7 18.9500 -5.4196
-1 -1 -6 -34.9105 -11.4245
-1 -1 -5 22.5652 -36.3312
-1 -1 -4 59.1501 38.6338
-1 -1 -3 -26.1840 5.9139
-1 -1 -2 -66.6779 -14.7691
-1 -1 -1 -0.6364 -5.0353
0 0 4 -7.5142 10.6070
0 0 6 62.6656 9.6846
0 0 8 50.2005 5.9731
0 0 10 -26.9698 10.2210
0 0 12 10.3316 9.4524
0 0 14 0.5835 -24.2326
0 0 16 -16.4341 -6.6702
0 0 18 -27.6749 3.2907
0 0 20 21.0032 -0.2645
0 0 22 18.7979 7.6952
0 0 24 3.2062 6.0581
0 0 26 27.0690 5.3026
0 0 28 -27.6099 -10.0252
0 0 30 27.2511 -6.3575
0 0 32 -2.9601 -0.2383
0 0 34 1.9239 -4.6510
0 0 36 18.6187 5.3605
0 0 38 -6.0788 7.6978
0 0 40 -11.9092 1.9906
0 0 42 7.8093 -4.9816
0 0 44 5.1832 -0.4579
0 0 46 1.6862 4.0687
0 1 3 -10.1106 -80.9498
0 1 4 6.8116 -17.0694
0 1 5 8.3599 -46.2815
0 1 6 -7.1737 -26.9353
0 1 7 5.8311 30.3176
0 1 8 7.9354 36.1087
0 1 9 8.5300 -42.8308
0 1 10 -3.8216 39.0050
0 1 11 -10.2798 -59.8020
0 1 12 -15.0963 -22.2868
0 1 13 0.7323 63.8087
0 1 14 -2.3013 9.9043
0 1 15 11.8698 -48.2049
0 1 16 10.1340 -3.1218
0 1 17 -14.6212 33.0575
0 1 18 4.4841 -11.6187
0 1 19 1.1315 -5.1521
0 1 20 -4.7322 -30.1216
0 1 21 2.2262 8.3737
0 1 22 8.7946 9.7509
0 1 23 3.6747 -17.0779
0 1 24 -0.7835 10.3966
0 1 25 -1.5692 -17.0451
0 1 26 -13.1104 22.7107
0 1 27 -1.5497 0.7598
0 1 28 -1.6755 -7.9351
0 1 29 6.6013 -9.5291
0 1 30 6.0539 -9.9908
0 1 31 -10.0888 -11.5464
0 1 32 1.6146 3.4245
0 1 33 1.0893 4.9478
0 1 34 -2.8813 -10.0840
0 1 35 4.6776 0.4832
0 1 36 6.9519 1.4358
0 1 37 -2.9793 -1.7972
0 1 38 1.8209 17.4174
0 1 39 -0.1855 0.3631
0 1 40 -8.9458 10.5721
0 1 41 2.6156 -7.2239
0 1 42 -0.5515 -10.1677
0 1 43 4.1997 9.9477
0 1 44 3.7170 11.7932
0 1 45 -6.7448 -11.7209
0 1 46 -1.1227 -0.3229
0 2 0 -42.1828 12.2628
0 2 1 -71.6100 8.2884
0 2 2 22.0628 -11.5366
0 2 3 27.0330 7.9285
0 2 4 -90.2149 3.3869
0 2 5 67.8954 -11.1071
0 2 6 -47.3881 -2.5893
0 2 7 20.3858 1.1257
0 2 8 21.3538 -4.2436
0 2 9 -58.7330 12.0673
0 2 10 -39.9564 14.9694
0 2 11 74.6128 -3.7583
0 2 12 -27.6808 -15.4103
0 2 13 6.5086 -10.6394
0 2 14 -7.8606 5.6775
0 2 15 -6.7066 10.6603
0 2 16 -7.6550 -6.4885
0 2 17 -1.7949 5.4692
0 2 18 -12.0870 2.0766
0 2 19 -9.6706 -12.9058
0 2 20 -7.6643 4.9059
0 2 21 0.3166 -0.8242
0 2 22 16.2272 -9.3896
0 2 23 -13.8511 10.3798
0 2 24 8.3504 15.7030
0 2 25 21.0413 -3.0117
0 2 26 -33.0995 -7.4750
0 2 27 2.7872 -7.0952
0 2 28 -0.1775 -2.2286
0 2 29 5.4242 7.4877
0 2 30 -11.3879 0.2502
0 2 31 -8.8462 4.9767
0 2 32 2.1629 -1.5474
0 2 33 1.4377 -10.5425
0 2 34 3.3657 5.0652
0 2 35 2.3664 0.0179
0 2 36 -1.8074 -7.5685
0 2 37 6.0899 8.6009
0 2 38 10.1109 6.9420
0 2 39 1.2912 -3.6493
0 2 40 -11.9876 0.3174
0 2 41 15.5185 -5.4684
0 2 42 -0.4652 -3.7715
0 2 43 3.6412 5.0036
0 2 44 5.2199 1.7631
0 2 45 -0.8473 4.4484
0 3 1 6.2740 33.3288
0 3 2 -6.6625 -32.6262
0 3 3 -2.0190 -45.0554
0 3 4 7.0764 47.3493
0 3 5 -15.8609 60.9308
0 3 6 1.6075 -48.5228
0 3 7 23.3480 56.6641
0 3 8 0.5773 -27.1547
0 3 9 -11.8017 10.1694
0 3 10 -8.4133 -11.5999
0 3 11 -9.4803 -1.0809
0 3 12 2.9011 10.4519
0 3 13 12.8654 13.1491
0 3 14 3.9559 -37.0243
0 3 15 0.5401 60.1911
0 3 16 -11.1315 12.9610
0 3 17 -3.1273 6.9095
0 3 18 8.5479 -6.3124
0 3 19 -11.2432 -3.9389
0 3 20 1.8500 -1.8365
0 3 21 18.6242 21.8854
0 3 22 -1.5343 -23.1742
0 3 23 -3.9734 -6.2746
0 3 24 -1.5588 25.7509
0 3 25 -14.2304 2.0618
0 3 26 -1.0167 -12.4409
0 3 27 13.3948 1.6937
0 3 28 3.8405 -6.2184
0 3 29 0.8655 15.7540
0 3 30 -7.5747 3.2573
0 3 31 -4.3220 9.6933
0 3 32 4.6464 -6.1016
0 3 33 -6.3275 -13.2899
0 3 34 3.4288 0.4921
0 3 35 10.6468 2.0601
0 3 36 -4.3462 2.6580
0 3 37 0.9015 4.5950
0 3 38 1.6279 -8.7031
0 3 39 -12.8786 -0.5782
0 3 40 0.6825 -11.2911
0 3 41 8.3005 1.9123
0 3 42 0.5097 -3.4483
0 3 43 3.3668 1.6185
0 3 44 -4.2303 -4.4166
0 3 45 -4.8775 0.4756
0 4 0 -18.1987 0.8123
0 4 1 3.5694 -1.9459
0 4 2 10.6363 7.2131
0 4 3 7.3423 9.3963
0 4 4 29.5723 -15.6308
0 4 5 29.4384 -9.5224
0 4 6 1.4958 8.2668
0 4 7 -38.9428 -2.3573
0 4 8 -15.9563 14.0722
0 4 9 -18.0328 14.8934
0 4 10 65.9634 -21.1050
0 4 11 -33.1741 -10.4402
0 4 12 -1.5723 7.3848
0 4 13 32.9933 -0.7155
0 4 14 20.4309 3.3599
0 4 15 6.0920 4.2184
0 4 16 33.7785 1.5974
0 4 17 -45.9738 4.1632
0 4 18 7.4984 -11.4200
0 4 19 10.8327 -5.8175
0 4 20 8.6138 2.3423
0 4 21 -1.4386 -5.0492
0 4 22 12.2946 15.9261
0 4 23 -13.0697 13.3735
0 4 24 8.6598 -17.6641
0 4 25 -6.8613 -7.9358
0 4 26 -2.5923 3.6035
0 4 27 14.6147 -4.4051
0 4 28 6.3368 7.3450
0 4 29 -3.9327 6.9890
0 4 30 5.2415 -2.9113
0 4 31 -11.3339 0.9558
0 4 32 -3.6750 -6.0236
0 4 33 2.4933 -3.1135
0 4 34 0.5854 0.7280
0 4 35 1.5006 -4.0163
0 4 36 7.7172 11.4139
0 4 37 -1.9591 8.5232
0 4 38 -16.6176 -11.1067
0 4 39 -6.8354 -2.5589
0 4 40 12.1157 -0.9077
0 4 41 -15.2545 -6.1237
0 4 42 8.2631 8.6440
0 4 43 -3.7386 6.2338
0 4 44 -5.7086 -3.0953
0 5 1 4.0923 -22.4863
0 5 2 -11.2229 -20.4140
0 5 3 -6.7932 29.9869
0 5 4 -0.7952 -13.2742
0 5 5 9.2480 -11.0491
0 5 6 20.5961 44.5220
0 5 7 -10.1975 29.8152
0 5 8 -19.6000 -20.0088
0 5 9 6.4558 -13.9613
0 5 10 -2.5621 -4.0210
0 5 11 -3.2637 -36.7985
0 5 12 16.9377 15.7984
0 5 13 -2.3144 -33.2287
0 5 14 -5.3869 -0.7259
0 5 15 7.5855 11.4243
0 5 16 -7.2016 1.3268
0 5 17 -8.4757 -16.0794
0 5 18 -1.6992 13.0057
0 5 19 7.9786 -21.2075
0 5 20 16.3909 4.3891
0 5 21 -5.7982 -10.6620
0 5 22 -12.4944 -0.2657
0 5 23 0.9199 11.5833
0 5 24 -7.9833 -1.5482
0 5 25 2.0255 -27.2657
0 5 26 17.7729 6.3827
0 5 27 -4.5558 9.9068
0 5 28 -5.5711 -0.4841
0 5 29 6.5719 12.7191
0 5 30 -6.9641 0.2241
0 5 31 -5.3627 -9.2232
0 5 32 1.6406 8.7365
0 5 33 3.8685 4.6824
0 5 34 9.5222 -5.1435
0 5 35 -0.8480 6.0588
0 5 36 -5.8781 4.1917
0 5 37 -2.3133 -1.8488
0 5 38 -9.0317 9.8080
0 5 39 3.0293 13.1539
0 5 40 13.0069 -2.4942
0 5 41 -3.1403 -2.5844
0 5 42 -1.3403 9.7786
0 5 43 1.7722 -6.1774
0 5 44 -7.2065 10.2620
0 6 0 -6.1498 23.0275
0 6 1 32.3730 2.7486
0 6 2 9.2458 -10.0681
0 6 3 2.9520 -10.7469
0 6 4 38.5048 -6.8932
0 6 5 -11.7708 11.3213
0 6 6 -1.5573 8.7079
0 6 7 14.7498 3.4674
0 6 8 2.7332 3.8467
0 6 9 -38.3843 -16.8296
0 6 10 -23.4315 -3.4214
0 6 11 -3.2611 12.6768
0 6 12 4.7953 -11.7913
0 6 13 20.2921 -2.0570
0 6 14 -19.1475 19.9024
0 6 15 10.2576 -1.2071
0 6 16 -16.5483 -6.9525
0 6 17 0.1827 -4.0482
0 6 18 4.3387 -10.5677
0 6 19 -3.1217 5.0406
0 6 20 -22.8204 10.6025
0 6 21 10.8172 7.8240
0 6 22 -8.6760 0.4701
0 6 23 -3.8871 -15.6557
0 6 24 8.5826 -2.6938
0 6 25 0.7025 8.4307
0 6 26 4.0622 -7.7664
0 6 27 17.5103 2.6948
0 6 28 3.0971 13.4785
0 6 29 -8.5269 -6.5732
0 6 30 8.6592 -2.3726
0 6 31 2.5258 0.4765
0 6 32 8.0585 -11.1647
0 6 33 7.4088 1.6775
0 6 34 1.9261 9.3627
0 6 35 1.0168 6.0606
0 6 36 7.0762 1.2362
0 6 37 3.6664 -9.3716
0 6 38 12.5361 -3.5174
0 6 39 5.7191 2.1192
0 6 40 -5.2986 -3.6823
0 6 41 -0.2121 6.3365
0 6 42 7.2189 6.7434
0 6 43 -4.9164 -6.2737
0 7 1 -11.5319 -23.8185
0 7 2 -10.8739 -9.5860
0 7 3 19.5549 -12.9358
0 7 4 10.8165 4.5022
0 7 5 -3.7937 -2.7234
0 7 6 -7.0606 13.5454
0 7 7 -6.2246 -6.8623
0 7 8 4.7987 26.4102
0 7 9 -2.8981 15.2074
0 7 10 -6.0732 11.5737
0 7 11 15.4317 -19.1628
0 7 12 3.3993 -13.3853
0 7 13 -6.7965 -5.5211
0 7 14 6.5251 11.8612
0 7 15 -14.0582 21.6116
0 7 16 -13.3981 -22.7784
0 7 17 18.7747 16.2382
0 7 18 10.7466 3.0173
0 7 19 -3.3911 2.3821
0 7 20 -3.2729 6.2827
0 7 21 -7.8890 8.3511
0 7 22 -1.2341 -18.8463
0 7 23 0.0049 -4.1787
0 7 24 0.7435 -8.2899
0 7 25 10.2025 -2.6069
0 7 26 -1.3842 -2.8068
0 7 27 -3.5285 -4.8544
0 7 28 6.6491 -8.7576
0 7 29 -12.2158 -4.1113
0 7 30 -9.9821 -2.3618
0 7 31 15.0591 -5.1571
0 7 32 5.4090 -5.9601
0 7 33 -0.7077 -9.5752
0 7 34 1.9915 0.4110
0 7 35 -8.7351 -4.3025
0 7 36 -5.2457 -2.6619
0 7 37 1.7632 -1.6553
0 7 38 2.9195 1.4434
0 7 39 6.5574 -4.7760
0 7 40 -1.6751 5.0020
0 7 41 -1.6612 9.6516
0 7 42 2.0722 -1.4211
0 8 0 -4.6829 -11.0256
0 8 1 -19.8395 -22.2027
0 8 2 -14.3227 7.1019
0 8 3 15.7803 1.8821
0 8 4 -3.2245 0.6065
0 8 5 21.3599 11.2886
0 8 6 20.4011 -3.0817
0 8 7 12.0245 -3.6424
0 8 8 -22.5149 -0.6712
0 8 9 11.3288 -5.1816
0 8 10 -4.0725 -1.6995
0 8 11 -3.5553 -5.3000
0 8 12 -15.9056 8.1851
0 8 13 17.7588 20.4632
0 8 14 0.7071 -9.6242
0 8 15 7.8591 -16.5411
0 8 16 3.7409 4.8094
0 8 17 -15.5134 -4.7202
0 8 18 15.2143 3.3212
0 8 19 -3.7193 16.7989
0 8 20 -1.5615 -4.6306
0 8 21 -6.4825 -7.5854
0 8 22 -8.5107 0.7936
0 8 23 -8.9884 -2.9090
0 8 24 0.9574 -2.0868
0 8 25 -7.5432 -2.1369
0 8 26 -0.0687 5.7036
0 8 27 -12.0588 12.7185
0 8 28 1.6287 -6.5266
0 8 29 -2.2756 -8.5601
0 8 30 -1.0664 1.7567
0 8 31 -10.5153 -9.1749
0 8 32 -1.8173 4.6420
0 8 33 -2.9351 16.0605
0 8 34 3.9481 -4.0400
0 8 35 1.7630 -5.1657
0 8 36 5.9121 0.5583
0 8 37 8.4452 -5.2083
0 8 38 -3.6071 -0.8340
0 8 39 8.3091 2.1062
0 8 40 8.0834 3.2325
0 8 41 -1.7600 4.6148
0 9 1 -4.3176 2.4247
0 9 2 17.6588 -10.2785
0 9 3 3.4172 -13.3272
0 9 4 -15.1566 -28.0470
0 9 5 6.6068 -1.6871
0 9 6 2.0306 6.5052
0 9 7 -13.6431 11.6074
0 9 8 -0.7913 -2.0502
0 9 9 6.3481 6.9221
0 9 10 9.8438 -15.2888
0 9 11 5.5327 1.2162
0 9 12 -9.4846 4.2818
0 9 13 -5.4083 15.0782
0 9 14 -6.8799 -20.5722
0 9 15 -1.8754 5.3259
0 9 16 19.9639 -1.0248
0 9 17 2.9612 5.7167
0 9 18 -13.7767 -2.3680
0 9 19 5.9053 -0.9047
0 9 20 -1.8943 12.8027
0 9 21 -11.6623 0.5656
0 9 22 5.2822 10.1875
0 9 23 4.4808 11.0115
0 9 24 2.9382 -5.5174
0 9 25 5.8868 -1.2639
0 9 26 -3.9334 3.1599
0 9 27 -6.1973 -4.0694
0 9 28 -7.5321 8.8638
0 9 29 -1.1766 0.6948
0 9 30 15.4299 5.8273
0 9 31 2.5425 -6.5094
0 9 32 -7.4076 5.8726
0 9 33 5.0765 -5.3976
0 9 34 -7.1364 -7.9244
0 9 35 -7.8439 -13.9091
0 9 36 7.1802 0.4854
0 9 37 2.2413 -10.6328
0 9 38 0.0975 1.1715
0 9 39 4.7621 11.7259
0 9 40 -2.5638 -5.8689
0 10 0 -23.8461 -9.9516
0 10 1 1.5270 11.3661
0 10 2 -10.0555 -0.1297
0 10 3 -7.1893 -8.4966
0 10 4 11.8281 14.9161
0 10 5 -5.1851 2.1519
0 10 6 5.8997 -9.2983
0 10 7 -0.6052 3.3080
0 10 8 2.2851 -9.9628
0 10 9 -1.1669 -8.4347
0 10 10 -4.1175 14.8027
0 10 11 3.8305 11.5539
0 10 12 11.7429 -0.7936
0 10 13 -6.0725 -9.9219
0 10 14 -4.8366 -9.2692
0 10 15 -13.5451 6.0955
0 10 16 9.8370 0.0016
0 10 17 7.1241 -0.9540
0 10 18 10.0304 13.1891
0 10 19 -5.6655 -3.9871
0 10 20 8.8176 -7.4745
0 10 21 7.5588 6.6262
0 10 22 -5.2482 -10.1987
0 10 23 -2.7508 -8.4568
0 10 24 -3.0843 13.6465
0 10 25 -10.4641 8.1133
0 10 26 3.8083 -0.7159
0 10 27 9.4736 -3.9090
0 10 28 2.1072 -8.4857
0 10 29 -3.8340 -0.2843
0 10 30 0.6723 0.0575
0 10 31 7.1719 4.0900
0 10 32 -11.2306 10.3737
0 10 33 -9.8125 -5.5262
0 10 34 -9.6922 -4.2343
0 10 35 0.2413 4.9019
0 10 36 2.8643 -8.8796
0 10 37 8.7547 -3.0082
0 10 38 1.4615 8.5470
0 11 1 4.1329 2.6167
0 11 2 4.8599 -11.1035
0 11 3 -6.2047 1.1898
0 11 4 4.8791 0.9698
0 11 5 -4.0747 6.2516
0 11 6 -19.9507 -6.1860
0 11 7 10.4211 -18.1459
0 11 8 18.2714 12.1747
0 11 9 -3.7253 -1.3934
0 11 10 -0.0794 -1.8272
0 11 11 -5.4017 17.4429
0 11 12 -11.2614 -7.5110
0 11 13 3.6777 -1.6542
0 11 14 6.4562 7.5009
0 11 15 4.4748 -2.3097
0 11 16 0.6858 -14.7351
0 11 17 -4.9939 -5.8306
0 11 18 4.4201 7.0699
0 11 19 -4.7233 4.3207
0 11 20 -14.9740 6.8459
0 11 21 10.0126 7.6060
0 11 22 10.6162 -0.6524
0 11 23 -3.4432 9.2997
0 11 24 5.9035 15.1206
0 11 25 -5.0401 -3.4416
0 11 26 -14.0284 -11.0777
0 11 27 3.1014 -2.1783
0 11 28 7.0904 -6.4874
0 11 29 3.2845 -3.4339
0 11 30 1.9735 7.6477
0 11 31 -3.0307 7.2625
0 11 32 0.5520 5.0612
0 11 33 -4.9997 3.2134
0 11 34 -7.2310 -4.3413
0 11 35 8.3690 -5.3925
0 11 36 3.1244 -0.4088
0 12 0 7.1614 -5.0405
0 12 1 -15.6991 -0.5475
0 12 2 -3.1719 1.4413
0 12 3 0.6739 13.1879
0 12 4 -7.6424 3.2575
0 12 5 0.5959 -15.1038
0 12 6 5.5730 -2.1125
0 12 7 -10.6649 -3.5024
0 12 8 7.3523 -2.8187
0 12 9 14.3345 20.0986
0 12 10 -0.7201 3.9610
0 12 11 -5.8210 -15.1673
0 12 12 0.1174 1.4686
0 12 13 -16.1615 -0.4215
0 12 14 4.6499 -5.5805
0 12 15 -1.2521 3.2210
0 12 16 10.2072 3.3699
0 12 17 -1.6018 6.8631
0 12 18 18.6613 1.4687
0 12 19 18.6720 -8.0713
0 12 20 -0.0472 -1.3147
0 12 21 2.1006 -7.0854
0 12 22 28.3137 -2.6638
0 12 23 2.2725 18.7376
0 12 24 -3.1225 2.9723
0 12 25 -9.1296 -10.7337
0 12 26 -14.3451 2.5664
0 12 27 -10.0352 -4.4166
0 12 28 9.6986 -6.4093
0 12 29 7.6159 7.5699
0 12 30 7.0071 3.9909
0 12 31 -3.6835 2.0277
0 12 32 -1.0352 0.0754
0 12 33 3.7491 -3.6085
0 12 34 5.7271 -2.0640
0 13 1 7.0967 13.5115
0 13 2 1.4681 11.3093
0 13 3 -10.7044 -11.8381
0 13 4 -7.1418 -3.9728
0 13 5 -3.4530 -5.3687
0 13 6 13.2213 -0.8312
0 13 7 12.6447 19.5706
0 13 8 -11.0927 -1.4140
0 13 9 -2.0763 -12.9455
0 13 10 2.6453 16.5267
0 13 11 -12.4480 -5.0889
0 13 12 3.9889 16.3799
0 13 13 9.0849 -0.0840
0 13 14 -4.7404 -6.8677
0 13 15 5.6615 -22.5713
0 13 16 4.3862 1.7457
0 13 17 -9.5268 -26.4319
0 13 18 -7.2744 -4.8595
0 13 19 -2.4176 -14.4441
0 13 20 8.9679 -19.3698
0 13 21 9.6225 -13.7017
0 13 22 -4.8494 4.5989
0 13 23 0.3889 6.3658
0 13 24 -2.2789 10.8431
0 13 25 -12.1357 7.7886
0 13 26 7.2204 5.5072
0 13 27 7.8431 -12.2443
0 13 28 -5.0397 -2.3479
0 13 29 4.5608 -2.6418
0 13 30 3.7309 -3.8743
0 13 31 -9.5576 -1.8828
0 13 32 -3.1965 -0.0588
0 14 0 5.0013 8.1296
0 14 1 -10.9056 15.0279
0 14 2 8.1071 -0.8323
0 14 3 -10.9177 -3.4381
0 14 4 4.4848 -9.2921
0 14 5 24.3386 -5.1285
0 14 6 1.5898 5.2261
0 14 7 6.2471 2.7538
0 14 8 3.8213 8.1997
0 14 9 -19.8760 0.6693
0 14 10 10.9695 -10.4583
0 14 11 28.1902 5.0497
0 14 12 -16.6701 -0.7265
0 14 13 8.0581 -13.7481
0 14 14 -27.3934 8.9920
0 14 15 -10.9461 11.0595
0 14 16 -27.0257 -2.4713
0 14 17 8.2735 1.4485
0 14 18 -33.4854 -5.9548
0 14 19 -14.5225 -9.0307
0 14 20 1.5121 2.4768
0 14 21 12.5508 5.1945
0 14 22 -5.2884 7.6487
0 14 23 3.3150 -0.5781
0 14 24 5.7205 -8.0596
0 14 25 -11.4768 3.1155
0 14 26 8.8947 -2.1315
0 14 27 -1.5838 -8.9932
0 14 28 -13.5726 10.3384
0 14 29 1.9343 4.6090
0 15 1 1.1755 -3.6851
0 15 2 -15.5310 -13.7638
0 15 3 -2.7941 -20.5490
0 15 4 12.7322 4.9756
0 15 5 2.9218 0.8841
0 15 6 0.9261 0.6130
0 15 7 -1.7924 1.4423
0 15 8 -1.8310 -10.0335
0 15 9 0.3865 -8.1691
0 15 10 -9.1004 -5.5692
0 15 11 0.4153 -7.3515
0 15 12 10.7630 6.1543
0 15 13 -1.4971 26.5767
0 15 14 4.2069 11.9758
0 15 15 3.2276 24.1602
0 15 16 -16.6590 -10.2237
0 15 17 -3.3347 37.3698
0 15 18 11.3136 -14.5948
0 15 19 2.1245 11.5299
0 15 20 2.3880 -0.7704
0 15 21 0.4644 7.8923
0 15 22 -4.4940 -1.2377
0 15 23 -2.3701 11.3945
0 15 24 -4.4202 -3.9943
0 15 25 3.6721 -10.4973
0 16 0 -31.8994 12.9565
0 16 1 -2.4834 -11.9435
0 16 2 -3.9745 -5.3583
0 16 3 15.8746 2.8851
0 16 4 8.8037 -6.8709
0 16 5 -5.8048 3.4073
0 16 6 -18.4389 6.7580
0 16 7 -14.5434 -1.6376
0 16 8 -4.8821 2.7788
0 16 9 12.3405 -0.5028
0 16 10 2.1991 -4.4784
0 16 11 1.0950 -5.2771
0 16 12 14.9327 -5.1861
0 16 13 11.9002 10.7366
0 16 14 4.0256 10.1701
0 16 15 12.3654 -8.2498
0 16 16 9.7253 -2.1349
0 16 17 -10.8706 -1.6263
0 16 18 32.9340 -8.7547
0 16 19 -6.5893 5.7869
0 16 20 12.2743 8.3621
0 16 21 -2.6052 -2.4174
0 17 1 -6.3559 -10.1542
0 17 2 -0.4747 -18.7517
0 17 3 11.8642 19.3787
0 17 4 -3.5119 6.9928
0 17 5 -3.0152 14.6787
0 17 6 8.7438 1.8699
0 17 7 -4.9908 -7.7782
0 17 8 -8.3540 -11.4855
0 17 9 -1.0631 -1.6359
0 17 10 2.1687 -4.2109
0 17 11 7.2765 7.0211
0 17 12 2.8463 0.6625
0 17 13 -1.7106 -8.2442
0 17 14 -2.8916 -18.0824
0 17 15 -9.7582 1.8195
0 18 0 -2.1034 -7.9412
0 18 1 22.8526 -1.5698
0 18 2 -0.7017 3.6416
0 18 3 2.2529 -6.2195
0 18 4 -2.1936 -0.4145
0 18 5 -14.5886 10.1735
1 0 3 -11.1662 -31.5668
1 0 4 1.3664 7.9171
1 0 5 -5.1382 -17.5306
1 0 6 4.7644 -4.2347
1 0 7 -0.9427 -9.8780
1 0 8 -30.1349 -2.6033
1 0 9 4.2344 70.5658
1 0 10 -19.0372 0.5853
1 0 11 12.7252 -86.5877
1 0 12 -14.9636 3.1001
1 0 13 18.0117 32.6419
1 0 14 18.5813 -9.5876
1 0 15 5.3826 14.9223
1 0 16 -13.6848 -1.4919
1 0 17 -11.4899 -17.6393
1 0 18 21.3967 9.1481
1 0 19 -14.4532 36.4260
1 0 20 34.8804 2.2308
1 0 21 -14.1751 13.3572
1 0 22 11.8939 -5.6087
1 0 23 -0.5901 24.7875
1 0 24 22.0108 -5.5891
1 0 25 5.7920 -22.5579
1 0 26 -8.0960 9.6290
1 0 27 9.8241 8.9230
1 0 28 13.8685 -2.1822
1 0 29 14.0967 11.8242
1 0 30 14.1806 -7.7135
1 0 31 5.2226 4.7654
1 0 32 -10.7263 2.9507
1 0 33 -5.4540 -5.8534
1 0 34 11.9031 5.6780
1 0 35 -12.2643 5.5676
1 0 36 -2.6167 1.1803
1 0 37 -6.9513 -14.4696
1 0 38 -10.7673 -7.1905
1 0 39 -0.2968 4.4809
1 0 40 6.6567 2.3558
1 0 41 0.6214 -2.2917
1 0 42 -4.0803 3.2762
1 0 43 5.8883 4.0650
1 0 44 -6.9437 -4.2555
1 0 45 6.2006 6.9837
1 0 46 -1.0026 -1.4656
1 1 0 -6.6839 56.9993
1 1 1 -0.6364 5.0353
1 1 2 -66.6779 14.7691
1 1 3 -26.1840 -5.9139
1 1 4 59.1501 -38.6338
1 1 5 22.5652 36.3312
1 1 6 -34.9105 11.4245
1 1 7 18.9500 5.4196
1 1 8 9.2026 6.5159
1 1 9 -17.8607 -11.1142
1 1 10 -4.4041 -7.8596
1 1 11 -13.1863 12.6240
1 1 12 4.0645 -34.3124
1 1 13 35.1941 10.7571
1 1 14 -20.3565 -11.3406
1 1 15 -17.3426 6.2427
1 1 16 23.6238 7.5416
1 1 17 19.8713 0.5278
1 1 18 8.4820 -28.7985
1 1 19 2.5513 -12.1930
1 1 20 21.8002 11.5242
1 1 21 4.1778 -23.8557
1 1 22 -14.1428 12.2777
1 1 23 -23.5912 -20.4240
1 1 24 37.7633 8.3563
1 1 25 0.7634 -17.4394
1 1 26 -6.3974 -4.8979
1 1 27 11.4840 -8.6123
1 1 28 -4.2211 -20.4167
1 1 29 1.0871 -3.7816
1 1 30 11.8376 12.9510
1 1 31 -1.8332 6.3533
1 1 32 -5.8084 -2.8677
1 1 33 -5.5372 9.1867
1 1 34 13.2213 0.9032
1 1 35 -3.8829 -1.3513
1 1 36 -8.5293 21.3389
1 1 37 -3.0053 -4.5071
1 1 38 -3.9093 0.8211
1 1 39 4.0439 -3.3374
1 1 40 6.2257 0.9047
1 1 41 -0.7072 -1.6353
1 1 42 1.0814 0.3924
1 1 43 4.9784 -1.1033
1 1 44 -2.3949 -3.3171
1 1 45 -4.9319 -3.8263
1 2 0 -5.7674 91.6453
1 2 1 -2.3835 2.1636
1 2 2 -14.5815 -41.8626
1 2 3 37.6424 -20.9509
1 2 4 -22.0598 -8.3901
1 2 5 -2.4690 -2.8537
1 2 6 34.7063 -1.5193
1 2 7 -36.2081 27.9792
1 2 8 11.7457 10.2206
1 2 9 2.7796 -34.2373
1 2 10 -26.9747 -23.2566
1 2 11 2.3216 29.9796
1 2 12 6.6426 23.1073
1 2 13 -3.0709 -13.1983
1 2 14 11.5520 -20.0141
1 2 15 -32.4024 -13.7754
1 2 16 -3.5005 -24.7574
1 2 17 -8.4569 12.1598
1 2 18 -10.6914 -0.8158
1 2 19 -3.9769 -24.1114
1 2 20 9.3883 7.3140
1 2 21 -9.0795 13.6945
1 2 22 0.8760 -7.9523
1 2 23 2.0958 -18.9393
1 2 24 -27.6836 -5.7838
1 2 25 2.3533 -14.9462
1 2 26 -10.6589 19.6465
1 2 27 11.7290 -4.8896
1 2 28 8.4854 -15.4384
1 2 29 -1.8035 -2.5152
1 2 30 -3.1835 1.6657
1 2 31 1.6258 2.3517
1 2 32 0.6768 -2.5521
1 2 33 8.8895 -0.6850
1 2 34 5.3259 5.5012
1 2 35 -1.1095 -6.1776
1 2 36 2.1005 5.7204
1 2 37 3.2539 -2.0055
1 2 38 -8.0692 7.3079
1 2 39 3.5686 -9.0065
1 2 40 -5.2357 -11.6865
1 2 41 1.7551 0.7300
1 2 42 -0.3606 2.2360
1 2 43 -1.3911 1.9876
1 2 44 -2.7873 4.7215
1 2 45 0.1696 -2.9759
1 3 0 10.1021 -7.8409
1 3 1 -30.1694 -9.8384
1 3 2 -13.5782 -3.3269
1 3 3 18.8521 12.6555
1 3 4 -33.9826 -4.3791
1 3 5 2.3327 30.9792
1 3 6 31.7863 -35.6113
1 3 7 -16.8362 -6.8232
1 3 8 -12.7412 38.1104
1 3 9 -2.6527 -14.0030
1 3 10 3.9117 8.6144
1 3 11 24.4440 -9.7186
1 3 12 4.2281 -4.1108
1 3 13 -53.4941 36.3748
1 3 14 -36.3689 13.4569
1 3 15 27.3652 12.5675
1 3 16 11.5479 2.2401
1 3 17 -27.9147 -29.3012
1 3 18 7.0437 17.7885
1 3 19 5.0219 6.9891
1 3 20 -14.4790 -18.3665
1 3 21 -10.9107 8.6976
1 3 22 -7.0904 21.1845
1 3 23 -2.5478 -11.5225
1 3 24 -1.6851 5.8774
1 3 25 -6.2103 -11.2852
1 3 26 -6.6072 -22.2586
1 3 27 5.4064 7.6857
1 3 28 -12.3551 13.6416
1 3 29 -1.4663 13.1217
1 3 30 -3.1220 -6.8712
1 3 31 -1.4046 -12.8196
1 3 32 10.4352 -6.9318
1 3 33 2.9085 0.4291
1 3 34 -10.0118 -3.3813
1 3 35 3.1349 13.6816
1 3 36 -0.3253 -5.4323
1 3 37 -4.1740 -1.6307
1 3 38 -7.1104 4.0646
1 3 39 9.7108 -0.6823
1 3 40 -12.4144 -9.3926
1 3 41 3.7178 -1.4008
1 3 42 11.4697 5.3949
1 3 43 -8.4599 1.3909
1 3 44 -9.8798 4.3567
1 3 45 -1.4120 4.4720
1 4 0 1.7783 -14.9072
1 4 1 14.9335 -51.7860
1 4 2 5.5907 51.8326
1 4 3 -7.1877 15.4185
1 4 4 8.2217 -14.7887
1 4 5 -2.5109 8.2902
1 4 6 2.9304 -7.7655
1 4 7 -11.3523 -9.9665
1 4 8 25.3408 -0.6820
1 4 9 -15.8439 5.1554
1 4 10 3.9030 16.3734
1 4 11 45.7101 11.3087
1 4 12 -0.6071 22.3261
1 4 13 10.7878 2.2591
1 4 14 2.4947 -2.0091
1 4 15 -26.3159 6.9595
1 4 16 9.4795 -6.5611
1 4 17 -6.8993 -2.8796
1 4 18 -7.6577 8.7305
1 4 19 26.2748 10.5624
1 4 20 -5.7837 15.0916
1 4 21 -4.2307 -2.8758
1 4 22 2.0580 -4.8855
1 4 23 -24.6040 7.0505
1 4 24 -12.6471 4.2157
1 4 25 22.5082 8.9916
1 4 26 2.2700 4.6945
1 4 27 10.7919 -7.5614
1 4 28 1.3104 3.6662
1 4 29 -17.8637 11.9295
1 4 30 -11.5095 -13.4004
1 4 31 -3.6659 -7.9303
1 4 32 2.7836 0.5218
1 4 33 6.3195 2.1169
1 4 34 7.0773 7.4214
1 4 35 -3.7669 10.4230
1 4 36 3.1281 -8.6119
1 4 37 -18.9210 -5.6233
1 4 38 -0.9029 -6.9687
1 4 39 -4.1580 0.2997
1 4 40 4.5215 0.0232
1 4 41 4.0297 14.5681
1 4 42 4.5867 -0.6327
1 4 43 5.9426 -1.3276
1 4 44 -6.4142 0.4610
1 5 0 -2.0774 -3.2737
1 5 1 0.2180 9.5361
1 5 2 -2.6225 -10.6589
1 5 3 30.4956 -2.8834
1 5 4 -11.6358 -6.2455
1 5 5 -14.1014 -14.8034
1 5 6 -17.8134 18.6146
1 5 7 12.6931 12.8982
1 5 8 21.0238 -30.1930
1 5 9 25.6614 -42.0056
1 5 10 30.4214 13.0337
1 5 11 -13.1747 -18.2542
1 5 12 -32.2556 13.5696
1 5 13 25.9448 25.9444
1 5 14 8.5062 -18.5117
1 5 15 -8.0793 4.8320
1 5 16 -12.2029 10.6343
1 5 17 8.9289 -13.9958
1 5 18 18.2206 -7.2932
1 5 19 2.6850 -7.1177
1 5 20 -5.5423 10.7576
1 5 21 -1.3449 32.9385
1 5 22 -2.6480 -13.8534
1 5 23 13.4506 -7.9236
1 5 24 6.3979 -3.4420
1 5 25 -6.5340 -12.5956
1 5 26 2.0573 12.4687
1 5 27 -3.4156 28.8690
1 5 28 -11.0000 -3.2732
1 5 29 -0.9581 0.5981
1 5 30 5.4814 8.2156
1 5 31 -0.0628 -10.7981
1 5 32 2.3541 -9.3810
1 5 33 3.1540 4.0041
1 5 34 1.8675 4.8704
1 5 35 -11.7802 5.8516
1 5 36 -13.3490 12.8031
1 5 37 -1.0931 -0.0143
1 5 38 9.8686 -4.3349
1 5 39 2.9170 -16.4824
1 5 40 11.9286 7.3376
1 5 41 -2.5692 -1.9533
1 5 42 -10.7307 1.3294
1 5 43 -7.8093 0.4689
1 5 44 4.4701 -1.7621
1 6 0 9.0756 -6.9613
1 6 1 -29.3968 31.9144
1 6 2 -1.5148 -14.9231
1 6 3 -3.3580 -6.7264
1 6 4 11.9420 8.6315
1 6 5 -1.4981 8.3627
1 6 6 -14.8188 -29.5950
1 6 7 -21.3427 -20.5426
1 6 8 -25.9519 -30.9562
1 6 9 -3.0066 4.9317
1 6 10 23.7597 16.1657
1 6 11 14.4002 8.8920
1 6 12 -18.1966 3.4999
1 6 13 22.4816 -3.7987
1 6 14 -13.8016 -12.7436
1 6 15 -18.7075 8.8010
1 6 16 7.1365 -11.3976
1 6 17 -9.6502 10.9597
1 6 18 6.9728 -8.0545
1 6 19 14.7990 -0.8728
1 6 20 -3.0132 3.3564
1 6 21 -9.5346 -1.4115
1 6 22 -0.8844 -8.2874
1 6 23 -6.7634 3.8160
1 6 24 30.4831 -1.1162
1 6 25 6.4125 8.5167
1 6 26 3.0212 6.2626
1 6 27 5.9220 4.3917
1 6 28 -5.1093 -5.7036
1 6 29 -14.4222 -11.9853
1 6 30 2.6503 -5.5515
1 6 31 1.9633 5.3405
1 6 32 -0.9894 9.6386
1 6 33 11.9038 11.4390
1 6 34 2.9547 0.3122
1 6 35 -8.2683 -7.9776
1 6 36 -7.0193 -4.0732
1 6 37 -4.4491 -3.3962
1 6 38 0.7205 -7.1002
1 6 39 2.5638 3.7917
1 6 40 1.6550 5.7903
1 6 41 4.5924 -2.3899
1 6 42 -10.2105 2.1349
1 6 43 -7.7219 -1.7138
1 7 0 -4.0773 2.3563
1 7 1 14.4216 -18.1743
1 7 2 16.9634 10.5689
1 7 3 -45.1435 -12.9544
1 7 4 -22.9441 31.4504
1 7 5 -7.4117 28.8608
1 7 6 -3.7009 13.8046
1 7 7 -12.9219 -11.2345
1 7 8 14.2970 -0.8671
1 7 9 6.9910 0.1921
1 7 10 2.4396 -15.5687
1 7 11 -1.1518 -2.8478
1 7 12 8.6078 19.2615
1 7 13 -10.9649 10.0014
1 7 14 -14.9424 -7.1021
1 7 15 7.4052 24.3427
1 7 16 16.3776 -24.3991
1 7 17 -9.6655 -17.3019
1 7 18 7.3110 25.9728
1 7 19 -19.8890 4.4095
1 7 20 4.0737 -4.5877
1 7 21 6.0019 -8.4294
1 7 22 7.8222 -14.3033
1 7 23 -4.0321 -9.9812
1 7 24 4.2891 2.8859
1 7 25 -0.0097 -2.4816
1 7 26 -2.1182 17.0488
1 7 27 -15.9696 -5.2364
1 7 28 -1.5478 10.0381
1 7 29 1.0597 2.7439
1 7 30 8.9995 -12.5318
1 7 31 8.9685 -8.7100
1 7 32 3.5770 16.0264
1 7 33 -14.5254 4.2165
1 7 34 -12.9490 6.3969
1 7 35 -6.4042 9.8978
1 7 36 6.1347 -7.7086
1 7 37 1.8854 -10.0071
1 7 38 2.5935 2.4937
1 7 39 -1.7977 4.5019
1 7 40 -5.5686 7.3746
1 7 41 -10.5700 2.2651
1 7 42 3.4652 9.7258
1 8 0 -12.1151 7.4627
1 8 1 14.9120 11.5318
1 8 2 30.0073 23.1272
1 8 3 32.3461 26.0730
1 8 4 1.0969 11.1356
1 8 5 9.8509 -26.8461
1 8 6 -20.9301 -5.8514
1 8 7 -1.7287 -3.7777
1 8 8 1.8787 13.5970
1 8 9 4.8216 -3.7247
1 8 10 2.2884 -4.9251
1 8 11 8.9027 1.4259
1 8 12 7.2536 3.7666
1 8 13 -7.1596 -3.5513
1 8 14 -15.7062 1.6638
1 8 15 0.0368 3.0764
1 8 16 19.3715 -3.9705
1 8 17 -6.8780 -1.9893
1 8 18 10.4211 11.1598
1 8 19 -6.4479 -3.8977
1 8 20 -23.8816 0.3529
1 8 21 3.8082 -14.8484
1 8 22 3.6013 9.2708
1 8 23 -1.4430 2.2575
1 8 24 11.9823 9.3997
1 8 25 5.6601 8.4234
1 8 26 4.7502 1.7530
1 8 27 -0.9996 -6.4996
1 8 28 -16.8394 1.0338
1 8 29 8.8497 -4.2926
1 8 30 2.9868 4.8088
1 8 31 9.3895 6.4775
1 8 32 12.9006 8.6433
1 8 33 2.9371 2.5031
1 8 34 -17.5520 5.1143
1 8 35 5.5788 -7.5144
1 8 36 -0.7741 -4.2377
1 8 37 3.0063 -3.5219
1 8 38 8.5514 11.3276
1 8 39 3.3104 3.1210
1 8 40 -0.3056 -2.3446
1 8 41 -4.4608 -2.0465
1 9 0 11.7550 -41.9224
1 9 1 18.0118 -8.7382
1 9 2 -17.6024 -16.6417
1 9 3 3.6658 12.4347
1 9 4 2.4211 14.7870
1 9 5 -11.6782 -5.7992
1 9 6 -8.2441 -2.6792
1 9 7 15.4278 10.1406
1 9 8 0.4834 -22.1614
1 9 9 4.0718 -2.7235
1 9 10 -12.3496 14.3478
1 9 11 -0.9821 14.9352
1 9 12 -1.8346 -3.3586
1 9 13 11.4790 0.3310
1 9 14 9.9364 -9.3507
1 9 15 -7.3594 -15.9138
1 9 16 -4.6073 1.7985
1 9 17 1.1806 18.3271
1 9 18 -2.6721 2.6597
1 9 19 8.0757 -11.5877
1 9 20 1.5891 14.9542
1 9 21 -0.1564 -2.5337
1 9 22 0.9555 -16.4165
1 9 23 21.9667 0.9852
1 9 24 -1.4232 -3.2312
1 9 25 -4.2815 -5.4103
1 9 26 -0.9228 17.5311
1 9 27 2.5108 -0.8641
1 9 28 6.7181 -7.9244
1 9 29 5.7488 -13.0268
1 9 30 -0.1611 -5.3855
1 9 31 0.6439 8.4905
1 9 32 -3.1757 -5.7467
1 9 33 -2.1785 0.2528
1 9 34 -0.7557 1.7617
1 9 35 -4.1283 -9.2644
1 9 36 -4.6762 -11.0592
1 9 37 8.6930 13.5051
1 9 38 -8.0113 -0.6091
1 9 39 -7.3990 7.4514
1 10 0 7.3392 8.3175
1 10 1 2.2804 14.2482
1 10 2 18.5591 -3.7138
1 10 3 -9.2690 -0.3298
1 10 4 8.0861 -8.8817
1 10 5 -9.5747 8.1658
1 10 6 -7.5170 1.1290
1 10 7 14.1991 2.0210
1 10 8 6.2369 -7.0413
1 10 9 12.1252 1.4704
1 10 10 8.2926 5.2589
1 10 11 -19.8903 -0.9775
1 10 12 -13.9814 -22.5197
1 10 13 -6.9813 8.5016
1 10 14 15.1290 0.9168
1 10 15 3.4805 2.5480
1 10 16 0.7409 5.2134
1 10 17 4.0552 -3.6867
1 10 18 2.3033 -12.7885
1 10 19 -7.9742 -3.5402
1 10 20 5.0521 -4.3646
1 10 21 -4.5979 0.4043
1 10 22 -15.0738 -13.4836
1 10 23 9.7656 -0.9727
1 10 24 10.6862 -2.6386
1 10 25 -6.8098 3.0644
1 10 26 -8.2225 -6.3804
1 10 27 0.5736 1.4092
1 10 28 -3.5531 0.1899
1 10 29 1.2319 1.4304
1 10 30 -8.1437 4.6638
1 10 31 -1.4931 2.1334
1 10 32 -8.6217 3.5316
1 10 33 -9.3375 5.1627
1 10 34 7.3585 -4.2371
1 10 35 2.1452 -3.5388
1 10 36 1.7854 15.2405
1 10 37 14.8592 9.6844
1 10 38 8.2800 -3.6265
1 11 0 -0.2683 -20.0884
1 11 1 1.8591 6.8399
1 11 2 5.2734 2.9791
1 11 3 -12.7908 -3.1513
1 11 4 -1.1615 -2.3041
1 11 5 8.9988 -6.7183
1 11 6 8.2090 -6.8020
1 11 7 -6.3025 -22.6034
1 11 8 -1.2225 10.7519
1 11 9 -17.8163 31.1057
1 11 10 -0.5600 -5.1040
1 11 11 10.0468 2.8982
1 11 12 3.3718 -6.1155
1 11 13 -8.0075 -20.6800
1 11 14 8.6818 -1.2785
1 11 15 -3.4813 4.3210
1 11 16 -2.3903 8.2467
1 11 17 -14.4565 -12.1252
1 11 18 -1.3317 7.7991
1 11 19 -5.0743 14.6401
1 11 20 -7.6464 -4.0821
1 11 21 -1.9619 -10.5305
1 11 22 5.1495 13.8762
1 11 23 -14.1718 -3.4980
1 11 24 9.0380 0.2898
1 11 25 6.2791 11.1672
1 11 26 3.9670 -10.4013
1 11 27 -2.9119 -6.4731
1 11 28 7.2095 11.2250
1 11 29 -3.3883 13.7149
1 11 30 3.1246 6.5602
1 11 31 2.9333 0.8892
1 11 32 -2.5277 -4.5884
1 11 33 -5.2483 -0.2269
1 11 34 6.5756 -8.8330
1 11 35 10.8732 -8.4527
1 11 36 2.7628 1.1148
1 12 0 -0.0392 -0.2891
1 12 1 -8.5859 0.5145
1 12 2 4.2609 -1.5316
1 12 3 -12.3992 1.4146
1 12 4 -11.6359 0.3780
1 12 5 -4.7461 -13.9876
1 12 6 17.7098 4.7962
1 12 7 6.4041 13.9433
1 12 8 4.3727 6.9398
1 12 9 -4.7400 -1.1365
1 12 10 -22.9322 -11.0158
1 12 11 -12.6813 -21.0223
1 12 12 8.0666 12.0847
1 12 13 -6.7057 3.3573
1 12 14 5.7757 3.9574
1 12 15 9.2223 8.0675
1 12 16 10.0345 3.8567
1 12 17 7.8311 -3.6808
1 12 18 -11.2031 15.4742
1 12 19 11.5438 -1.1908
1 12 20 0.7617 -5.3928
1 12 21 -2.3445 0.2369
1 12 22 13.4121 -2.0786
1 12 23 -0.4141 -8.4945
1 12 24 -27.9671 -1.4302
1 12 25 1.1459 -10.3964
1 12 26 7.1310 0.8397
1 12 27 -0.4749 4.8958
1 12 28 12.4487 7.8017
1 12 29 1.4913 -5.5122
1 12 30 -5.8962 4.6453
1 12 31 -4.5033 2.3089
1 12 32 -1.8242 -3.7976
1 12 33 -5.0598 -10.6609
1 12 34 -5.1465 5.3418
1 13 0 -3.5359 14.6011
1 13 1 -5.1567 -0.4102
1 13 2 -8.8246 11.7149
1 13 3 2.5831 -6.2724
1 13 4 10.5662 1.5528
1 13 5 -1.7491 -9.4701
1 13 6 -0.7050 2.2510
1 13 7 7.1851 23.0117
1 13 8 -12.6397 21.9620
1 13 9 -13.7999 -14.7939
1 13 10 5.0233 17.4572
1 13 11 -10.1467 -2.9338
1 13 12 5.3809 -18.6490
1 13 13 30.8827 1.6826
1 13 14 -10.1097 -9.1158
1 13 15 -7.8628 -23.0120
1 13 16 5.2451 5.9019
1 13 17 8.8364 2.6249
1 13 18 -6.0878 -8.6526
1 13 19 -0.7498 -7.2185
1 13 20 -6.0497 -6.6596
1 13 21 -10.4204 22.2054
1 13 22 -1.5029 11.8311
1 13 23 0.8813 10.5639
1 13 24 -5.6289 12.3590
1 13 25 -1.1630 -5.7758
1 13 26 14.3631 -6.1153
1 13 27 8.0169 7.3745
1 13 28 -2.8511 -0.1085
1 13 29 -3.8392 -5.1252
1 13 30 -6.3080 8.1842
1 13 31 -3.1480 4.4364
1 13 32 1.8420 5.8609
1 14 0 12.1068 12.3306
1 14 1 0.7967 0.7346
1 14 2 -6.5290 -10.6327
1 14 3 8.1287 -8.9275
1 14 4 6.4995 -5.2278
1 14 5 27.1887 12.1613
1 14 6 -0.0555 17.3780
1 14 7 0.8543 -1.3055
1 14 8 4.8632 -4.3040
1 14 9 -6.5887 0.2315
1 14 10 -10.3789 -0.4473
1 14 11 13.6269 -11.8778
1 14 12 -33.2627 5.8468
1 14 13 -1.9631 -6.2458
1 14 14 4.5390 0.5572
1 14 15 -16.8756 3.4532
1 14 16 -9.5322 -8.2776
1 14 17 1.0001 3.1873
1 14 18 5.8246 -2.9947
1 14 19 12.8761 14.6806
1 14 20 19.8663 6.7937
1 14 21 15.8684 -5.3553
1 14 22 8.2510 -1.0988
1 14 23 -7.1495 0.8700
1 14 24 17.2259 -8.0719
1 14 25 -1.2409 -6.6600
1 14 26 -11.8280 6.8958
1 14 27 11.0016 -1.3259
1 14 28 -1.8346 9.4246
1 14 29 -0.8101 7.9764
1 15 0 0.0648 -12.6914
1 15 1 -8.2689 2.2873
1 15 2 -7.6945 -10.2253
1 15 3 6.0783 -14.4182
1 15 4 13.6628 -3.8910
1 15 5 8.6745 9.6845
1 15 6 -2.6849 -4.1667
1 15 7 -14.4118 1.8470
1 15 8 -9.3774 -7.3426
1 15 9 8.9404 14.1937
1 15 10 1.6059 2.4437
1 15 11 9.2554 1.0269
1 15 12 -5.4131 6.5195
1 15 13 -10.8849 20.4516
1 15 14 -18.3786 -10.0051
1 15 15 18.4954 23.7558
1 15 16 -5.5804 -14.8416
1 15 17 1.5954 -30.4071
1 15 18 15.8527 -8.3173
1 15 19 -6.8953 -6.7803
1 15 20 -1.7086 1.1583
1 15 21 0.5716 -7.3040
1 15 22 -6.9185 -6.0313
1 15 23 -2.3051 -0.9689
1 15 24 14.9610 3.5075
1 15 25 5.1396 -8.9407
1 16 0 -12.9746 8.0837
1 16 1 -5.5824 -16.9470
1 16 2 13.5663 -1.7393
1 16 3 -5.8210 -0.1610
1 16 4 2.2903 1.3623
1 16 5 -7.1041 7.6315
1 16 6 -0.7289 3.5919
1 16 7 3.1595 -3.2856
1 16 8 2.0169 -6.1938
1 16 9 -3.3497 -5.6712
1 16 10 11.7398 -8.8267
1 16 11 -9.0450 22.3502
1 16 12 21.0814 12.8704
1 16 13 6.4392 1.8666
1 16 14 -19.6546 -7.1186
1 16 15 -23.3122 -1.2489
1 16 16 14.0718 -27.0580
1 16 17 -20.3431 18.3958
1 16 18 11.1766 3.0098
1 16 19 8.9132 -6.4715
1 16 20 -12.0288 -1.6575
1 16 21 -3.9487 -1.4640
1 17 0 -4.4566 -5.4772
1 17 1 -0.7803 7.8888
1 17 2 5.0169 -11.4803
1 17 3 15.5670 12.1409
1 17 4 -6.1268 8.2268
1 17 5 -16.4585 -16.6869
1 17 6 -4.6157 6.5742
1 17 7 2.8436 6.1652
1 17 8 1.0440 0.6749
1 17 9 8.2419 -3.3129
1 17 10 12.7972 -4.5447
1 17 11 -6.6126 -0.7301
1 17 12 4.3011 16.9974
1 17 13 -9.8167 -1.9065
1 17 14 -13.3226 10.1233
1 17 15 -2.7484 -9.5754
1 18 0 0.5230 -13.9658
1 18 1 7.4597 -2.5867
1 18 2 -5.7989 2.2692
1 18 3 -12.2082 9.4498
1 18 4 14.9259 8.2933
2 0 0 59.4260 -7.4089
2 0 1 -6.0536 -72.5149
2 0 2 -55.0510 -8.8672
2 0 3 13.4479 -12.9895
2 0 4 41.5254 -4.0167
2 0 5 9.9026 -21.4166
2 0 6 -12.6765 10.3789
2 0 7 -0.6338 -15.3958
2 0 8 0.5898 18.6190
2 0 9 1.9256 -44.1492
2 0 10 30.4331 4.2860
2 0 11 16.2591 -15.1203
2 0 12 39.3647 1.2857
2 0 13 1.6110 2.2977
2 0 14 -2.9276 -11.1191
2 0 15 -17.2326 -6.7440
2 0 16 22.0677 -5.9057
2 0 17 -4.9822 9.7950
2 0 18 13.1815 -8.6603
2 0 19 2.6900 13.5174
2 0 20 6.5502 -9.9163
2 0 21 2.2283 -11.8655
2 0 22 6.4396 11.5166
2 0 23 3.3130 -11.7763
2 0 24 -3.8203 11.4597
2 0 25 3.0808 -13.4796
2 0 26 13.8700 7.9218
2 0 27 7.7407 -2.3617
2 0 28 -25.6056 -0.5742
2 0 29 -0.2112 -2.0427
2 0 30 11.5249 -8.2968
2 0 31 -5.1060 -14.7721
2 0 32 -8.1404 -4.6361
2 0 33 -8.2585 -1.2287
2 0 34 -0.1838 -10.3007
2 0 35 -3.6361 -11.1129
2 0 36 3.8022 -2.2275
2 0 37 8.1519 -4.9586
2 0 38 0.7978 4.9138
2 0 39 2.5463 6.0457
2 0 40 -4.5858 9.4723
2 0 41 0.4087 0.7609
2 0 42 -3.5918 10.7111
2 0 43 2.2266 6.0392
2 0 44 13.2244 -4.5752
2 0 45 3.8223 4.5444
2 1 0 -67.3667 -17.9205
2 1 1 25.6384 -7.1656
2 1 2 -23.7089 -3.3140
2 1 3 32.0595 1.5888
2 1 4 -11.9858 -12.6686
2 1 5 -0.3221 -2.0468
2 1 6 -32.8287 6.4049
2 1 7 -9.6386 2.6592
2 1 8 2.0853 -33.7724
2 1 9 19.8250 -26.6314
2 1 10 -51.3210 -16.2012
2 1 11 12.1576 -39.7563
2 1 12 -18.8715 -3.9413
2 1 13 7.9674 40.1750
2 1 14 -3.6799 16.8991
2 1 15 4.8448 -53.2612
2 1 16 -5.8667 -16.2241
2 1 17 3.4678 13.2928
2 1 18 19.6407 13.9925
2 1 19 -5.6365 -22.5153
2 1 20 -5.0899 2.5637
2 1 21 -12.6659 -2.4391
2 1 22 14.3104 -1.0739
2 1 23 6.4855 -2.6393
2 1 24 -10.3453 -1.5715
2 1 25 7.7916 -2.5573
2 1 26 -26.9517 13.4800
2 1 27 7.4045 4.9824
2 1 28 -2.4581 -3.8632
2 1 29 -5.7842 8.8460
2 1 30 -18.1484 1.5061
2 1 31 -4.3816 4.5704
2 1 32 -7.8866 6.6617
2 1 33 -1.8153 3.1352
2 1 34 9.7438 2.1926
2 1 35 -1.4529 -10.0414
2 1 36 -4.7577 -3.2102
2 1 37 11.2361 -4.3189
2 1 38 14.2042 3.5252
2 1 39 12.2069 6.7079
2 1 40 5.1582 5.7314
2 1 41 9.9859 -8.5993
2 1 42 -9.2482 -20.0102
2 1 43 7.7084 -1.9656
2 1 44 -5.9378 -0.4306
2 1 45 -1.5048 -2.0890
2 2 1 -21.7127 -7.0579
2 2 2 42.9066 -23.1345
2 2 3 18.0934 31.7058
2 2 4 -3.6240 -15.2228
2 2 5 -38.8017 52.2961
2 2 6 -21.3617 -11.0975
2 2 7 -9.4289 -11.1415
2 2 8 -10.5587 5.4484
2 2 9 -34.3877 24.5139
2 2 10 -13.4560 12.4082
2 2 11 28.6046 31.2870
2 2 12 7.5612 -42.8116
2 2 13 -27.5315 -4.4076
2 2 14 -11.9645 -5.2663
2 2 15 -1.1968 19.1303
2 2 16 -6.1828 -27.0494
2 2 17 14.1103 5.5558
2 2 18 7.5614 -0.1771
2 2 19 -11.9720 1.5390
2 2 20 -9.4871 6.8779
2 2 21 6.7916 7.5098
2 2 22 -3.9719 -7.1278
2 2 23 3.4865 -10.2259
2 2 24 16.3746 26.1726
2 2 25 13.8514 12.5255
2 2 26 -14.6586 -10.1616
2 2 27 -2.8090 11.2714
2 2 28 4.5265 -3.6876
2 2 29 11.4300 9.8984
2 2 30 -0.1708 7.3874
2 2 31 -4.3302 5.3450
2 2 32 3.5655 -19.0870
2 2 33 0.2517 -3.7983
2 2 34 -3.9571 0.1013
2 2 35 -1.1703 -3.3821
2 2 36 -3.1532 -8.4906
2 2 37 3.5290 -7.6425
2 2 38 7.9179 -11.8557
2 2 39 -5.3681 -5.0750
2 2 40 -18.5542 4.1708
2 2 41 -0.0032 8.7682
2 2 42 -2.6314 -3.5308
2 2 43 -0.7507 1.4969
2 2 44 11.3040 -2.2861
2 2 45 3.7759 8.1130
2 3 0 38.2980 -7.0126
2 3 1 10.1302 4.0892
2 3 2 -22.7322 -21.2759
2 3 3 16.7954 3.5398
2 3 4 8.9976 43.2963
2 3 5 -32.7894 34.6532
2 3 6 53.9313 8.9628
2 3 7 0.7374 -22.8006
2 3 8 8.1165 23.5672
2 3 9 4.2093 0.7773
2 3 10 -4.2630 -13.7301
2 3 11 -19.3806 26.1366
2 3 12 2.0069 20.8384
2 3 13 -15.2009 -12.4613
2 3 14 12.1509 -17.8427
2 3 15 -4.8002 -2.4415
2 3 16 23.9974 17.5671
2 3 17 -7.4230 -1.6626
2 3 18 14.0153 -6.1831
2 3 19 -9.3160 4.8800
2 3 20 13.0357 6.3273
2 3 21 -0.1179 -7.2086
2 3 22 12.5720 -15.0134
2 3 23 -4.5842 -17.6757
2 3 24 3.6098 10.1834
2 3 25 10.4591 18.7515
2 3 26 -0.9657 0.1203
2 3 27 -1.1735 1.3948
2 3 28 1.2108 -8.6311
2 3 29 -4.4325 2.1935
2 3 30 1.5205 -7.0536
2 3 31 -1.5666 9.4776
2 3 32 -4.1666 3.6160
2 3 33 -2.3885 -4.9549
2 3 34 -1.0738 -4.1141
2 3 35 -10.2166 5.7882
2 3 36 4.3998 2.2468
2 3 37 -1.9132 2.8610
2 3 38 3.0690 7.2719
2 3 39 0.6779 -6.0393
2 3 40 6.7850 2.1314
2 3 41 -3.3492 1.6327
2 3 42 1.6731 -1.3253
2 3 43 -1.8301 5.5062
2 3 44 -2.2760 -3.2843
2 3 45 2.2323 1.3011
2 4 0 7.4420 -4.0766
2 4 1 21.2774 -7.7149
2 4 2 14.3181 33.1408
2 4 3 6.6787 13.5110
2 4 4 8.9210 -48.6563
2 4 5 7.5371 -21.9670
2 4 6 14.4442 -2.8323
2 4 7 -21.4056 -3.7346
2 4 8 -23.2524 45.3637
2 4 9 44.6094 -2.2013
2 4 10 16.8283 -6.7416
2 4 11 -15.6831 -16.8972
2 4 12 -22.3896 7.1840
2 4 13 -7.8857 3.0588
2 4 14 7.9462 -24.1088
2 4 15 15.3441 -33.5856
2 4 16 9.9977 14.4015
2 4 17 -2.1896 -3.4077
2 4 18 -22.7188 6.5848
2 4 19 7.1224 -10.4254
2 4 20 -3.4016 -5.3324
2 4 21 -14.6414 -17.0225
2 4 22 4.8595 19.6274
2 4 23 16.2240 -5.4306
2 4 24 6.1528 -5.4461
2 4 25 6.2103 -11.2462
2 4 26 -1.7951 10.0362
2 4 27 -7.8639 2.8952
2 4 28 -0.8504 -1.4814
2 4 29 -3.6135 -1.7500
2 4 30 12.4300 -7.4707
2 4 31 -4.7994 -5.1029
2 4 32 8.0962 11.6636
2 4 33 -2.6148 14.4429
2 4 34 0.2148 -13.8551
2 4 35 2.0937 -5.5830
2 4 36 9.8963 1.9375
2 4 37 -5.0247 -6.9424
2 4 38 -10.3344 2.9811
2 4 39 3.1337 4.1263
2 4 40 6.2158 5.0457
2 4 41 9.7468 -11.4641
2 4 42 -3.2477 8.8915
2 4 43 6.7389 -2.4977
2 4 44 -3.3067 -0.7303
2 5 0 -1.3118 2.5340
2 5 1 -14.3542 -21.6590
2 5 2 -1.9002 3.4300
2 5 3 -23.4468 18.6840
2 5 4 -19.1539 -2.2731
2 5 5 17.3545 -13.0716
2 5 6 28.7890 14.3843
2 5 7 -4.0081 8.9968
2 5 8 8.9991 -6.5621
2 5 9 -12.2927 -13.2564
2 5 10 -37.8058 17.6075
2 5 11 9.3084 20.0688
2 5 12 -18.3559 -13.8764
2 5 13 -12.1944 -2.7083
2 5 14 -2.2879 -13.6854
2 5 15 -0.7057 4.6486
2 5 16 1.4637 5.7151
2 5 17 7.0089 5.6515
2 5 18 -17.1608 5.3555
2 5 19 3.2677 14.4987
2 5 20 -2.1144 -16.7305
2 5 21 -4.3715 -10.1924
2 5 22 -7.5919 -6.0748
2 5 23 6.0762 6.7889
2 5 24 -8.5074 6.3009
2 5 25 0.5028 -7.0335
2 5 26 -3.4814 1.5410
2 5 27 -0.6283 1.1238
2 5 28 -4.5977 1.3432
2 5 29 4.8131 -8.0297
2 5 30 1.8578 -2.7574
2 5 31 8.6577 -9.0750
2 5 32 2.1014 3.5013
2 5 33 -5.2115 -5.2894
2 5 34 -2.3789 9.3980
2 5 35 -3.8738 -3.9682
2 5 36 6.7753 2.2657
2 5 37 3.7742 -2.8644
2 5 38 5.0868 -0.0825
2 5 39 -2.3407 0.9052
2 5 40 -0.2634 -2.7014
2 5 41 -1.9948 -4.8032
2 5 42 -6.3507 0.2306
2 5 43 12.9330 6.2134
2 6 0 -5.9626 4.9769
2 6 1 36.9697 38.4707
2 6 2 -3.8584 -16.6708
2 6 3 11.4880 -42.0680
2 6 4 11.2026 13.3043
2 6 5 -5.6645 2.6554
2 6 6 -19.2311 -11.6035
2 6 7 23.1556 15.6519
2 6 8 28.4792 18.1596
2 6 9 -11.3881 -8.4451
2 6 10 -21.3742 30.0279
2 6 11 16.5619 17.9088
2 6 12 -3.2922 -28.4885
2 6 13 -1.1379 0.3207
2 6 14 15.5946 0.1876
2 6 15 -10.9341 13.5157
2 6 16 10.6848 -0.5191
2 6 17 3.1440 -3.3376
2 6 18 6.9062 1.0078
2 6 19 -13.0627 10.0196
2 6 20 -1.0241 5.2684
2 6 21 2.4727 14.2674
2 6 22 13.2353 -8.7366
2 6 23 -1.0960 -5.6091
2 6 24 -1.8330 11.0845
2 6 25 -10.0599 10.2909
2 6 26 -5.9291 -13.7612
2 6 27 8.1886 -10.1323
2 6 28 -5.6827 0.6270
2 6 29 -2.8003 -11.5669
2 6 30 -14.0682 0.1397
2 6 31 5.2528 12.1228
2 6 32 0.1168 -11.7806
2 6 33 2.6297 -5.0799
2 6 34 0.5771 5.0390
2 6 35 5.0050 -3.5123
2 6 36 -11.2243 -8.3255
2 6 37 9.3344 2.9966
2 6 38 6.5642 4.7822
2 6 39 -0.9700 -3.6141
2 6 40 -4.8011 3.6310
2 6 41 -0.5480 -2.8023
2 6 42 -0.0295 -0.2305
2 6 43 3.2582 -8.0468
2 7 0 -16.1476 0.3609
2 7 1 -27.6348 -20.5325
2 7 2 0.0132 -3.4434
2 7 3 -10.2079 12.3394
2 7 4 15.6779 -6.0518
2 7 5 11.5216 5.8312
2 7 6 -12.7417 -16.3378
2 7 7 9.4400 -12.6363
2 7 8 10.1074 -3.2532
2 7 9 1.5468 11.3602
2 7 10 1.5137 9.2104
2 7 11 0.4698 -11.6137
2 7 12 -15.9678 -22.1346
2 7 13 2.5536 3.9046
2 7 14 19.5369 -5.7331
2 7 15 -10.6890 -0.6178
2 7 16 8.0335 2.2621
2 7 17 0.7135 -11.9330
2 7 18 9.4350 6.4317
2 7 19 7.2681 -13.5097
2 7 20 -2.8444 -4.4698
2 7 21 -4.8517 0.9062
2 7 22 8.0154 9.4035
2 7 23 -6.4154 -2.5544
2 7 24 -4.8415 2.9105
2 7 25 -7.9328 1.9618
2 7 26 -4.0467 3.2136
2 7 27 -8.5495 0.5564
2 7 28 4.7867 1.1854
2 7 29 5.1257 7.2087
2 7 30 -8.2463 2.1958
2 7 31 2.8360 6.1905
2 7 32 -3.5163 -12.3532
2 7 33 -6.5343 2.2530
2 7 34 5.4236 -5.6560
2 7 35 0.7439 -1.6974
2 7 36 -0.7432 -1.9842
2 7 37 0.4845 2.6462
2 7 38 1.8164 -5.2697
2 7 39 -3.4084 3.8730
2 7 40 -2.7686 3.8776
2 7 41 -2.9563 2.0257
2 7 42 0.9667 -4.6432
2 8 0 17.3173 2.3772
2 8 1 -8.4592 -0.5242
2 8 2 -8.1005 -7.5882
2 8 3 12.0434 16.7154
2 8 4 -20.9981 -1.9068
2 8 5 -9.3740 -19.4655
2 8 6 18.1107 13.8584
2 8 7 -12.4164 -3.7687
2 8 8 -10.9099 -17.9827
2 8 9 5.4254 17.5837
2 8 10 -0.1187 0.4639
2 8 11 -16.9722 -11.6451
2 8 12 -20.7491 8.2698
2 8 13 -0.8852 11.6392
2 8 14 7.3661 -20.8011
2 8 15 -3.2571 -10.6608
2 8 16 1.9930 14.7828
2 8 17 -19.8544 -10.4087
2 8 18 -11.8702 6.0326
2 8 19 13.7893 3.8388
2 8 20 -0.3611 -7.5994
2 8 21 -3.7428 0.4984
2 8 22 -1.2325 13.1037
2 8 23 -4.1132 7.1168
2 8 24 -0.5274 -1.8587
2 8 25 11.6296 -6.3309
2 8 26 -0.3047 6.4317
2 8 27 -3.0936 -5.2918
2 8 28 3.7325 0.1580
2 8 29 5.4120 -0.6964
2 8 30 2.3150 6.1892
2 8 31 -4.7107 -5.3212
2 8 32 -4.9101 1.7348
2 8 33 -1.6183 8.5043
2 8 34 3.1670 -9.8295
2 8 35 -6.1971 -3.4258
2 8 36 9.8915 11.2673
2 8 37 -1.9021 0.3186
2 8 38 -4.2405 -2.0780
2 8 39 3.3250 6.7521
2 8 40 2.1396 0.7576
2 8 41 -4.1543 -6.4308
2 9 0 -1.8333 -0.0079
2 9 1 18.1625 9.8491
2 9 2 3.0946 23.7099
2 9 3 -15.4449 -9.9821
2 9 4 1.9533 -9.2867
2 9 5 -15.8553 7.7325
2 9 6 3.8224 -1.0290
2 9 7 7.0567 12.3680
2 9 8 -4.3777 11.2529
2 9 9 5.7269 7.5781
2 9 10 8.5337 6.1300
2 9 11 -7.3095 6.4681
2 9 12 1.0608 4.4071
2 9 13 -5.6885 6.0124
2 9 14 1.6562 -7.8086
2 9 15 -1.5185 6.0845
2 9 16 9.2913 13.6035
2 9 17 -1.5782 2.0198
2 9 18 -14.0681 8.4106
2 9 19 9.1930 0.7072
2 9 20 6.1240 8.2103
2 9 21 -2.9425 4.9322
2 9 22 3.8312 -4.0530
2 9 23 -5.1704 -6.5327
2 9 24 0.0368 3.9283
2 9 25 1.4265 -1.5468
2 9 26 -2.6205 -0.2340
2 9 27 1.3773 1.4884
2 9 28 -0.7124 -7.1476
2 9 29 6.9588 -2.4540
2 9 30 3.2565 -2.8468
2 9 31 2.0060 -2.7060
2 9 32 -9.2857 5.6268
2 9 33 8.2109 4.8698
2 9 34 4.4154 -2.2375
2 9 35 -0.5514 2.7616
2 9 36 5.2742 0.1963
2 9 37 3.8793 -4.7133
2 9 38 -3.3742 11.2039
2 9 39 -1.6821 4.3202
2 10 0 13.8281 3.3666
2 10 1 -4.1892 12.3401
2 10 2 3.1579 7.8067
2 10 3 -9.3317 0.0496
2 10 4 -2.6620 5.0450
2 10 5 19.0082 -4.9415
2 10 6 2.0209 -9.1160
2 10 7 11.7982 -17.4667
2 10 8 17.1577 14.1181
2 10 9 -16.6306 -9.5421
2 10 10 -0.8270 -1.9674
2 10 11 5.2658 15.8227
2 10 12 9.8279 -6.8672
2 10 13 4.6499 -13.2910
2 10 14 5.1896 18.5337
2 10 15 -4.3890 5.4747
2 10 16 10.7677 -0.9761
2 10 17 20.8354 -2.9314
2 10 18 9.1830 3.7176
2 10 19 -5.0401 -9.5193
2 10 20 -9.8603 -0.3384
2 10 21 6.1678 13.4986
2 10 22 -4.1392 -10.1375
2 10 23 9.4106 -17.5355
2 10 24 2.6680 14.9074
2 10 25 -7.2090 0.6422
2 10 26 -8.2160 -8.8550
2 10 27 1.7077 -5.0666
2 10 28 -7.4539 -4.1933
2 10 29 -10.8285 -2.4329
2 10 30 8.7387 2.2417
2 10 31 13.6770 2.1477
2 10 32 9.9635 -7.1469
2 10 33 -1.7527 -6.5607
2 10 34 -1.0224 0.1525
2 10 35 4.8614 4.7702
2 10 36 5.8573 -3.4847
2 10 37 5.4345 0.9701
2 10 38 5.5163 -0.7308
2 11 0 17.4643 -1.9864
2 11 1 -8.3091 0.8525
2 11 2 -4.3301 0.3477
2 11 3 -6.4944 -12.9881
2 11 4 -13.0440 4.7039
2 11 5 -7.1276 -8.3132
2 11 6 -3.5104 -6.1599
2 11 7 2.9270 8.4458
2 11 8 1.3695 1.5652
2 11 9 9.7903 2.3343
2 11 10 -13.3220 -3.0546
2 11 11 10.4227 -14.1255
2 11 12 14.3608 -1.3047
2 11 13 5.4074 -6.9349
2 11 14 2.3745 3.8128
2 11 15 -4.3873 -8.2079
2 11 16 -12.4213 -11.2407
2 11 17 -2.0824 -4.6934
2 11 18 7.9620 2.8327
2 11 19 -2.0863 7.1985
2 11 20 -17.1895 -4.3047
2 11 21 -2.5692 -8.2369
2 11 22 4.7318 -7.8408
2 11 23 -5.0667 10.5462
2 11 24 0.6788 -1.2042
2 11 25 3.2212 9.8250
2 11 26 -11.6639 -0.3701
2 11 27 -0.8595 -2.0493
2 11 28 5.7626 -5.7628
2 11 29 -4.8168 -12.2756
2 11 30 -7.1015 -11.7858
2 11 31 2.7581 -5.3502
2 11 32 7.6320 0.7943
2 11 33 1.4301 -3.6401
2 11 34 -0.5467 -3.5236
2 11 35 2.9310 -14.6569
2 11 36 -5.7460 -3.7264
2 12 0 -0.1710 6.8938
2 12 1 -15.6966 2.6756
2 12 2 -0.1109 15.1800
2 12 3 4.6322 10.5045
2 12 4 -1.4561 -3.2078
2 12 5 8.2643 -8.5305
2 12 6 2.0630 4.6745
2 12 7 -8.8124 -2.0564
2 12 8 -8.3420 -9.6271
2 12 9 8.0462 2.0252
2 12 10 0.2089 -12.2740
2 12 11 -12.8092 -17.8530
2 12 12 4.3614 3.7409
2 12 13 0.6642 26.3982
2 12 14 -5.6779 2.6652
2 12 15 7.4748 -0.4654
2 12 16 -7.4722 9.1182
2 12 17 -12.4208 -1.3860
2 12 18 -4.5509 2.7993
2 12 19 3.9825 6.6058
2 12 20 -3.0750 5.0428
2 12 21 -13.8856 -17.5315
2 12 22 7.3324 -3.3859
2 12 23 -3.8143 4.9758
2 12 24 -8.1416 -1.9109
2 12 25 -9.2014 -3.8778
2 12 26 0.7156 6.3426
2 12 27 -21.4945 5.3611
2 12 28 -4.5623 3.7895
2 12 29 4.8802 -5.1242
2 12 30 0.1314 -11.1795
2 12 31 -9.6741 -11.7778
2 12 32 -8.4728 1.7057
2 12 33 -4.2348 8.3101
2 12 34 -3.3479 4.0580
2 13 0 16.5974 1.1513
2 13 1 3.7353 5.9134
2 13 2 -2.0702 0.6458
2 13 3 -8.2275 -6.3542
2 13 4 5.4777 -1.6678
2 13 5 -4.5971 11.9309
2 13 6 -1.1196 3.3666
2 13 7 -2.0588 -1.6378
2 13 8 -16.2034 0.1057
2 13 9 -2.8805 -8.2482
2 13 10 13.7573 -2.7429
2 13 11 14.1448 9.2716
2 13 12 5.8727 -1.3721
2 13 13 11.7907 -9.0737
2 13 14 4.2794 10.7048
2 13 15 -3.6106 7.9516
2 13 16 2.1495 9.2353
2 13 17 -1.7927 8.5460
2 13 18 -17.0000 2.5248
2 13 19 -10.0542 7.6947
2 13 20 -2.2898 5.9270
2 13 21 -4.9951 17.0729
2 13 22 -15.6576 18.3749
2 13 23 16.1586 -0.5443
2 13 24 2.8557 12.7091
2 13 25 1.0950 3.5729
2 13 26 8.7775 1.9354
2 13 27 -4.3417 -8.9426
2 13 28 -18.3481 1.7555
2 13 29 -3.6605 0.4948
2 13 30 2.0546 9.4618
2 13 31 6.7263 5.2959
2 14 0 4.7255 -1.9400
2 14 1 4.5496 4.8300
2 14 2 5.8566 0.9071
2 14 3 -1.7491 -7.5021
2 14 4 3.0659 3.8969
2 14 5 -1.2065 3.6803
2 14 6 -3.3800 7.0812
2 14 7 -3.3142 -6.9137
2 14 8 5.7999 -1.6457
2 14 9 -7.1647 -18.3196
2 14 10 -6.7083 -15.3734
2 14 11 13.8748 12.8450
2 14 12 2.5663 -12.4734
2 14 13 -1.8665 -7.9990
2 14 14 10.4469 8.9976
2 14 15 7.4669 22.0103
2 14 16 2.6996 10.0647
2 14 17 23.5555 17.3071
2 14 18 14.4470 8.2214
2 14 19 2.7765 3.5458
2 14 20 16.4796 2.8411
2 14 21 13.4440 -0.6386
2 14 22 2.1265 -6.9956
2 14 23 -6.0101 -8.5814
2 14 24 -2.5756 -6.0969
2 14 25 -2.5315 16.2359
2 14 26 -13.1479 2.8821
2 14 27 9.8776 -2.7648
2 14 28 1.7745 -0.2441
2 15 0 -7.1358 -3.3559
2 15 1 -9.1656 -2.9368
2 15 2 1.6675 1.5771
2 15 3 7.7544 0.4155
2 15 4 0.3177 9.8465
2 15 5 -3.1375 -6.8524
2 15 6 -6.9296 -4.0297
2 15 7 -8.8107 3.5163
2 15 8 -1.1426 0.2635
2 15 9 7.9234 -0.6146
2 15 10 -15.9769 5.6799
2 15 11 -0.3619 -12.5660
2 15 12 20.1591 -6.0058
2 15 13 0.1120 10.4858
2 15 14 25.7085 -8.4217
2 15 15 15.7537 -26.1380
2 15 16 5.8747 -13.5216
2 15 17 -4.2326 -1.5734
2 15 18 15.1155 -4.5613
2 15 19 -5.2588 -2.6438
2 15 20 -12.4216 5.1402
2 15 21 -1.5404 -4.2343
2 15 22 8.6992 0.4932
2 15 23 1.7130 12.7147
2 15 24 1.6428 8.2827
2 15 25 4.3118 -7.3211
2 16 0 -2.1351 1.9976
2 16 1 -8.9305 -2.0089
2 16 2 6.7380 -5.4048
2 16 3 -2.6025 2.8852
2 16 4 -1.2276 0.0339
2 16 5 2.5986 2.9590
2 16 6 -8.9552 -2.4306
2 16 7 4.3568 -5.1830
2 16 8 1.7834 1.2909
2 16 9 -3.4095 7.6104
2 16 10 4.2389 -4.2327
2 16 11 -3.5631 -17.7204
2 16 12 -10.7092 -14.7075
2 16 13 0.3394 1.6074
2 16 14 -13.7344 -1.7124
2 16 15 -2.5648 -18.7255
2 16 16 7.6417 4.0204
2 16 17 5.0215 -3.0265
2 16 18 1.4436 7.3852
2 16 19 2.1019 -4.5981
2 16 20 -8.8645 -2.7271
2 17 0 -2.1117 4.1114
2 17 1 0.2101 6.6930
2 17 2 -0.0430 -4.6832
2 17 3 -5.9114 -6.1880
2 17 4 -4.5905 11.3612
2 17 5 -4.2984 -0.9697
2 17 6 6.9657 4.8654
2 17 7 6.5712 4.8368
2 17 8 -5.8159 -8.2052
2 17 9 -12.5508 5.8570
2 17 10 6.0683 2.3781
2 17 11 -0.9133 2.3257
2 17 12 -9.3346 10.6592
2 17 13 2.9011 -10.3017
2 17 14 -3.5837 -18.3358
2 17 15 -15.1520 9.8333
2 18 0 -1.6792 -6.5741
2 18 1 3.1151 9.9979
3 0 1 -6.4731 31.7598
3 0 2 -7.3616 -0.1090
3 0 3 -2.9964 10.0807
3 0 4 5.0903 8.3421
3 0 5 -13.5039 29.9199
3 0 6 -11.4384 6.3613
3 0 7 -13.6604 -22.3415
3 0 8 47.7193 -1.4067
3 0 9 9.1417 59.5967
3 0 10 33.5722 -5.2478
3 0 11 15.0881 4.6056
3 0 12 -29.5415 -1.8657
3 0 13 9.3904 24.3637
3 0 14 28.3427 -7.1547
3 0 15 -7.5878 -2.9739
3 0 16 -10.8065 0.4614
3 0 17 0.9397 0.0291
3 0 18 6.6775 1.4078
3 0 19 4.9594 18.0214
3 0 20 22.2463 9.4785
3 0 21 -18.9787 -32.1565
3 0 22 3.1829 6.5809
3 0 23 -11.3093 -7.6297
3 0 24 8.0488 -3.2855
3 0 25 7.5603 -2.1614
3 0 26 -8.7501 2.1838
3 0 27 16.2286 -1.9201
3 0 28 7.1963 -8.8471
3 0 29 2.1956 -12.9990
3 0 30 19.4768 -5.8998
3 0 31 -5.6166 9.1022
3 0 32 -2.2338 -1.3651
3 0 33 8.6128 -4.6903
3 0 34 10.1907 3.2908
3 0 35 -2.4150 3.1146
3 0 36 8.0289 7.5669
3 0 37 -14.5105 4.3690
3 0 38 -5.3648 2.9170
3 0 39 -8.0515 12.6379
3 0 40 4.3749 5.5559
3 0 41 5.8339 3.6616
3 0 42 2.3690 -4.1665
3 0 43 13.2154 9.1926
3 0 44 5.6598 -7.6774
3 0 45 -0.1189 2.7089
3 1 0 3.9015 -18.6384
3 1 1 27.4133 39.6157
3 1 2 -5.1639 12.7777
3 1 3 -4.0667 -6.2835
3 1 4 38.2879 0.6385
3 1 5 -0.5351 -8.9145
3 1 6 -7.7429 -19.5748
3 1 7 9.5493 -22.5489
3 1 8 31.0273 -24.7394
3 1 9 19.1651 -49.5828
3 1 10 -8.0372 28.3156
3 1 11 -17.0044 6.3342
3 1 12 17.3271 4.5755
3 1 13 -1.4354 7.2631
3 1 14 13.6308 -9.4453
3 1 15 -11.4504 -3.4532
3 1 16 18.9105 7.7803
3 1 17 15.0220 1.3314
3 1 18 -16.3290 -12.8755
3 1 19 -19.4706 -13.7948
3 1 20 12.2293 8.4259
3 1 21 -2.4599 9.0482
3 1 22 -22.9608 5.8797
3 1 23 2.9829 -22.9834
3 1 24 -4.9997 2.6767
3 1 25 8.9544 -36.6050
3 1 26 -12.4485 -0.8440
3 1 27 -10.5081 12.4301
3 1 28 -2.3908 -15.1920
3 1 29 4.1781 -2.0975
3 1 30 3.2896 -1.2668
3 1 31 6.8427 0.6852
3 1 32 2.9441 4.4111
3 1 33 -5.4645 -7.2644
3 1 34 11.0613 0.1796
3 1 35 11.8707 1.1480
3 1 36 -2.5582 11.3213
3 1 37 9.4699 6.2435
3 1 38 7.4167 2.8171
3 1 39 0.6069 -21.3347
3 1 40 -1.9721 1.4966
3 1 41 -1.2860 -22.6175
3 1 42 -5.6427 -5.8570
3 1 43 -5.0638 2.4229
3 1 44 7.3253 -2.4967
3 1 45 -10.0342 2.7712
3 2 0 5.2777 15.9991
3 2 1 12.9879 10.4486
3 2 2 33.6259 -41.9674
3 2 3 -41.3251 1.8515
3 2 4 -45.7071 5.8672
3 2 5 -28.1080 -23.9675
3 2 6 -13.1262 -17.2275
3 2 7 -11.5854 3.4310
3 2 8 0.4547 19.2265
3 2 9 11.9349 -11.2639
3 2 10 -4.2503 -14.3858
3 2 11 17.4259 14.7360
3 2 12 3.5581 -5.8572
3 2 13 9.5328 -11.8139
3 2 14 -23.9084 -7.5197
3 2 15 -11.3382 -7.7951
3 2 16 10.9809 12.3980
3 2 17 -3.8825 13.9512
3 2 18 -1.6757 15.3019
3 2 19 -6.7435 -5.5007
3 2 20 -10.3416 -4.0472
3 2 21 -1.9763 11.6929
3 2 22 -8.1187 13.7339
3 2 23 -21.3403 -8.7785
3 2 24 -18.3992 0.5751
3 2 25 12.9791 7.5519
3 2 26 -11.0671 -7.3484
3 2 27 15.4026 3.1482
3 2 28 -4.3839 -9.9319
3 2 29 -5.8608 -7.6910
3 2 30 -4.0232 -3.2784
3 2 31 0.0757 5.8926
3 2 32 13.3283 -9.5718
3 2 33 -1.0286 -0.3612
3 2 34 -6.6037 0.5869
3 2 35 4.0770 -11.5671
3 2 36 -5.0115 -7.9090
3 2 37 -10.9354 6.4596
3 2 38 -11.2157 7.4393
3 2 39 -8.3684 5.0977
3 2 40 -17.1209 -1.5512
3 2 41 8.4247 0.5709
3 2 42 -8.9344 0.2633
3 2 43 11.0098 3.0478
3 2 44 0.0363 3.5633
3 2 45 4.4991 -0.4540
3 3 0 -10.9491 0.4740
3 3 1 -0.3472 19.6011
3 3 2 -2.7335 24.0296
3 3 3 -21.3995 39.2062
3 3 4 3.1361 40.5464
3 3 5 -4.2335 -16.1590
3 3 6 23.1691 -8.0427
3 3 7 16.7959 -27.8959
3 3 8 -12.4314 5.6523
3 3 9 -15.8257 27.3430
3 3 10 -5.1876 -11.6982
3 3 11 12.5143 -22.6216
3 3 12 15.4826 12.6411
3 3 13 -22.2459 16.5241
3 3 14 3.9240 3.6344
3 3 15 24.6854 19.0111
3 3 16 21.8897 -16.5506
3 3 17 -15.9809 -10.1162
3 3 18 0.1035 29.6886
3 3 19 11.9481 16.7900
3 3 20 -3.9902 -1.1857
3 3 21 -3.2567 -2.8074
3 3 22 9.4286 7.8592
3 3 23 3.8575 4.6083
3 3 24 -16.0405 4.5845
3 3 25 -5.3028 5.3075
3 3 26 -12.0520 -6.4667
3 3 27 -1.6657 0.1940
3 3 28 7.3845 1.4743
3 3 29 -1.7169 11.4089
3 3 30 -1.4577 -10.8135
3 3 31 -2.3115 -1.7459
3 3 32 3.9526 0.2114
3 3 33 -13.6194 6.4793
3 3 34 1.5101 16.0286
3 3 35 -4.3112 11.3051
3 3 36 12.2974 0.8494
3 3 37 6.5828 -2.5109
3 3 38 -0.7295 9.0953
3 3 39 -2.3218 4.7744
3 3 40 -6.5877 -4.7864
3 3 41 -1.5447 2.7389
3 3 42 8.7578 -4.0020
3 3 43 4.4036 -1.2000
3 3 44 -7.2841 -7.8632
3 4 0 3.7376 3.4140
3 4 1 45.8855 -17.9820
3 4 2 -14.4505 -2.7183
3 4 3 -11.7835 10.5364
3 4 4 24.7696 -33.2007
3 4 5 -16.9751 -27.8255
3 4 6 -26.7277 26.5705
3 4 7 35.1628 -3.3754
3 4 8 -6.7500 -2.3516
3 4 9 2.0092 -0.8263
3 4 10 6.7176 -11.5727
3 4 11 -0.4847 -13.2595
3 4 12 -1.9675 -6.0795
3 4 13 21.5229 -11.7187
3 4 14 -2.0023 0.8076
3 4 15 -2.0609 -3.4968
3 4 16 8.6645 7.6097
3 4 17 -4.8920 -6.7575
3 4 18 1.2451 -0.7887
3 4 19 7.7533 -4.2434
3 4 20 -0.0356 5.0913
3 4 21 -4.9264 -3.5166
3 4 22 4.4282 2.5267
3 4 23 19.0570 11.0097
3 4 24 9.7790 13.0661
3 4 25 -3.9311 9.5767
3 4 26 -3.4391 -13.5853
3 4 27 -3.8917 -8.3746
3 4 28 1.3445 -4.5893
3 4 29 4.2091 11.0675
3 4 30 5.5232 13.2386
3 4 31 8.5605 3.3538
3 4 32 4.4189 -0.2032
3 4 33 2.8815 -1.5838
3 4 34 6.9549 -2.3988
3 4 35 -6.3987 -11.7250
3 4 36 -6.5484 13.1492
3 4 37 3.6871 -5.2696
3 4 38 -2.2189 7.4271
3 4 39 4.6233 -0.3979
3 4 40 1.0614 -3.0928
3 4 41 -4.2371 -1.3229
3 4 42 -3.7237 -1.9414
3 4 43 0.8520 0.7087
3 4 44 -3.6279 2.4418
3 5 0 0.6969 16.1946
3 5 1 -26.2934 36.2217
3 5 2 -32.2133 -28.3616
3 5 3 3.4492 19.7579
3 5 4 16.7790 -19.3682
3 5 5 -19.2965 -15.5385
3 5 6 4.2784 22.6656
3 5 7 -4.3878 10.8505
3 5 8 -29.5180 -25.6878
3 5 9 5.3146 -4.2072
3 5 10 -1.1662 -11.5919
3 5 11 -11.9610 17.3884
3 5 12 -12.4885 -5.7765
3 5 13 14.3497 2.6668
3 5 14 20.5274 -12.3397
3 5 15 -8.3826 6.8273
3 5 16 -24.0404 12.1752
3 5 17 6.0295 12.2869
3 5 18 1.3459 -14.4025
3 5 19 -1.6178 -22.3658
3 5 20 5.3338 0.8049
3 5 21 7.2763 -2.5848
3 5 22 6.3810 -14.0850
3 5 23 5.2646 -8.6495
3 5 24 -7.2327 1.7918
3 5 25 -8.6585 2.1939
3 5 26 4.0110 8.6961
3 5 27 5.3605 -3.6863
3 5 28 16.9486 -12.3630
3 5 29 12.2774 -16.0125
3 5 30 5.5240 3.7737
3 5 31 -7.0095 4.7658
3 5 32 -13.4585 -3.9254
3 5 33 0.6240 12.1510
3 5 34 11.1890 -1.2981
3 5 35 3.1175 -5.9896
3 5 36 -2.2739 5.6202
3 5 37 1.2836 8.0093
3 5 38 -12.0455 -12.2584
3 5 39 3.7715 -0.9350
3 5 40 -2.0931 4.6095
3 5 41 5.2386 2.0938
3 5 42 -2.8197 -1.7101
3 5 43 1.6157 8.1611
3 6 0 1.8861 29.2968
3 6 1 1.9957 -2.3694
3 6 2 -1.1263 11.0071
3 6 3 -11.7638 -24.4013
3 6 4 13.4289 3.5934
3 6 5 -11.1465 25.0879
3 6 6 23.7397 11.8910
3 6 7 -19.6034 -13.3605
3 6 8 -18.2718 11.6384
3 6 9 5.2486 -5.3117
3 6 10 10.7397 -7.8468
3 6 11 -1.6187 6.4388
3 6 12 20.4698 -13.4873
3 6 13 -21.6244 8.5584
3 6 14 11.5508 5.6628
3 6 15 0.6502 -0.7245
3 6 16 -2.0944 10.7048
3 6 17 -21.6040 1.6873
3 6 18 -7.5018 -11.7907
3 6 19 -11.2534 -2.8072
3 6 20 -9.0333 -6.6610
3 6 21 6.6743 2.3183
3 6 22 -3.9484 10.1113
3 6 23 -7.6327 -0.9213
3 6 24 1.0017 -5.1166
3 6 25 -0.8253 -16.9466
3 6 26 -7.7951 -13.1210
3 6 27 -4.0209 -6.2997
3 6 28 -10.1702 4.6952
3 6 29 2.4034 1.6564
3 6 30 -4.1872 3.9851
3 6 31 6.4384 2.8997
3 6 32 1.2236 -1.2887
3 6 33 -1.7230 -6.5997
3 6 34 1.2676 -5.1559
3 6 35 1.3663 9.2875
3 6 36 2.2427 9.5463
3 6 37 -7.3712 1.1727
3 6 38 3.1143 -0.8171
3 6 39 -6.4175 -6.1945
3 6 40 6.6740 -5.0330
3 6 41 5.7218 1.4233
3 6 42 4.3040 1.4363
3 7 0 -2.8121 -15.3295
3 7 1 1.5827 -22.5726
3 7 2 9.1810 7.2208
3 7 3 0.2764 2.0199
3 7 4 -23.6298 -1.8484
3 7 5 27.7104 14.9032
3 7 6 -0.2456 9.5633
3 7 7 -20.1650 -30.2989
3 7 8 0.7472 27.7873
3 7 9 5.2417 -5.7590
3 7 10 -16.1184 -16.8504
3 7 11 16.4647 1.2346
3 7 12 15.1743 9.3130
3 7 13 -11.0326 -5.0442
3 7 14 2.3811 26.5065
3 7 15 -6.9349 2.5762
3 7 16 4.8562 10.9904
3 7 17 4.0532 -6.8226
3 7 18 -10.5367 17.1619
3 7 19 -0.6155 4.4867
3 7 20 11.3144 -1.9096
3 7 21 0.8853 -0.0602
3 7 22 -4.9176 3.7904
3 7 23 -23.4669 13.3575
3 7 24 -7.4573 3.9098
3 7 25 8.6463 4.1246
3 7 26 6.1336 6.5404
3 7 27 10.0239 1.3883
3 7 28 -2.1328 12.6045
3 7 29 -2.0006 10.1776
3 7 30 -6.5650 -14.1574
3 7 31 -0.7779 1.1144
3 7 32 5.6595 -2.0111
3 7 33 6.8971 -5.9403
3 7 34 1.4231 -2.8353
3 7 35 3.3249 14.0298
3 7 36 -1.6976 -4.4167
3 7 37 -12.0218 -8.3354
3 7 38 -2.4110 3.9101
3 7 39 2.3740 -4.9143
3 7 40 -1.1435 -3.5745
3 7 41 10.6443 -3.6644
3 8 0 1.9776 -10.2513
3 8 1 -9.3400 5.1526
3 8 2 7.0562 3.7906
3 8 3 24.0485 3.0166
3 8 4 -1.3806 10.5880
3 8 5 -8.0137 -8.9463
3 8 6 -0.1232 -15.2943
3 8 7 1.2859 21.3423
3 8 8 -2.8545 2.0198
3 8 9 13.9003 -12.9628
3 8 10 -15.8034 -5.2199
3 8 11 10.7305 -1.1833
3 8 12 9.2484 0.7922
3 8 13 11.2987 9.8668
3 8 14 9.3795 2.3959
3 8 15 2.5701 -3.6289
3 8 16 -5.5541 5.1801
3 8 17 14.7092 -16.0896
3 8 18 -5.8762 -3.8304
3 8 19 8.0959 9.1377
3 8 20 3.4881 7.1453
3 8 21 8.3291 5.6063
3 8 22 6.9157 4.2541
3 8 23 9.0926 -16.7487
3 8 24 10.2529 -6.7429
3 8 25 1.3793 -10.8147
3 8 26 10.3042 7.1606
3 8 27 6.2901 4.9010
3 8 28 -5.6343 4.9350
3 8 29 -0.4486 3.9304
3 8 30 -6.0890 -7.9084
3 8 31 -9.3780 -8.6539
3 8 32 0.6576 -10.3851
3 8 33 0.0035 5.5082
3 8 34 -1.1323 13.3349
3 8 35 -8.0433 8.4352
3 8 36 0.8940 -4.0236
3 8 37 -5.2619 -0.2912
3 8 38 -0.1455 -4.1313
3 8 39 4.2985 -9.8130
3 8 40 3.9856 0.0886
3 9 0 4.2614 -12.2824
3 9 1 -2.8023 -2.0173
3 9 2 -4.6440 -6.3309
3 9 3 -1.5059 -4.4527
3 9 4 10.3646 2.5592
3 9 5 -5.0220 2.2511
3 9 6 -12.5339 -7.9117
3 9 7 14.0202 14.0855
3 9 8 0.2190 -5.2122
3 9 9 -8.3030 -11.9148
3 9 10 5.6189 6.5270
3 9 11 -0.3578 1.3068
3 9 12 -1.1122 -31.0965
3 9 13 13.1789 5.1172
3 9 14 -0.7289 -3.8917
3 9 15 -14.6369 -10.6673
3 9 16 -8.0939 11.0091
3 9 17 7.2570 4.1940
3 9 18 3.8150 -19.0961
3 9 19 15.7282 -7.5090
3 9 20 -3.1577 -6.8497
3 9 21 -22.6288 -2.1292
3 9 22 -11.7891 -10.6697
3 9 23 12.3333 -0.7479
3 9 24 1.6252 -6.5216
3 9 25 12.2979 -4.0112
3 9 26 -1.5583 5.9339
3 9 27 -0.0214 3.3144
3 9 28 -7.8892 -2.4117
3 9 29 -5.5865 3.8471
3 9 30 -11.8837 12.7695
3 9 31 1.6749 6.8749
3 9 32 11.4650 -2.0324
3 9 33 8.2947 9.6512
3 9 34 3.0427 3.6870
3 9 35 -13.3174 -9.7064
3 9 36 -10.7891 -0.9695
3 9 37 -1.2690 -0.5338
3 9 38 3.3175 -3.8688
3 9 39 -1.0370 1.8147
3 10 0 3.5786 12.6735
3 10 1 -10.3411 -7.6377
3 10 2 11.2583 -4.4554
3 10 3 -11.8227 -5.8360
3 10 4 3.3959 -5.2805
3 10 5 12.5620 -0.3512
3 10 6 4.0842 10.7308
3 10 7 -15.1717 -4.4592
3 10 8 10.0502 -15.6295
3 10 9 -12.4561 9.4340
3 10 10 -14.1604 -1.7556
3 10 11 -5.0100 1.2009
3 10 12 -6.7853 -2.0830
3 10 13 -8.6291 0.3450
3 10 14 18.2443 2.1958
3 10 15 -5.0262 0.2687
3 10 16 -3.9302 -9.0878
3 10 17 -5.8373 -3.6392
3 10 18 -6.0896 -0.6159
3 10 19 -3.6329 8.2246
3 10 20 6.0124 -0.1995
3 10 21 -2.9649 -3.3964
3 10 22 -2.4250 -12.0869
3 10 23 -6.1162 -8.2848
3 10 24 7.0273 3.2840
3 10 25 -7.6061 15.1097
3 10 26 -1.0024 -3.3655
3 10 27 4.4665 15.5911
3 10 28 15.4675 9.5149
3 10 29 5.1833 -2.7998
3 10 30 2.9632 -5.8054
3 10 31 3.8297 0.8906
3 10 32 -1.1941 5.0137
3 10 33 -7.9553 11.7898
3 10 34 -2.4454 3.4595
3 10 35 -3.8683 1.4404
3 10 36 -1.3568 3.2447
3 10 37 5.8905 -6.4361
3 11 0 -5.6087 -6.7683
3 11 1 -8.2055 -4.1520
3 11 2 -7.8362 11.1097
3 11 3 -0.4373 -18.0433
3 11 4 -3.1845 2.5695
3 11 5 9.4843 1.2147
3 11 6 -1.7636 10.9015
3 11 7 -11.5326 -1.3797
3 11 8 -1.8208 20.1073
3 11 9 4.6918 7.2368
3 11 10 6.6851 4.0409
3 11 11 -0.3659 -6.8482
3 11 12 2.0816 2.4482
3 11 13 -27.5710 -8.9066
3 11 14 -2.9108 -2.1664
3 11 15 8.2691 1.2443
3 11 16 0.6959 3.2039
3 11 17 -3.3019 -21.7441
3 11 18 -1.4008 6.3309
3 11 19 -16.5014 2.7197
3 11 20 -8.7486 3.9393
3 11 21 10.0982 -1.4457
3 11 22 12.3957 12.1463
3 11 23 2.9365 -2.6784
3 11 24 11.1329 4.9214
3 11 25 11.9737 -5.5839
3 11 26 5.4154 -7.0388
3 11 27 -4.6467 -17.8445
3 11 28 9.5450 8.1521
3 11 29 1.3888 1.7005
3 11 30 8.9832 3.5064
3 11 31 15.2729 -2.2562
3 11 32 2.2409 5.1683
3 11 33 -7.4756 -3.4565
3 11 34 -7.7927 -0.7563
3 11 35 0.7832 -0.4530
3 12 0 0.2261 4.0806
3 12 1 -1.3696 -0.6175
3 12 2 -0.3559 5.2768
3 12 3 8.6629 -6.4742
3 12 4 1.0394 3.2637
3 12 5 8.8552 6.4152
3 12 6 8.3761 -3.0490
3 12 7 20.8587 3.5902
3 12 8 -11.2353 -3.9792
3 12 9 -2.1593 -8.5401
3 12 10 -4.8749 8.5933
3 12 11 -4.4503 17.1429
3 12 12 -8.8844 10.5636
3 12 13 -0.3680 -1.6625
3 12 14 -18.6457 2.3626
3 12 15 -8.2403 -16.6110
3 12 16 2.0208 9.7084
3 12 17 5.8571 9.4727
3 12 18 -1.2011 1.3786
3 12 19 21.3935 -10.4850
3 12 20 -1.7568 -12.6368
3 12 21 -1.0719 -17.0181
3 12 22 -5.9451 -8.9796
3 12 23 6.9352 4.3743
3 12 24 -17.7768 -4.4318
3 12 25 2.6947 -6.7164
3 12 26 0.5883 2.6141
3 12 27 5.7671 -7.0006
3 12 28 -3.7373 -14.6256
3 12 29 2.9374 -13.3290
3 12 30 -10.9073 5.9568
3 12 31 -0.0537 10.4048
3 12 32 -5.6201 8.7226
3 12 33 2.2302 -2.2341
3 13 0 9.8392 -2.9080
3 13 1 -6.5350 6.3356
3 13 2 4.1095 -16.2053
3 13 3 9.2660 -3.2480
3 13 4 2.0690 -8.2153
3 13 5 -6.2541 -16.6687
3 13 6 -8.3256 0.1362
3 13 7 6.3808 13.7187
3 13 8 9.2017 -1.3119
3 13 9 8.6596 11.0759
3 13 10 12.2338 4.2135
3 13 11 -4.7486 5.6766
3 13 12 -5.5500 4.8294
3 13 13 5.6456 12.6697
3 13 14 -2.5736 -5.3751
3 13 15 -14.9842 -7.9607
3 13 16 -8.7687 -11.4578
3 13 17 7.0094 -2.6761
3 13 18 -20.8602 -3.4482
3 13 19 -6.6611 0.4729
3 13 20 1.2664 4.7216
3 13 21 -2.8118 11.9750
3 13 22 -2.2827 -2.5456
3 13 23 10.9203 -1.7058
3 13 24 4.7163 -8.8733
3 13 25 -16.9247 5.0290
3 13 26 -6.7914 -5.5212
3 13 27 0.1161 15.5644
3 13 28 -2.7457 0.5735
3 13 29 10.1384 1.9310
3 13 30 11.3723 3.2715
3 13 31 -0.8729 4.4995
3 14 0 -1.1563 -6.4110
3 14 1 -10.3681 -9.9150
3 14 2 -7.1541 1.3487
3 14 3 -26.5800 -0.0902
3 14 4 12.1686 6.6493
3 14 5 7.0483 -2.6943
3 14 6 -0.4119 -4.8090
3 14 7 2.0156 -18.7939
3 14 8 5.6509 -10.2957
3 14 9 -2.7646 15.7615
3 14 10 1.0280 1.3721
3 14 11 -4.5194 -11.9367
3 14 12 -4.0878 10.3233
3 14 13 -6.4034 8.2314
3 14 14 1.3652 11.6038
3 14 15 -8.2477 12.6414
3 14 16 -0.5966 7.4154
3 14 17 0.3537 -12.9565
3 14 18 12.7778 -5.8967
3 14 19 2.1217 9.1539
3 14 20 -5.4018 -10.4935
3 14 21 1.9658 -7.3942
3 14 22 -9.0381 -2.9314
3 14 23 -4.8503 0.5176
3 14 24 4.5756 3.7208
3 14 25 2.9527 5.8389
3 14 26 1.2027 0.1653
3 14 27 -1.6639 -10.6314
3 14 28 5.8678 -4.9777
3 15 0 1.1674 24.7207
3 15 1 -3.1093 3.0862
3 15 2 5.8501 5.7001
3 15 3 -4.2778 -15.2399
3 15 4 -8.7541 5.5213
3 15 5 -5.7120 -1.9245
3 15 6 -6.0176 10.2575
3 15 7 2.7163 -1.0878
3 15 8 -1.9882 8.2969
3 15 9 -2.1159 5.1768
3 15 10 -1.3194 2.6560
3 15 11 2.0025 -0.5366
3 15 12 14.1294 3.0744
3 15 13 10.9757 -6.7373
3 15 14 -8.0512 0.3717
3 15 15 5.0471 4.8559
3 15 16 -8.8589 -3.5687
3 15 17 -9.5082 -13.6466
3 15 18 -7.6711 8.2466
3 15 19 3.7483 3.4237
3 15 20 -7.7737 8.1996
3 15 21 -3.1102 1.6853
3 15 22 9.1154 -4.3683
3 15 23 -1.0410 14.5509
3 15 24 -1.8363 0.3508
3 16 0 -2.2756 -4.9318
3 16 1 -2.3130 4.9996
3 16 2 -7.1768 7.8210
3 16 3 17.1642 -1.7376
3 16 4 -3.5589 4.5259
3 16 5 7.9951 -0.7968
3 16 6 -2.2536 -0.6784
3 16 7 5.4187 13.1221
3 16 8 -5.2611 9.3626
3 16 9 -1.0162 -8.8541
3 16 10 -5.9141 -7.3956
3 16 11 -2.8089 0.2778
3 16 12 2.7375 -1.3270
3 16 13 5.5123 -3.2269
3 16 14 -12.2094 3.9431
3 16 15 -3.5477 7.4947
3 16 16 7.9765 -5.4102
3 16 17 -0.5063 13.5855
3 16 18 -0.2318 1.9663
3 16 19 10.7693 -7.3984
3 16 20 -1.1469 -12.1166
3 17 0 8.0036 1.8310
3 17 1 -7.2395 -14.9987
3 17 2 5.0253 -0.7879
3 17 3 1.5603 6.0987
3 17 4 -0.9827 5.0472
3 17 5 12.1457 6.6147
3 17 6 7.4456 -1.8168
3 17 7 -1.9571 14.3146
3 17 8 0.9714 -3.0816
3 17 9 -7.5556 0.1372
3 17 10 -3.5209 -0.3982
3 17 11 5.5141 -1.9489
3 17 12 -4.5566 1.6521
3 17 13 -0.4198 6.7359
4 0 0 -8.1063 -6.0364
4 0 1 1.9267 -18.9726
4 0 2 -29.1726 -6.4425
4 0 3 -5.9480 24.6174
4 0 4 35.4053 -9.4671
4 0 5 -6.5976 -34.8945
4 0 6 -25.9562 6.6576
4 0 7 18.2248 22.6120
4 0 8 2.6763 20.2960
4 0 9 13.3556 -11.5496
4 0 10 -12.7535 1.6559
4 0 11 -4.4722 -52.1273
4 0 12 -22.4415 -2.2637
4 0 13 -5.7908 -22.8186
4 0 14 -15.6227 -3.1957
4 0 15 -2.9142 -12.6093
4 0 16 10.0680 -5.7187
4 0 17 0.4741 -4.4457
4 0 18 -6.6473 -7.7786
4 0 19 -12.5522 -28.4027
4 0 20 -10.8643 -4.1025
4 0 21 -2.2122 -24.0415
4 0 22 0.0534 10.7884
4 0 23 14.0260 21.5382
4 0 24 -15.6136 8.4548
4 0 25 6.4899 -23.6122
4 0 26 6.6669 5.3730
4 0 27 4.1881 5.0892
4 0 28 -2.3650 2.1742
4 0 29 -7.4865 9.7359
4 0 30 7.8252 -7.4626
4 0 31 -1.1348 -11.7884
4 0 32 -5.3531 -5.1622
4 0 33 -1.8942 7.1864
4 0 34 6.8202 -5.7212
4 0 35 -8.8253 -10.9005
4 0 36 -6.7410 -1.7771
4 0 37 -0.9423 -7.1215
4 0 38 -7.4742 1.7285
4 0 39 4.5816 2.0773
4 0 40 4.3442 8.0340
4 0 41 13.6354 -3.4017
4 0 42 -1.3950 10.8446
4 0 43 0.6395 -7.6544
4 0 44 1.2954 -3.7391
4 1 0 -19.6059 1.3511
4 1 1 7.8286 11.0306
4 1 2 5.7239 -13.8758
4 1 3 -1.8422 15.1236
4 1 4 13.1279 -6.2184
4 1 5 2.4224 -12.1407
4 1 6 -0.5957 13.6047
4 1 7 -1.0911 -20.7326
4 1 8 -6.1474 -8.3991
4 1 9 -22.6153 43.0275
4 1 10 -61.2911 15.7507
4 1 11 -13.7759 13.1095
4 1 12 -0.5358 -9.6730
4 1 13 14.1784 17.0377
4 1 14 -23.3564 -0.8134
4 1 15 -5.8043 -8.6559
4 1 16 -42.3847 -12.3226
4 1 17 -14.0845 27.2691
4 1 18 14.1876 9.2879
4 1 19 -9.0539 -9.2842
4 1 20 -2.2787 0.1250
4 1 21 7.9517 -4.4292
4 1 22 -5.2215 -4.0808
4 1 23 7.7424 -1.1518
4 1 24 -4.3050 -6.8695
4 1 25 1.4440 14.6911
4 1 26 -5.1460 -3.6128
4 1 27 14.5504 11.5694
4 1 28 -10.4062 -2.2633
4 1 29 -12.0230 5.9916
4 1 30 -10.5902 7.7048
4 1 31 -2.7404 -7.3235
4 1 32 -4.9878 -1.3021
4 1 33 -4.0805 -1.2075
4 1 34 7.4251 10.3801
4 1 35 -7.4451 3.6792
4 1 36 -0.6425 2.5370
4 1 37 2.9509 -8.9463
4 1 38 9.3471 -6.6634
4 1 39 5.3790 -11.7763
4 1 40 -4.6138 -5.9942
4 1 41 1.7120 5.0499
4 1 42 -11.4134 -8.1988
4 1 43 -3.1203 17.1630
4 1 44 -11.7013 2.2732
4 2 0 -0.3815 -6.5314
4 2 1 -10.5227 3.3739
4 2 2 5.5663 -8.8025
4 2 3 1.0225 -21.2235
4 2 4 -1.1105 -3.2070
4 2 5 -31.5123 37.2778
4 2 6 15.7590 30.8013
4 2 7 42.6275 6.9179
4 2 8 9.3619 29.0134
4 2 9 11.7595 19.2584
4 2 10 2.2250 7.0079
4 2 11 -5.7930 21.6565
4 2 12 14.2057 -14.1155
4 2 13 -14.4843 4.8919
4 2 14 7.4901 32.9774
4 2 15 4.2941 34.9122
4 2 16 3.2592 -16.1791
4 2 17 -9.1356 -3.8950
4 2 18 13.0274 -7.0048
4 2 19 -14.6837 1.6923
4 2 20 2.0897 22.4150
4 2 21 3.5611 7.5204
4 2 22 -6.7666 2.9171
4 2 23 6.6411 -28.9608
4 2 24 15.6268 -4.3490
4 2 25 11.8502 21.6888
4 2 26 4.6925 5.5648
4 2 27 -11.9698 14.9138
4 2 28 9.5295 1.7716
4 2 29 -0.5746 10.4175
4 2 30 -0.2251 -2.7110
4 2 31 -8.5766 6.4520
4 2 32 4.6829 -7.5072
4 2 33 10.0766 -3.2649
4 2 34 -3.5805 -2.9094
4 2 35 -4.2967 0.2671
4 2 36 -12.4812 0.6499
4 2 37 -6.1117 -6.6697
4 2 38 -1.4415 7.5403
4 2 39 8.9191 -7.1168
4 2 40 -5.2725 9.9050
4 2 41 10.2057 14.0752
4 2 42 11.3318 0.7672
4 2 43 -3.1419 3.4180
4 2 44 7.5697 0.4993
4 3 0 22.6293 7.2725
4 3 1 -17.6453 1.3793
4 3 2 -3.9717 15.3978
4 3 4 34.4625 -5.8495
4 3 5 23.2839 -18.5845
4 3 6 32.2454 -17.5322
4 3 7 -1.8718 -22.2221
4 3 8 -12.1573 14.6477
4 3 9 14.5502 5.8758
4 3 10 16.7584 -22.0691
4 3 11 10.4363 1.7393
4 3 12 10.6842 9.1626
4 3 13 -0.1044 -8.6484
4 3 14 5.5192 -6.6035
4 3 15 0.7798 -3.7804
4 3 16 10.9979 15.8501
4 3 17 -0.1895 -7.9773
4 3 18 9.5061 -7.7339
4 3 19 15.2599 -8.6000
4 3 20 3.4440 11.3632
4 3 21 -14.0627 -12.1056
4 3 22 -15.9801 -3.7121
4 3 23 5.3183 -10.3575
4 3 24 1.9698 -4.1639
4 3 25 35.3349 7.4755
4 3 26 12.1725 2.3187
4 3 27 -16.0168 -2.6830
4 3 28 -3.8964 1.8216
4 3 29 -3.4268 -3.3916
4 3 30 9.0122 -1.0459
4 3 31 -11.4878 -1.1609
4 3 32 1.6155 7.4602
4 3 33 -1.5151 -1.4761
4 3 34 0.5398 1.0642
4 3 35 -3.6871 0.9822
4 3 36 12.1601 -1.6534
4 3 37 2.7988 -5.2611
4 3 38 -3.8104 -5.2783
4 3 39 12.8498 -1.9389
4 3 40 -0.6914 -9.1017
4 3 41 8.4573 3.4112
4 3 42 -0.5660 -5.2859
4 3 43 -1.8105 -0.5073
4 3 44 -1.0111 -0.8888
4 4 0 12.8693 -17.4825
4 4 1 -8.8480 -10.8438
4 4 2 2.8935 -16.2827
4 4 3 -16.5897 -16.7871
4 4 4 -27.6015 -9.5319
4 4 5 11.7576 -23.1711
4 4 6 6.8551 13.6406
4 4 7 -11.0678 5.5112
4 4 8 -19.5857 0.8374
4 4 9 5.2776 -14.8113
4 4 10 2.3193 -12.4180
4 4 11 -5.7444 -11.7048
4 4 12 -9.0481 11.9563
4 4 13 -2.4554 22.3177
4 4 14 -1.5577 -22.6611
4 4 15 -9.3779 -34.0006
4 4 16 -0.5745 1.9255
4 4 17 -0.4710 5.5301
4 4 18 -16.9646 7.2984
4 4 19 8.5809 7.5520
4 4 20 2.3561 5.3096
4 4 21 1.5669 -1.5609
4 4 22 -3.2506 -2.9564
4 4 23 10.2633 -4.5589
4 4 24 -5.5143 -9.0421
4 4 25 -4.6104 -2.7428
4 4 26 -3.6443 3.8363
4 4 27 1.4051 11.7244
4 4 28 -0.6475 5.2648
4 4 29 1.2283 -4.1379
4 4 30 1.6791 1.1529
4 4 31 3.1625 -10.6713
4 4 32 -2.8950 12.0493
4 4 33 -10.6413 -2.3269
4 4 34 -10.0504 -8.9493
4 4 35 1.9119 -10.2247
4 4 36 1.4607 4.5305
4 4 37 2.7752 -6.0946
4 4 38 -6.7292 -0.2615
4 4 39 -2.8405 4.7874
4 4 40 2.4773 -6.2370
4 4 41 -2.4478 -1.5785
4 4 42 -2.4195 -1.9506
4 4 43 -1.7341 5.7797
4 5 0 -48.2513 -10.4607
4 5 1 -6.4471 13.8366
4 5 2 17.1356 9.6730
4 5 3 -9.2147 -5.4417
4 5 4 7.5565 12.3292
4 5 5 10.1945 -3.8718
4 5 6 -17.1755 4.8549
4 5 7 13.5694 23.1973
4 5 8 3.6058 -7.2622
4 5 9 -6.8561 -4.8722
4 5 10 -9.6050 8.7729
4 5 11 19.9599 14.0195
4 5 12 -0.9641 5.3423
4 5 13 -17.0936 4.3511
4 5 14 1.6138 3.2478
4 5 15 -8.8287 5.9657
4 5 16 12.5731 -2.6805
4 5 17 27.3423 -15.0818
4 5 18 7.3543 2.7562
4 5 19 -11.7947 3.7266
4 5 20 -5.1863 -17.4361
4 5 21 6.2870 2.2883
4 5 22 -0.8520 3.0713
4 5 23 5.6259 16.3858
4 5 24 4.6252 4.1658
4 5 25 -6.6914 -3.8661
4 5 26 -7.3812 -5.8836
4 5 27 15.4198 -0.6510
4 5 28 2.7222 -1.9847
4 5 29 -1.6413 3.3139
4 5 30 -12.5393 1.9288
4 5 31 5.7228 12.3214
4 5 32 -9.0574 3.0345
4 5 33 -2.4712 -0.2056
4 5 34 -6.1628 -1.4246
4 5 35 7.8306 -4.6748
4 5 36 -3.5297 -6.3256
4 5 37 3.4996 8.3203
4 5 38 -0.6288 1.6852
4 5 39 -3.7077 1.6955
4 5 40 -1.0928 1.9139
4 5 41 0.1722 1.1140
4 5 42 0.4265 -2.4148
4 5 43 0.3671 0.8320
4 6 0 5.8992 -0.7728
4 6 1 3.2324 10.4304
4 6 2 14.1759 -31.0836
4 6 3 -9.1720 -18.1911
4 6 4 20.6849 16.7415
4 6 5 3.1012 3.3198
4 6 6 -24.0199 -11.5381
4 6 7 12.5392 -6.5856
4 6 8 18.7287 -9.8013
4 6 9 -4.6530 -3.8684
4 6 10 5.0290 -0.8918
4 6 11 2.1415 14.8560
4 6 12 8.0833 -15.3918
4 6 13 -3.9800 -16.0965
4 6 14 -14.2215 -0.2413
4 6 15 -4.4350 -13.0469
4 6 16 -3.2228 -0.7919
4 6 17 -5.0514 -12.1735
4 6 18 0.3901 2.5343
4 6 19 9.4225 5.1995
4 6 20 0.7224 2.7390
4 6 21 5.2658 -5.2882
4 6 22 13.5005 -7.9144
4 6 23 -11.2513 6.3443
4 6 24 -1.0570 6.5456
4 6 25 -9.3128 3.3073
4 6 26 2.6898 -7.9465
4 6 27 6.3878 -3.9508
4 6 28 -1.2690 -0.7994
4 6 29 4.5453 12.1945
4 6 30 4.6762 1.2688
4 6 31 -4.5780 17.4262
4 6 32 2.0215 -13.4431
4 6 33 -3.5576 -3.3019
4 6 34 3.5417 1.4824
4 6 35 -1.2091 8.5704
4 6 36 1.1134 -9.9670
4 6 37 -1.4837 11.9121
4 6 38 11.3334 -0.6083
4 6 39 -2.2908 -7.9047
4 6 40 0.2118 0.1496
4 6 41 0.3814 5.3684
4 6 42 -0.6785 -2.3533
4 7 0 -13.6400 -0.0954
4 7 1 -8.2952 -8.2752
4 7 2 -6.0552 -2.7153
4 7 3 -4.4624 3.9895
4 7 4 1.5924 16.3011
4 7 5 -6.7162 -10.8313
4 7 6 -4.8588 10.2956
4 7 7 -12.5546 -13.0329
4 7 8 -10.2824 -10.0067
4 7 9 10.8119 13.7790
4 7 10 2.8996 7.1107
4 7 11 -21.0311 2.1326
4 7 12 -13.3592 9.3699
4 7 13 -11.4835 -3.3848
4 7 14 -1.4847 11.9077
4 7 15 6.6446 0.7873
4 7 16 -1.8822 -14.0485
4 7 17 0.6352 2.2160
4 7 18 -8.3975 -6.6985
4 7 19 14.4686 -11.6450
4 7 20 -0.4022 -2.3136
4 7 21 -5.3788 16.6937
4 7 22 5.5137 5.1814
4 7 23 1.8920 -4.3000
4 7 24 -0.1000 -1.5967
4 7 25 -1.6997 -8.2549
4 7 26 6.7399 11.6050
4 7 27 -2.8628 -5.9183
4 7 28 0.5440 -6.0394
4 7 29 9.6234 1.8870
4 7 30 7.1942 -4.2068
4 7 31 -10.6628 -4.8316
4 7 32 7.2886 -4.5749
4 7 33 0.5310 -0.2872
4 7 34 5.9885 2.4641
4 7 35 -2.5924 -0.7701
4 7 36 2.5566 3.2118
4 7 37 -14.1569 -8.6281
4 7 38 5.3743 -1.9124
4 7 39 0.8858 0.1905
4 7 40 1.7602 10.1719
4 7 41 -1.3796 -5.7171
4 8 0 4.4044 0.0856
4 8 1 -2.6899 1.7229
4 8 2 4.1588 5.1351
4 8 3 15.6179 17.5878
4 8 4 -4.6883 -7.8165
4 8 5 -3.8605 -7.9563
4 8 6 4.5196 13.7351
4 8 7 12.2583 0.6004
4 8 8 -14.3836 -3.7981
4 8 9 19.9450 10.3731
4 8 10 13.0763 7.4791
4 8 11 -5.0880 6.4745
4 8 12 -0.1621 12.2827
4 8 13 -7.8207 4.9920
4 8 14 -3.1076 -10.9452
4 8 15 8.4395 -5.5105
4 8 16 -14.4072 3.6091
4 8 17 -11.1734 0.2017
4 8 18 7.7096 -0.2430
4 8 19 2.0554 3.5510
4 8 20 10.7287 -9.4387
4 8 21 -2.1899 0.4876
4 8 22 -7.4558 4.7369
4 8 23 -11.3064 -2.8666
4 8 24 7.5601 -4.9950
4 8 25 2.5913 -2.7571
4 8 26 -10.9963 8.8016
4 8 27 -4.3273 -6.6251
4 8 28 -8.9817 -4.5539
4 8 29 -3.1817 -1.5385
4 8 30 -4.6866 -7.3999
4 8 31 -2.1996 -9.6767
4 8 32 3.8180 7.5713
4 8 33 2.1174 7.8347
4 8 34 3.9707 2.5604
4 8 35 -2.7207 5.5260
4 8 36 1.0788 7.1311
4 8 37 5.2547 -11.7794
4 8 38 0.7578 -1.5294
4 8 39 2.4494 3.0950
4 9 0 6.1391 -5.6820
4 9 1 18.2791 1.1068
4 9 2 -5.6092 4.9574
4 9 3 -11.1388 -10.1549
4 9 4 -0.6960 -7.1163
4 9 5 -6.7640 7.1810
4 9 6 -2.1066 1.3375
4 9 7 9.9330 -6.1057
4 9 8 6.9769 -6.8275
4 9 9 -2.3919 -0.6281
4 9 10 9.5949 -11.6923
4 9 11 10.1424 11.6872
4 9 12 1.4764 5.0006
4 9 13 -4.5389 1.4346
4 9 14 1.1581 9.1484
4 9 15 -5.4899 -7.0527
4 9 16 3.9796 7.5066
4 9 17 5.7460 4.6502
4 9 18 -0.6493 -9.0350
4 9 19 -3.2580 2.7470
4 9 20 0.8939 14.9058
4 9 21 4.5484 -4.6680
4 9 22 -3.0409 3.2128
4 9 23 0.9916 0.6309
4 9 24 3.1594 8.3192
4 9 25 -2.6120 3.2820
4 9 26 -7.2130 8.9982
4 9 27 -1.1025 0.2516
4 9 28 -7.0518 1.2139
4 9 29 -2.7739 0.9643
4 9 30 2.2301 -2.6263
4 9 31 13.4592 -2.4851
4 9 32 8.7562 -4.3791
4 9 33 8.0958 -5.8002
4 9 34 1.6072 -1.7136
4 9 35 -10.8372 -7.6801
4 9 36 -4.2154 -5.9476
4 9 37 6.1031 0.9905
4 9 38 4.8843 8.1385
4 10 0 2.7830 3.4562
4 10 1 2.9734 3.1882
4 10 2 6.9688 8.6660
4 10 3 -7.1546 10.3608
4 10 4 3.2815 3.3342
4 10 5 9.6240 4.8990
4 10 6 -9.6648 -8.8923
4 10 7 -6.0600 -7.5625
4 10 8 -4.4732 -0.0631
4 10 9 -4.5928 -9.3949
4 10 10 4.8558 -4.5331
4 10 11 7.4749 1.6670
4 10 12 10.4642 -1.9443
4 10 13 -1.3126 -4.2150
4 10 14 5.5283 8.7867
4 10 15 -0.5395 0.0235
4 10 16 -5.5789 -4.0970
4 10 17 21.1882 -5.9420
4 10 18 -1.7017 -2.9041
4 10 19 -4.1733 -11.2461
4 10 20 -1.7936 1.0402
4 10 21 -1.4699 6.0946
4 10 22 -3.1880 -4.2532
4 10 23 15.8559 0.1423
4 10 24 -5.5400 3.7034
4 10 25 -8.2797 5.8363
4 10 26 1.9336 -0.8478
4 10 27 7.1398 -1.4692
4 10 28 -9.0408 -1.8345
4 10 29 -1.8824 -11.0775
4 10 30 -3.8324 -7.9100
4 10 31 -2.2319 -2.0344
4 10 32 -6.9219 -7.2647
4 10 33 -7.8482 7.5121
4 10 34 -5.2230 7.8012
4 10 35 8.5289 -2.8905
4 10 36 4.3646 -6.4042
4 11 0 20.4633 -2.2828
4 11 1 -2.2889 -6.0201
4 11 2 5.5777 -4.0847
4 11 3 11.6953 -0.7840
4 11 4 -7.0997 14.1917
4 11 5 -12.2178 -3.7949
4 11 6 5.6723 3.9069
4 11 7 -11.9905 13.3651
4 11 8 -2.1447 -10.3661
4 11 9 13.3160 -1.1640
4 11 10 -4.2680 -6.5917
4 11 11 -9.1861 -9.7448
4 11 12 11.0546 -2.0756
4 11 13 2.3825 -5.1777
4 11 14 -4.2011 3.2186
4 11 15 -1.8416 -3.1764
4 11 16 -11.8995 -0.0173
4 11 17 -18.9928 2.4212
4 11 18 -2.7974 8.3935
4 11 19 8.6516 15.6129
4 11 20 -3.7410 -4.0163
4 11 21 1.9080 3.1475
4 11 22 -0.1961 5.4685
4 11 23 -5.2686 4.6939
4 11 24 -3.6009 -7.8446
4 11 25 2.1329 9.0806
4 11 26 -0.7930 -0.1822
4 11 27 -6.3992 -4.0083
4 11 28 -5.1787 5.3844
4 11 29 -2.7397 6.9212
4 11 30 -5.3032 -2.8006
4 11 31 3.7328 4.5000
4 11 32 3.9692 -0.0497
4 11 33 -1.5329 -1.6388
4 11 34 -0.6875 -6.9898
4 11 35 2.3844 -4.0265
4 12 0 -8.3121 4.5921
4 12 1 1.2479 -9.2019
4 12 2 5.5351 16.0975
4 12 3 5.9427 3.8752
4 12 4 6.1407 -2.9176
4 12 5 5.3303 5.7559
4 12 6 -7.8007 -0.8302
4 12 7 -3.0005 -16.2912
4 12 8 -2.1496 1.4860
4 12 9 -6.5813 4.0089
4 12 10 4.7036 -0.1925
4 12 11 -20.1185 -0.0530
4 12 12 4.0510 3.0756
4 12 13 12.2961 -0.2168
4 12 14 -2.7080 16.6331
4 12 15 16.3038 8.3465
4 12 16 10.2411 12.7627
4 12 17 1.3032 2.3928
4 12 18 5.2851 3.3913
4 12 19 15.9269 -1.4247
4 12 20 -3.1512 8.4833
4 12 21 -0.0596 6.5588
4 12 22 1.5432 1.4133
4 12 23 -3.5314 5.0477
4 12 24 -2.1685 1.3238
4 12 25 3.1875 0.4373
4 12 26 9.8629 1.8411
4 12 27 -10.5244 8.4101
4 12 28 -3.0333 4.2780
4 12 29 9.5728 5.1806
4 12 30 -3.3698 -1.8119
4 12 31 -7.5090 -3.5175
4 12 32 0.3298 6.9510
4 13 0 27.7931 -1.1200
4 13 1 7.1601 0.5596
4 13 2 -5.2323 -9.0028
4 13 3 -3.6077 -11.1066
4 13 4 -4.4903 7.5544
4 13 5 -2.4082 6.7290
4 13 6 -3.8288 8.4760
4 13 7 3.7464 -4.6003
4 13 8 8.0238 -2.1355
4 13 9 0.2508 9.1387
4 13 10 1.8799 4.1581
4 13 11 11.1707 -11.2766
4 13 12 1.7484 3.5827
4 13 13 5.1953 -24.5268
4 13 14 12.8472 -3.5533
4 13 15 12.7071 3.4041
4 13 16 -3.0267 -11.8147
4 13 17 18.0639 0.6952
4 13 18 4.6444 1.1461
4 13 19 4.4353 -5.1637
4 13 20 1.7102 1.8528
4 13 21 9.0650 13.3225
4 13 22 -1.5042 -11.6451
4 13 23 11.9731 1.2315
4 13 24 7.8795 -5.9589
4 13 25 3.0676 6.6664
4 13 26 4.7104 -0.6845
4 13 27 8.3760 -3.1518
4 13 28 8.1486 4.4926
4 13 29 1.0168 -3.0064
4 13 30 8.7523 -4.8965
4 14 0 -6.7833 5.0594
4 14 1 -3.0458 -6.0361
4 14 2 1.9980 17.1340
4 14 3 2.7368 -11.9347
4 14 4 8.9694 2.8997
4 14 5 5.7539 -11.6370
4 14 6 -13.0613 -6.9966
4 14 7 10.0950 6.6539
4 14 8 1.3695 -3.7837
4 14 9 -2.3545 -13.7306
4 14 10 -2.7017 3.5342
4 14 11 -1.3567 -2.1596
4 14 12 -7.2761 -9.3283
4 14 13 1.7589 0.0510
4 14 14 -8.4709 -6.4231
4 14 15 8.4919 -11.5421
4 14 16 -5.4537 -6.3342
4 14 17 5.7503 -3.3647
4 14 18 5.6342 -10.4821
4 14 19 -6.1668 3.7853
4 14 20 -6.4528 -8.5604
4 14 21 1.9441 -14.5865
4 14 22 -5.3879 -13.4293
4 14 23 -6.1740 -3.4052
4 14 24 12.4718 -9.6839
4 14 25 -12.6133 3.8913
4 14 26 1.9350 -14.4690
4 14 27 -7.3268 -11.5567
4 15 0 0.5719 -1.2256
4 15 1 -17.9267 -5.8380
4 15 2 -4.2580 -5.9929
4 15 3 5.6209 2.8253
4 15 4 -15.5070 4.5986
4 15 5 12.4776 -9.0804
4 15 6 -5.6050 -7.3183
4 15 7 -2.6215 6.8545
4 15 8 -2.9737 -7.8043
4 15 9 -0.4247 1.5584
4 15 10 0.2476 1.8684
4 15 11 8.5695 -1.2899
4 15 12 -1.1755 -0.6844
4 15 13 1.1061 10.3394
4 15 14 -3.4128 -1.8866
4 15 15 -12.3471 -10.3908
4 15 16 -3.0670 -3.7450
4 15 17 -2.6778 15.0411
4 15 18 -8.8190 -2.5119
4 15 19 -6.2156 10.3345
4 15 20 -10.1477 4.0474
4 15 21 -11.0031 -0.8277
4 15 22 -0.1461 -5.2369
4 15 23 0.4088 7.8824
4 16 0 -3.9751 5.4784
4 16 1 4.8467 4.5758
4 16 2 -1.3945 1.6225
4 16 3 -2.5539 -14.5177
4 16 4 -10.3562 1.0706
4 16 5 -3.5561 16.8935
4 16 6 -0.4441 -0.9434
4 16 7 1.4405 -4.1269
4 16 8 5.6343 -8.0434
4 16 9 -2.9746 -1.5155
4 16 10 3.1521 -10.6602
4 16 11 6.8142 -7.7596
4 16 12 0.1450 -0.2672
4 16 13 -3.4439 15.3579
4 16 14 -0.0086 0.8688
4 16 15 0.9923 5.8966
4 16 16 3.4790 5.2716
4 16 17 7.3804 -2.2797
4 16 18 2.6181 8.2018
4 17 0 -3.8607 2.9906
4 17 1 2.4322 2.4076
4 17 2 -0.8260 7.3217
4 17 3 12.7975 2.8925
4 17 4 2.2310 -5.9777
4 17 5 3.5822 1.8770
4 17 6 -3.0632 -9.4858
4 17 7 -10.6899 -3.8783
4 17 8 -4.1232 -0.8774
4 17 9 -0.8300 -2.7867
4 17 10 2.0549 -0.9547
4 17 11 4.5964 0.6183
5 0 1 -7.8561 0.4601
5 0 2 15.7449 3.1265
5 0 3 -13.0513 -29.7184
5 0 4 -6.0127 5.5434
5 0 5 -5.3224 34.9087
5 0 6 -13.7914 12.4586
5 0 7 -1.1297 -41.3809
5 0 8 24.1764 4.1940
5 0 9 -1.8912 -49.1938
5 0 10 -5.5578 -13.4490
5 0 11 2.1226 -3.0424
5 0 12 -22.8036 -12.9251
5 0 13 13.0984 14.1445
5 0 14 41.8155 -2.6162
5 0 15 5.7473 -6.9776
5 0 16 -24.8897 7.6034
5 0 17 -6.7352 -10.6362
5 0 18 3.7923 -7.6259
5 0 19 -7.3608 -3.3922
5 0 20 25.1943 6.6860
5 0 21 -4.8036 -1.3349
5 0 22 -5.7424 17.1827
5 0 23 0.2476 3.7909
5 0 24 -3.5362 -0.3063
5 0 25 -1.6884 -7.4736
5 0 26 18.6310 -10.6097
5 0 27 3.2875 5.3421
5 0 28 5.4728 -12.5106
5 0 29 8.2924 -7.5934
5 0 30 3.8341 5.8491
5 0 31 4.3782 -4.1341
5 0 32 2.1191 -3.4412
5 0 33 -2.7596 -16.6709
5 0 34 -2.5278 -5.2312
5 0 35 -9.2539 -7.9727
5 0 36 -7.0211 10.3966
5 0 37 -2.8816 -3.6160
5 0 38 1.6457 9.4339
5 0 39 0.4506 -4.6127
5 0 40 1.2153 1.9573
5 0 41 -1.7824 -9.6124
5 0 42 -5.6543 -10.9359
5 0 43 3.1562 -5.8163
5 0 44 -0.3976 -4.6428
5 1 0 4.7982 -18.6329
5 1 1 -12.6364 51.8420
5 1 2 24.5160 22.1649
5 1 3 10.0652 -17.6701
5 1 4 -12.9255 8.3713
5 1 5 -4.0329 -25.9691
5 1 6 -35.6365 -3.3301
5 1 7 -39.8655 15.0094
5 1 8 -14.6800 -1.0067
5 1 9 13.1979 -15.6152
5 1 10 -31.4162 10.2036
5 1 11 21.9748 -8.9757
5 1 12 1.6751 -19.6059
5 1 13 -1.5309 -0.7277
5 1 14 -1.2617 -5.6318
5 1 15 -18.6855 14.7591
5 1 16 5.2067 10.0571
5 1 17 4.4105 6.5963
5 1 18 -10.5945 -15.7498
5 1 19 1.6864 -22.7191
5 1 20 16.0772 9.1930
5 1 21 17.4780 10.8580
5 1 22 -15.8336 13.9084
5 1 23 -9.5750 -16.4464
5 1 24 -16.9647 -8.2155
5 1 25 4.5677 -21.7900
5 1 26 -9.8724 -5.0241
5 1 27 -7.1372 3.7797
5 1 28 4.1561 4.4508
5 1 29 -13.1986 -24.0918
5 1 30 -0.2264 -6.4238
5 1 31 -7.7574 13.3501
5 1 32 -5.1270 4.9284
5 1 33 0.2774 12.0954
5 1 34 0.7302 6.0957
5 1 35 9.8259 0.2468
5 1 36 -2.8337 -0.1550
5 1 37 -0.7871 -2.6020
5 1 38 -10.4285 -2.6104
5 1 39 2.3351 -0.7630
5 1 40 -21.3036 5.1270
5 1 41 2.3794 -2.2814
5 1 42 -11.9982 -2.3072
5 1 43 -7.4660 -3.1479
5 1 44 5.7571 -3.3346
5 2 0 3.9150 -18.7632
5 2 1 18.0545 -13.7145
5 2 2 6.8924 8.5685
5 2 3 -43.9034 12.7071
5 2 4 -23.6397 62.5417
5 2 5 19.0664 18.6213
5 2 6 8.6274 -7.3089
5 2 7 10.3220 10.6174
5 2 8 -16.8790 5.4808
5 2 9 -14.7287 -5.6518
5 2 10 -10.3236 -7.6523
5 2 11 2.9335 6.5059
5 2 12 10.7383 -7.0876
5 2 13 13.1725 23.0865
5 2 14 -14.6138 -3.9108
5 2 15 -18.0027 1.1147
5 2 16 16.6620 2.5333
5 2 17 -14.0305 -8.6243
5 2 18 1.3788 6.4122
5 2 19 -2.3724 -6.1357
5 2 20 -2.6081 -2.6202
5 2 21 5.8336 10.9990
5 2 22 -11.8737 7.5591
5 2 23 -18.1294 9.7680
5 2 24 -15.4384 -6.0339
5 2 25 13.4697 13.2164
5 2 26 -10.1776 -3.3341
5 2 27 -2.1499 11.3233
5 2 28 -8.5121 -1.3825
5 2 29 4.4911 5.8917
5 2 30 -3.0287 1.3837
5 2 31 19.7803 -12.3394
5 2 32 15.7011 4.5091
5 2 33 -4.9835 -5.0277
5 2 34 -5.3665 7.3270
5 2 35 -6.3781 11.0542
5 2 36 1.5036 -0.7000
5 2 37 -2.6383 3.8784
5 2 38 -0.4335 11.0594
5 2 39 0.7704 7.8752
5 2 40 -5.1562 -3.3532
5 2 41 -3.6686 17.0817
5 2 42 -3.1179 -7.3780
5 2 43 -1.7891 7.9722
5 3 0 0.7748 28.0482
5 3 1 9.4485 12.5916
5 3 2 47.2087 0.9959
5 3 3 14.7394 8.2763
5 3 4 1.3171 -1.9788
5 3 5 5.1085 -12.4104
5 3 6 -25.1692 5.0622
5 3 7 15.4941 -1.2029
5 3 8 3.8690 7.6586
5 3 9 -11.7003 22.4716
5 3 10 1.2405 -15.4541
5 3 11 15.1459 -21.0779
5 3 12 3.0054 12.3812
5 3 13 -1.8899 21.6649
5 3 14 3.4363 5.2342
5 3 15 -4.0893 8.8464
5 3 16 9.1690 -7.9785
5 3 17 -7.6125 -23.5488
5 3 18 -1.8430 26.0451
5 3 19 15.6104 14.9791
5 3 20 -12.5169 10.3587
5 3 21 -6.3122 -8.5630
5 3 22 2.8644 2.7804
5 3 23 10.5054 6.9889
5 3 24 11.7953 1.3180
5 3 25 -6.5954 8.7905
5 3 26 6.8220 2.1461
5 3 27 -3.5305 -1.7107
5 3 28 1.3248 -13.6750
5 3 29 -11.2188 2.7089
5 3 30 5.9897 -10.4226
5 3 31 -1.4213 0.7481
5 3 32 9.7113 -1.3340
5 3 33 16.8477 7.9374
5 3 34 -4.0560 6.2776
5 3 35 0.6391 2.9873
5 3 36 1.4375 -0.7021
5 3 37 5.5837 -2.6159
5 3 38 4.3825 9.5825
5 3 39 4.5903 5.7511
5 3 40 1.8798 -4.2229
5 3 41 -2.2565 2.9095
5 3 42 3.6684 2.5101
5 3 43 -6.8668 -1.2471
5 4 0 4.6249 -36.5795
5 4 1 5.5640 -0.5026
5 4 2 -33.7400 -1.6443
5 4 3 6.3437 1.5618
5 4 5 -7.5083 -15.4331
5 4 6 -14.5303 6.2902
5 4 7 12.5172 17.7787
5 4 8 1.4185 -24.6672
5 4 9 0.3294 3.6216
5 4 10 4.5495 -1.8959
5 4 11 3.4490 1.4264
5 4 12 1.8620 -7.1861
5 4 13 12.1879 1.5792
5 4 14 2.8959 -4.4085
5 4 15 -13.7481 2.8892
5 4 16 3.9334 3.7362
5 4 17 13.2980 0.1016
5 4 18 3.7162 9.6646
5 4 19 16.3740 3.6452
5 4 20 -6.8525 0.9456
5 4 21 -14.1438 3.1836
5 4 22 -8.1206 -21.4763
5 4 23 27.9012 -5.4792
5 4 24 9.6012 1.0072
5 4 25 -13.1122 0.5449
5 4 26 -9.4904 4.7540
5 4 27 0.2717 -2.8804
5 4 28 -1.6173 1.7696
5 4 29 3.4698 -5.9270
5 4 30 10.4714 -7.2345
5 4 31 -0.7246 -12.5632
5 4 32 -2.3345 -0.4883
5 4 33 1.2083 1.5959
5 4 34 10.3256 4.3381
5 4 35 1.4738 -2.3713
5 4 36 2.9336 -5.3207
5 4 37 4.1191 3.7937
5 4 38 -1.3810 -7.6048
5 4 39 -2.8719 1.9376
5 4 40 1.7900 3.4164
5 4 41 -2.7623 -0.7971
5 4 42 6.1470 2.4379
5 5 0 5.7074 16.5027
5 5 1 1.9409 5.2556
5 5 2 13.1671 -11.6442
5 5 3 -7.8263 0.9853
5 5 4 5.6332 -6.9672
5 5 5 7.9631 -0.2641
5 5 6 -7.6655 2.1226
5 5 7 2.3124 7.0011
5 5 8 -5.7004 -10.9604
5 5 9 -7.7882 -13.7286
5 5 10 21.4773 3.2446
5 5 11 -13.8963 9.7412
5 5 12 -2.4903 -6.1239
5 5 13 -6.8872 -1.8668
5 5 14 17.9889 -6.0976
5 5 15 2.7929 -7.2467
5 5 16 -2.2009 3.1943
5 5 17 5.9578 2.8133
5 5 18 -0.1508 -3.9386
5 5 19 -9.1292 -0.1662
5 5 20 -16.5363 -2.0349
5 5 21 -0.1245 6.0132
5 5 22 0.3881 -7.5448
5 5 23 -17.8295 -8.0026
5 5 24 -0.0708 -0.7896
5 5 25 4.7552 9.0643
5 5 26 1.5248 -1.3126
5 5 27 -5.7177 -5.7440
5 5 28 -8.6391 -9.5657
5 5 29 -4.2257 -1.1857
5 5 30 -6.7424 2.4129
5 5 31 -2.3130 4.2820
5 5 32 4.0988 -8.0534
5 5 33 -1.1464 -2.2370
5 5 34 0.8093 -9.5314
5 5 35 3.5038 -8.1123
5 5 36 -3.7824 8.1707
5 5 37 -5.5906 9.5276
5 5 38 3.3015 -4.4036
5 5 39 -3.4049 -3.4805
5 5 40 7.2762 2.9989
5 5 41 -0.8037 -6.2902
5 5 42 -1.5795 -3.7542
5 6 0 -4.7953 -11.4842
5 6 1 -2.5946 3.9799
5 6 2 10.9798 0.4012
5 6 3 -7.6749 -11.0703
5 6 4 -17.9709 3.6481
5 6 5 3.5633 -0.0922
5 6 6 9.2553 6.6967
5 6 7 -8.3080 -9.8962
5 6 8 -3.6763 -4.5623
5 6 9 -4.2303 5.1108
5 6 10 -3.7453 7.4191
5 6 11 7.1967 -13.1283
5 6 12 1.4861 11.1003
5 6 13 -16.8783 -9.7559
5 6 14 -3.1172 5.0281
5 6 15 13.8163 -10.3697
5 6 16 3.5241 19.3213
5 6 17 -9.7406 15.9711
5 6 18 -0.9974 4.0005
5 6 19 -4.7351 12.1730
5 6 20 -4.4383 -0.7178
5 6 21 2.8150 12.4864
5 6 22 11.7994 5.3457
5 6 23 -17.0383 5.3293
5 6 24 -9.6505 -0.9037
5 6 25 9.1582 -6.4459
5 6 26 3.0407 8.2088
5 6 27 -4.1766 11.0066
5 6 28 3.7071 7.6937
5 6 29 1.4908 4.0331
5 6 30 -4.5694 -0.8143
5 6 31 -6.8900 2.9513
5 6 32 -1.2347 1.5836
5 6 33 -10.6082 -7.9823
5 6 34 4.5744 0.1748
5 6 35 4.4082 9.3366
5 6 36 5.1110 4.7853
5 6 37 -4.5465 -5.7069
5 6 38 -0.0363 -1.7227
5 6 39 -3.8737 -6.6553
5 6 40 -0.1100 -1.2117
5 6 41 4.0276 -3.7730
5 7 0 1.4745 -17.3309
5 7 1 -3.2186 -6.8684
5 7 2 5.4640 20.8067
5 7 3 -9.1799 4.9615
5 7 4 -3.4528 5.4548
5 7 5 5.1978 4.0203
5 7 6 -6.7113 -5.9270
5 7 7 5.8969 1.6604
5 7 8 -5.0945 10.7097
5 7 9 7.1680 10.2427
5 7 10 -5.8116 -7.7158
5 7 11 0.2553 -3.3346
5 7 12 -3.6554 3.1415
5 7 13 21.7059 -2.7438
5 7 14 -0.5719 2.6054
5 7 15 15.7940 4.5928
5 7 16 13.5921 -3.4550
5 7 17 21.6270 1.4589
5 7 18 -9.0226 8.7970
5 7 19 2.2294 -6.4556
5 7 20 19.2491 -2.5171
5 7 21 -4.9193 -0.3185
5 7 22 4.8762 5.6616
5 7 23 -3.5134 -6.1343
5 7 24 14.5816 4.0878
5 7 25 7.4772 -15.4650
5 7 26 3.8869 -9.6690
5 7 27 7.9003 1.2795
5 7 28 0.5788 8.1214
5 7 29 1.7736 6.0891
5 7 30 6.2635 0.4551
5 7 31 -1.6421 3.2336
5 7 32 -3.7320 2.9670
5 7 33 3.8221 -10.2713
5 7 34 1.8642 0.4655
5 7 35 -4.8509 6.4395
5 7 36 -3.4864 0.3765
5 7 37 -6.0673 -7.2387
5 7 38 -5.5874 5.1388
5 7 39 0.8746 -7.9847
5 7 40 -5.1143 -6.2613
5 8 0 7.7011 4.2310
5 8 1 0.1670 6.3814
5 8 2 7.9062 -4.5309
5 8 3 14.5048 3.0774
5 8 4 1.1525 2.1031
5 8 5 -0.3455 -12.2114
5 8 6 -0.2126 -6.3180
5 8 7 8.8778 10.2513
5 8 8 3.2571 3.8024
5 8 9 -5.1762 8.5538
5 8 10 6.0552 -16.1213
5 8 11 -15.0679 -1.9230
5 8 12 -0.4874 -8.2112
5 8 13 12.5890 -12.7641
5 8 14 3.8301 -24.5334
5 8 15 -6.2502 3.0627
5 8 16 -4.9050 -6.6179
5 8 17 -0.2835 -7.4624
5 8 18 -1.1888 -3.7235
5 8 19 0.2007 4.9366
5 8 20 -5.4377 -10.8296
5 8 21 -2.2335 -4.0187
5 8 22 -14.2356 -6.4204
5 8 23 -3.8448 -20.6444
5 8 24 -9.0230 4.8726
5 8 25 -2.0152 -2.5851
5 8 26 -6.5869 3.2156
5 8 27 14.8218 -5.7090
5 8 28 0.4191 -10.3743
5 8 29 0.4443 -1.1245
5 8 30 0.8240 3.4802
5 8 31 -7.5791 2.0872
5 8 32 -3.3155 1.4866
5 8 33 10.2367 11.1773
5 8 34 0.3922 6.0456
5 8 35 -2.4129 -5.0611
5 8 36 -1.2693 -1.1030
5 8 37 -7.3590 4.3625
5 8 38 -8.6613 4.5483
5 8 39 0.9009 2.3104
5 9 0 -0.0628 -8.4519
5 9 1 0.4144 0.4964
5 9 2 -10.9830 -6.3849
5 9 3 -12.6775 -11.0127
5 9 4 5.4566 2.3464
5 9 5 -7.2495 -2.5992
5 9 6 9.8371 -2.2031
5 9 7 11.6012 6.9074
5 9 8 -0.7854 -8.4165
5 9 9 -7.5404 -0.9056
5 9 10 -2.9998 11.4392
5 9 11 -21.1707 -4.7604
5 9 12 -2.4347 1.7037
5 9 13 -10.4812 -6.1763
5 9 14 -4.8533 4.6244
5 9 15 -0.2493 0.1488
5 9 16 3.3419 5.0795
5 9 17 -11.5113 7.0020
5 9 18 -1.3336 -3.4056
5 9 19 2.4329 1.6493
5 9 20 -15.0615 12.0689
5 9 21 -13.3122 10.9997
5 9 22 8.2266 0.3550
5 9 23 -2.9356 11.2292
5 9 24 -0.3762 -5.1121
5 9 25 5.3130 -3.1113
5 9 26 -13.9679 0.7644
5 9 27 -6.7803 4.1202
5 9 28 3.7465 -7.4348
5 9 29 9.0151 12.0702
5 9 30 2.8166 3.2390
5 9 31 4.6987 -8.0724
5 9 32 7.1610 -7.0228
5 9 33 -8.2634 3.8107
5 9 34 -6.6180 -0.8864
5 9 35 -4.2972 4.3666
5 9 36 1.5052 6.4364
5 9 37 8.3497 3.3647
5 10 0 -3.4098 19.8993
5 10 1 -2.3005 -3.1431
5 10 2 1.7316 8.6859
5 10 3 -11.4342 7.2164
5 10 4 -7.0184 -11.3676
5 10 5 17.4505 -15.2716
5 10 6 -7.2558 8.2236
5 10 7 -10.6772 -10.0187
5 10 8 7.2978 3.2043
5 10 9 -1.5007 12.4998
5 10 10 0.3191 11.7014
5 10 11 4.5823 6.8901
5 10 12 -2.6422 1.2096
5 10 13 -4.7958 -12.8409
5 10 14 -5.1119 12.8654
5 10 15 12.6555 -3.9519
5 10 16 -2.9900 0.0603
5 10 17 0.7501 2.2430
5 10 18 7.2506 5.1590
5 10 19 -0.7197 -4.2604
5 10 20 5.0443 6.2252
5 10 21 11.4335 3.4508
5 10 22 -1.4809 -5.2352
5 10 23 -7.5299 0.9326
5 10 24 7.6951 15.1568
5 10 25 2.0145 -3.4591
5 10 26 6.2347 -3.6997
5 10 27 4.4413 0.0763
5 10 28 3.7162 -1.4214
5 10 29 -5.1068 -4.5185
5 10 30 -6.2738 -1.8081
5 10 31 -3.0059 12.2291
5 10 32 5.2103 10.4194
5 10 33 1.8598 0.1617
5 10 34 4.8270 -0.7150
5 10 35 -0.6422 -2.5130
5 10 36 -1.5777 2.5195
5 11 0 4.2333 -1.1238
5 11 1 7.4753 8.5831
5 11 2 -16.7138 5.9544
5 11 3 -1.1362 -2.5712
5 11 4 -5.9275 -2.9884
5 11 5 -1.6861 7.8464
5 11 6 2.4951 -3.3188
5 11 7 7.0181 8.3895
5 11 8 4.0606 -2.5361
5 11 9 11.8049 -4.5619
5 11 10 -4.5254 4.4475
5 11 11 -8.9930 -0.3222
5 11 12 1.3805 7.0323
5 11 13 -3.8799 2.1584
5 11 14 -3.6237 -2.9086
5 11 15 7.3400 1.1944
5 11 16 -21.2512 -5.0557
5 11 17 9.1803 -3.0148
5 11 18 -0.9726 -3.8743
5 11 19 3.5743 -0.9672
5 11 20 0.3854 2.3703
5 11 21 17.1888 -4.4252
5 11 22 -8.6420 -7.0580
5 11 23 1.6823 -7.1685
5 11 24 1.0585 -8.9315
5 11 25 2.8447 -4.7185
5 11 26 -6.9720 -2.4709
5 11 27 6.2575 -1.0955
5 11 28 3.4470 8.1479
5 11 29 4.1151 -2.2543
5 11 30 3.4915 -9.9650
5 11 31 2.4570 -2.3284
5 11 32 -2.8602 -3.3796
5 11 33 -4.2219 -5.1518
5 11 34 1.3391 3.5725
5 12 0 7.4647 11.8095
5 12 1 -3.2505 9.7795
5 12 2 -0.9387 3.8786
5 12 3 2.6177 -4.7843
5 12 4 6.4886 -16.3854
5 12 5 -6.0662 3.8871
5 12 6 6.1281 -5.8479
5 12 7 1.2414 -2.1282
5 12 8 3.0387 6.2456
5 12 9 -8.2921 2.4682
5 12 10 9.5587 0.2223
5 12 11 4.0310 2.9932
5 12 12 -9.9170 3.4350
5 12 13 11.5305 1.4507
5 12 14 -2.0434 13.7682
5 12 15 -15.1683 3.5791
5 12 16 2.9170 -5.4693
5 12 17 2.6876 1.8436
5 12 18 -5.3079 -20.8304
5 12 19 5.3763 8.0983
5 12 20 -5.7081 -9.4084
5 12 21 -18.8055 6.7427
5 12 22 -14.3710 -5.5966
5 12 23 1.9944 12.7613
5 12 24 0.4557 -17.0956
5 12 25 -2.8071 6.5865
5 12 26 -1.1850 -3.0808
5 12 27 -9.6026 5.4724
5 12 28 -9.8665 -4.9586
5 12 29 -8.1773 6.2040
5 12 30 -4.7731 11.4201
5 12 31 -2.4401 4.2209
5 13 0 1.5062 10.4610
5 13 1 -4.8299 -10.4668
5 13 2 -15.9939 2.0654
5 13 3 -3.3288 -7.7391
5 13 4 -5.5395 5.6434
5 13 5 1.0407 -7.8956
5 13 6 9.4683 1.6719
5 13 7 -6.5644 -4.4294
5 13 8 -1.2397 2.3569
5 13 9 -5.0843 -1.3219
5 13 10 -0.8972 7.5377
5 13 11 6.4547 -12.2088
5 13 12 5.4273 0.1753
5 13 13 9.3439 8.5055
5 13 14 -4.5843 -9.3908
5 13 15 -8.1686 4.5313
5 13 16 -3.4018 3.2843
5 13 17 -1.1642 -11.1370
5 13 18 -2.9827 8.2541
5 13 19 0.6560 13.2922
5 13 20 12.7515 1.7231
5 13 21 -11.5955 10.0415
5 13 22 5.7369 -2.0793
5 13 23 -3.9342 -1.2664
5 13 24 11.6270 4.4375
5 13 25 -8.3361 13.4589
5 13 26 18.8712 12.8483
5 13 27 -0.1560 9.4518
5 13 28 17.6093 0.7170
5 13 29 0.0651 -1.9163
5 14 0 -3.3008 14.1963
5 14 1 -2.7684 -6.6020
5 14 2 -6.7339 8.6888
5 14 3 1.6116 0.7658
5 14 4 -12.9013 4.9360
5 14 5 14.0212 9.3985
5 14 6 -9.4024 1.0396
5 14 7 -1.4999 7.3780
5 14 8 1.8382 5.4059
5 14 9 3.9116 -3.6152
5 14 10 -16.7619 5.8331
5 14 11 -1.9616 -13.4230
5 14 12 -5.8390 1.9635
5 14 13 -1.3897 11.6319
5 14 14 -2.8718 -5.4971
5 14 15 -1.8315 -3.6401
5 14 16 4.5004 3.8663
5 14 17 -1.9160 -7.4479
5 14 18 1.4645 -0.6007
5 14 19 6.4414 0.8147
5 14 20 -8.3585 -3.4495
5 14 21 3.8748 -0.3871
5 14 22 14.4163 -3.3548
5 14 23 -0.2505 -6.4561
5 14 24 8.9835 -3.6308
5 14 25 3.5885 -12.6411
5 14 26 -0.3620 -2.5944
5 15 0 -0.9941 7.5241
5 15 1 5.4657 5.8264
5 15 2 7.6319 5.7588
5 15 3 18.7736 -5.1476
5 15 4 -2.7011 -4.2902
5 15 5 9.0330 11.6958
5 15 6 -6.7469 -9.1293
5 15 7 1.6455 13.7514
5 15 8 11.9909 7.0272
5 15 9 -3.6094 5.3906
5 15 10 -3.9395 3.8862
5 15 11 8.6666 18.1351
5 15 12 -14.4968 -8.2595
5 15 13 0.1660 -1.5107
5 15 14 -2.4376 2.6879
5 15 15 -4.4853 2.9653
5 15 16 -0.9529 -4.4532
5 15 17 6.0043 3.5281
5 15 18 -7.0733 4.5587
5 15 19 2.7904 -5.3314
5 15 20 -5.6983 -5.5159
5 15 21 -0.7084 -2.1877
5 15 22 -1.3647 -6.1603
5 16 0 3.8327 -14.7729
5 16 1 -3.0856 0.9671
5 16 2 -8.7944 -2.1228
5 16 3 4.3886 0.9165
5 16 4 3.0898 2.8883
5 16 5 1.5309 7.6786
5 16 6 10.4481 -13.3559
5 16 7 -0.3570 2.7886
5 16 8 10.6087 -4.3169
5 16 9 -1.6733 1.0255
5 16 10 -0.7648 6.0192
5 16 11 -3.6987 10.6245
5 16 12 2.6846 -2.0598
5 16 13 -9.8978 1.6045
5 16 14 4.9498 -5.0976
5 16 15 -4.3671 2.8163
5 16 16 1.7152 -2.2843
5 16 17 -1.0464 1.8684
5 17 0 -1.8671 19.1639
5 17 1 10.6141 -10.4920
5 17 2 4.1951 0.2358
5 17 3 1.7663 2.4010
5 17 4 -1.9739 -3.0080
5 17 5 -3.4752 -1.6624
5 17 6 5.2159 5.2154
5 17 7 -7.1654 -2.5136
5 17 8 2.3663 5.8637
6 0 0 -27.4937 -16.3327
6 0 1 -12.5024 -41.7416
6 0 2 -15.4663 -0.9110
6 0 3 -3.2028 32.3518
6 0 4 4.1132 11.6841
6 0 5 -2.4326 -45.5555
6 0 6 -29.4300 1.9033
6 0 7 14.5185 -24.8808
6 0 8 -6.2694 -4.7657
6 0 9 8.0306 14.4885
6 0 10 -37.6132 5.4955
6 0 11 1.7150 29.7032
6 0 12 -16.5532 10.7466
6 0 13 1.6509 1.7318
6 0 14 -15.3481 -7.0246
6 0 15 -9.4661 2.5342
6 0 16 -1.5597 -14.3327
6 0 17 -7.3646 16.5132
6 0 18 1.1146 -0.9567
6 0 19 -7.5568 0.1812
6 0 20 -13.1170 6.4406
6 0 21 7.3587 -1.2456
6 0 22 -1.2938 1.8832
6 0 23 9.7941 18.7919
6 0 24 -12.2786 -1.3870
6 0 25 0.6845 -17.2678
6 0 26 -3.7197 4.0732
6 0 27 9.8772 10.0065
6 0 28 -6.9063 5.2118
6 0 29 -2.8214 -5.6531
6 0 30 -11.4075 -2.6377
6 0 31 -8.0405 -14.4962
6 0 32 -9.0180 -9.2624
6 0 33 -8.4398 -2.1213
6 0 34 -2.2137 -5.3144
6 0 35 -1.9048 -5.2230
6 0 36 -8.5895 5.6338
6 0 37 4.9251 -4.8246
6 0 38 -0.1050 4.7666
6 0 39 -0.8844 -1.0760
6 0 40 -2.4716 -0.9024
6 0 41 9.3823 -3.1879
6 0 42 -5.0762 1.1176
6 0 43 6.5884 0.3317
6 1 0 6.9161 8.9829
6 1 1 33.0802 14.6573
6 1 2 -3.2386 -8.3897
6 1 3 -5.8252 -10.6033
6 1 4 -23.5519 -3.4031
6 1 5 -13.5109 17.3806
6 1 6 -9.3027 6.1673
6 1 7 29.9629 -4.0835
6 1 8 18.1780 -7.6720
6 1 9 34.5585 35.9636
6 1 10 -18.6330 -0.8274
6 1 11 -8.7841 19.4535
6 1 12 18.3722 -18.6774
6 1 13 -6.3537 25.1464
6 1 14 -6.9432 -1.4011
6 1 15 1.1134 11.5565
6 1 16 0.8791 -7.0409
6 1 17 -8.3476 2.8001
6 1 18 37.0915 7.6896
6 1 19 -2.4598 -9.2631
6 1 20 -1.7157 3.6769
6 1 21 4.3568 5.7484
6 1 22 0.8260 -1.2434
6 1 23 -3.2085 0.5314
6 1 24 6.3476 -8.2049
6 1 25 -6.7189 10.8940
6 1 26 3.8625 -7.1604
6 1 27 5.1964 8.6636
6 1 28 -9.7625 1.1923
6 1 29 -9.6479 24.2482
6 1 30 -13.4010 4.5740
6 1 31 -0.1604 20.5472
6 1 32 -11.7388 -5.2443
6 1 33 -1.7875 -4.5430
6 1 34 6.3976 8.3481
6 1 35 2.2012 -1.0878
6 1 36 1.9260 -2.7847
6 1 37 0.2537 3.3276
6 1 38 0.8152 -4.1637
6 1 39 2.0871 -3.1722
6 1 40 -8.6574 -1.6941
6 1 41 1.4462 0.8951
6 1 42 7.1241 -5.4591
6 1 43 5.9236 7.6485
6 2 0 5.0255 -6.2567
6 2 1 -24.3451 7.9117
6 2 2 -7.7544 30.1623
6 2 3 4.5507 -4.2148
6 2 4 11.7980 -21.0053
6 2 5 -5.8189 -2.1288
6 2 6 16.1022 -21.3139
6 2 7 10.1477 -19.8759
6 2 8 -0.9853 -4.1545
6 2 9 4.8780 14.9332
6 2 10 15.8931 -3.1029
6 2 11 -9.6003 14.9180
6 2 12 11.5813 -19.9148
6 2 13 -16.0484 -8.5547
6 2 14 17.7254 11.0167
6 2 15 -7.6389 6.2101
6 2 16 10.6149 -19.4788
6 2 17 -11.1358 -19.3227
6 2 18 1.1931 1.7903
6 2 19 13.5291 -12.9994
6 2 20 4.9477 15.1509
6 2 21 7.7957 0.4755
6 2 22 -11.6536 2.6506
6 2 23 -5.0872 -12.0727
6 2 24 2.7865 1.5099
6 2 25 12.0697 11.3930
6 2 26 18.5798 16.9719
6 2 27 -0.2479 -6.7309
6 2 28 17.1193 7.9252
6 2 29 7.1253 8.1267
6 2 30 12.9939 2.1029
6 2 31 -17.7820 6.8175
6 2 32 11.7509 -7.2405
6 2 33 -5.3803 -1.6358
6 2 34 5.1711 -9.6952
6 2 35 -2.3834 -2.3637
6 2 36 -3.8578 -1.8582
6 2 37 -3.0117 0.9057
6 2 38 -2.0498 7.6699
6 2 39 2.7505 -2.8755
6 2 40 1.8757 -2.4049
6 2 41 -1.1412 -2.5487
6 2 42 7.7822 -5.2326
6 3 0 44.2845 3.3277
6 3 1 -23.4236 1.2069
6 3 2 -26.1789 0.1256
6 3 3 -4.4980 -2.9595
6 3 4 -19.3996 -10.3164
6 3 5 2.5517 -21.0133
6 3 6 7.1620 0.6539
6 3 7 -1.8271 -5.4407
6 3 8 -6.4998 11.0440
6 3 9 -2.3841 -2.6874
6 3 10 6.5268 -10.0863
6 3 11 -6.1923 4.5741
6 3 12 -4.7553 10.4334
6 3 13 -9.7524 -7.8176
6 3 14 8.7881 -3.1131
6 3 15 -12.3310 -16.2235
6 3 16 -3.1833 12.5203
6 3 17 -10.7120 -11.7800
6 3 18 -5.3631 -8.4656
6 3 19 9.0738 -9.3061
6 3 20 5.3554 2.0003
6 3 21 4.0488 9.3094
6 3 22 -2.1244 -8.3214
6 3 23 11.4843 0.0754
6 3 24 2.5875 -16.2594
6 3 25 15.9237 -12.5199
6 3 26 3.1458 -7.9162
6 3 27 -4.8506 -0.3113
6 3 28 -10.6344 -1.7654
6 3 29 14.3170 -2.5987
6 3 30 0.2607 4.1706
6 3 31 -8.2996 -13.0396
6 3 32 -6.5958 10.0923
6 3 33 -5.4851 -1.3364
6 3 34 -2.1384 6.3072
6 3 35 -5.5279 -4.1533
6 3 36 10.1869 8.5892
6 3 37 2.9919 -9.3895
6 3 38 -3.4599 -3.0205
6 3 39 -3.5281 2.7307
6 3 40 -2.8775 -6.1985
6 3 41 3.0628 0.4263
6 3 42 -1.0399 7.9596
6 4 0 -10.6258 9.7191
6 4 1 1.2863 9.1596
6 4 2 5.0624 15.7299
6 4 3 -19.2528 -10.1895
6 4 4 -18.1063 -5.8178
6 4 5 3.1946 0.8388
6 4 6 10.2151 -4.6335
6 4 7 6.3386 16.5014
6 4 8 -8.3464 -1.0353
6 4 9 5.3051 -1.0431
6 4 10 -5.7697 -0.4632
6 4 11 0.7413 -12.1562
6 4 12 0.7085 6.9248
6 4 13 -9.6354 16.1889
6 4 14 -7.5392 -0.8843
6 4 15 -6.8519 -17.4672
6 4 16 -9.1249 21.6618
6 4 17 7.8134 3.4752
6 4 18 -5.6207 -5.3048
6 4 19 -1.5546 -9.2334
6 4 20 -6.3392 -9.7909
6 4 21 0.6390 -9.4835
6 4 22 -4.2047 -3.4348
6 4 23 -10.2775 -1.4067
6 4 24 4.6047 2.9295
6 4 25 -9.4418 0.3030
6 4 26 -6.0668 -4.1471
6 4 27 8.2654 9.3982
6 4 28 3.4876 0.2748
6 4 29 -14.7752 0.7670
6 4 30 1.6162 -3.7076
6 4 31 11.8857 5.7874
6 4 32 -0.1227 7.3166
6 4 33 3.2518 5.4398
6 4 34 -3.8880 -7.0240
6 4 35 -3.0970 -1.9851
6 4 36 -3.1258 5.0983
6 4 37 5.8599 -2.3313
6 4 38 -4.6762 0.4044
6 4 39 0.6994 2.2230
6 4 40 4.0470 -0.5995
6 4 41 -0.3336 -1.6183
6 4 42 0.1746 2.9809
6 5 0 -19.7707 -9.3718
6 5 1 -4.1583 11.7306
6 5 2 9.8542 10.2739
6 5 3 0.2226 -2.5277
6 5 4 -6.4740 0.5292
6 5 5 7.2073 -4.6852
6 5 6 -5.6639 -4.2153
6 5 7 -4.6677 1.7863
6 5 8 11.9852 4.6731
6 5 9 -19.1420 -0.3383
6 5 10 -9.0597 -1.5616
6 5 11 11.5782 10.9705
6 5 12 2.8578 2.5348
6 5 13 4.2394 0.5769
6 5 14 0.9643 11.1330
6 5 15 -1.9305 2.9476
6 5 16 -9.1424 -6.7373
6 5 17 17.2891 -4.3857
6 5 18 -11.4766 7.4700
6 5 19 -15.9737 12.6239
6 5 20 -4.5204 -5.2587
6 5 21 6.1011 1.1026
6 5 22 8.6117 -1.5865
6 5 23 0.7059 6.5615
6 5 24 1.0012 0.3378
6 5 25 2.0858 0.4456
6 5 26 -10.0656 4.2039
6 5 27 5.8787 6.0518
6 5 28 7.5159 -6.3803
6 5 29 -11.2303 -4.6686
6 5 30 -1.0732 -6.0291
6 5 31 10.4021 -0.5815
6 5 32 5.1832 1.6810
6 5 33 0.0608 1.7734
6 5 34 1.8365 1.7152
6 5 35 -0.4953 -3.9425
6 5 36 0.5603 -4.8793
6 5 37 -1.6454 3.4587
6 5 38 3.5072 4.1420
6 5 39 5.2450 -2.7106
6 5 40 6.2490 1.7116
6 6 0 23.6050 -0.9210
6 6 1 -10.5210 5.4811
6 6 2 -2.0903 -8.6875
6 6 3 -4.9467 -7.6247
6 6 4 3.5077 16.6255
6 6 5 4.1704 7.7987
6 6 6 -5.7754 -5.9699
6 6 7 -0.8644 6.8947
6 6 8 6.2951 9.6624
6 6 9 8.5415 -9.6828
6 6 10 -3.5634 4.1474
6 6 11 1.1969 -1.1938
6 6 12 9.9561 -5.2268
6 6 13 1.1942 -0.6587
6 6 14 -10.1759 -0.0084
6 6 15 3.9402 9.2718
6 6 16 1.9689 -5.2094
6 6 17 0.1523 0.4578
6 6 18 2.6137 -8.9130
6 6 19 8.9557 10.9672
6 6 20 3.5432 -4.9230
6 6 21 -8.9454 -7.1974
6 6 22 7.2754 -2.4220
6 6 23 2.3726 1.1207
6 6 24 5.5816 11.6175
6 6 25 3.1112 -3.5565
6 6 26 11.6711 1.2656
6 6 27 -18.0156 7.9589
6 6 28 -12.0514 -7.2031
6 6 29 -3.6013 -5.0083
6 6 30 10.5293 -2.8335
6 6 31 -7.2824 -4.1786
6 6 32 2.1900 -8.8404
6 6 33 -3.4775 -1.3446
6 6 34 -1.8443 4.9685
6 6 35 1.0356 0.4908
6 6 36 4.5809 -11.9779
6 6 37 2.6881 -6.2955
6 6 38 3.3134 -3.1674
6 6 39 0.4791 -7.2518
6 6 40 -6.3955 2.8011
6 7 0 5.6844 -5.0625
6 7 1 -3.9494 2.9069
6 7 2 -0.3554 10.4816
6 7 3 0.6444 -2.9368
6 7 4 -2.1813 -1.0223
6 7 5 16.4250 -2.9931
6 7 6 -0.4203 -5.6750
6 7 7 -5.0035 -1.5654
6 7 8 -10.3097 -4.9886
6 7 9 5.0262 -3.1045
6 7 10 4.3542 -0.5974
6 7 11 3.5884 3.5834
6 7 12 -5.4119 -5.0074
6 7 13 4.4997 4.4676
6 7 14 -2.8055 8.4369
6 7 15 -5.0364 -5.5393
6 7 16 4.8751 -10.8493
6 7 17 -13.9067 3.4072
6 7 18 -1.8695 -6.1987
6 7 19 3.3582 -5.6239
6 7 20 11.4973 -1.6311
6 7 21 -9.8605 -1.3703
6 7 22 3.6927 -1.6921
6 7 23 5.0792 -17.1975
6 7 24 -0.3403 -1.1464
6 7 25 3.3937 7.9717
6 7 26 -5.9894 18.1892
6 7 27 -5.6128 1.0148
6 7 28 -13.0487 6.0969
6 7 29 -0.2815 -5.7163
6 7 30 3.4706 8.1437
6 7 31 -9.6985 -7.3414
6 7 32 0.7597 5.9920
6 7 33 -4.5337 -3.0893
6 7 34 -8.5534 -1.3002
6 7 35 -7.1100 -4.4248
6 7 36 -4.7966 3.2796
6 7 37 -6.7579 -7.7831
6 7 38 5.4797 1.6656
6 7 39 1.0425 5.1101
6 8 0 7.4966 0.9020
6 8 1 -5.4991 6.3827
6 8 2 9.0494 6.9536
6 8 3 1.1818 0.9534
6 8 4 -17.4611 -11.6600
6 8 5 -9.0682 -0.7808
6 8 6 2.0825 6.2804
6 8 7 -3.2835 19.6204
6 8 8 4.1558 -15.3139
6 8 9 -8.2658 -1.0341
6 8 10 2.2469 -9.6508
6 8 11 11.9191 -4.6882
6 8 12 2.5188 6.0136
6 8 13 -10.3821 8.9305
6 8 14 7.3557 -6.3000
6 8 15 -0.1724 7.0854
6 8 16 -13.7531 3.4469
6 8 17 1.7371 -7.0967
6 8 18 -1.2461 3.4391
6 8 19 -12.5650 -3.0767
6 8 20 -3.3200 -4.7847
6 8 21 -2.2336 -2.7897
6 8 22 -5.5963 15.2257
6 8 23 5.5284 -1.8370
6 8 24 11.6743 1.8365
6 8 25 13.5571 10.1711
6 8 26 -9.6479 9.7643
6 8 27 5.4743 -1.2801
6 8 28 7.8699 -4.1235
6 8 29 1.5362 8.1892
6 8 30 -9.2550 -1.5107
6 8 31 8.9346 6.8645
6 8 32 -7.3853 15.0006
6 8 33 6.6860 1.0635
6 8 34 0.6082 2.3323
6 8 35 -2.0206 0.9605
6 8 36 -2.8984 1.8116
6 8 37 5.4423 0.3057
6 8 38 -1.4542 0.1097
6 9 0 10.5486 -1.2299
6 9 1 3.1962 0.0145
6 9 2 0.5871 12.6782
6 9 3 -8.0760 0.1608
6 9 4 9.3350 6.3559
6 9 5 7.1281 9.6857
6 9 6 1.6013 -2.3228
6 9 7 -1.9606 -0.6476
6 9 8 1.2740 0.6211
6 9 9 -27.6237 -11.0449
6 9 10 6.8018 7.8974
6 9 11 -0.9947 -8.8014
6 9 12 5.4208 -1.1334
6 9 13 5.5452 3.2832
6 9 14 0.7481 -2.2916
6 9 15 -7.7212 -2.2833
6 9 16 2.0538 19.1273
6 9 17 0.4843 5.7957
6 9 18 -0.4483 -4.1199
6 9 19 1.2202 7.7420
6 9 20 3.5824 -4.9313
6 9 21 7.9750 -6.3683
6 9 22 5.9856 -3.9124
6 9 23 7.7538 -3.1252
6 9 24 -2.1991 0.8428
6 9 25 2.0460 -1.6625
6 9 26 -5.6631 -9.8905
6 9 27 3.1463 1.6977
6 9 28 6.3308 -7.4668
6 9 29 2.6087 0.5431
6 9 30 6.5791 1.3959
6 9 31 2.3447 0.8653
6 9 32 0.4589 -11.2890
6 9 33 -2.4825 3.9670
6 9 34 1.4168 -1.9894
6 9 35 4.3431 3.7464
6 9 36 -1.2493 -3.4668
6 10 0 5.0254 0.3737
6 10 1 7.6291 -2.4529
6 10 2 1.4931 -2.1141
6 10 3 1.4798 -14.2762
6 10 4 3.9471 1.3476
6 10 5 11.4408 -2.5389
6 10 6 -1.1939 3.7410
6 10 7 -10.5257 12.2984
6 10 8 0.7349 9.2617
6 10 9 -0.3795 -1.1670
6 10 10 0.2930 7.3751
6 10 11 1.2622 -15.7528
6 10 12 -17.0274 4.2951
6 10 13 15.4042 -6.7544
6 10 14 11.1505 7.2219
6 10 15 1.1392 5.7539
6 10 16 4.9475 -3.2551
6 10 17 -1.7447 -3.2362
6 10 18 -19.7171 2.5417
6 10 19 5.9754 -7.2078
6 10 20 2.9821 -1.3821
6 10 21 -9.2975 4.3188
6 10 22 8.2283 -2.5383
6 10 23 1.3170 0.5745
6 10 24 -14.4201 5.0432
6 10 25 -6.0408 0.0903
6 10 26 1.1242 -8.6310
6 10 27 -1.4448 7.0616
6 10 28 -2.4266 -4.6544
6 10 29 -3.4687 -1.3696
6 10 30 5.5037 9.0989
6 10 31 -3.7359 -1.0893
6 10 32 1.1062 -5.7328
6 10 33 -1.1013 -0.6056
6 10 34 6.8734 5.6566
6 11 0 -9.9709 -2.4470
6 11 1 -14.1315 0.4352
6 11 2 -6.0034 -6.5791
6 11 3 3.2582 -2.2661
6 11 4 1.0084 -4.5210
6 11 5 15.6001 -2.7550
6 11 6 5.3535 1.5276
6 11 7 -4.4701 8.7803
6 11 8 -0.8813 1.1378
6 11 9 -0.1639 -4.3621
6 11 10 -0.3128 4.2042
6 11 11 0.2007 -6.5469
6 11 12 -4.8982 -7.1005
6 11 13 15.0702 -0.0755
6 11 14 -9.8060 -3.1243
6 11 15 11.0509 14.2727
6 11 16 6.1026 6.4977
6 11 17 -6.2281 -2.0774
6 11 18 3.3939 5.6436
6 11 19 12.8633 -0.4409
6 11 20 -4.1772 -12.1725
6 11 21 2.1680 13.2028
6 11 22 1.4865 8.1177
6 11 23 -4.9111 0.3218
6 11 24 2.3814 2.0373
6 11 25 4.1734 6.3157
6 11 26 4.9056 -2.7353
6 11 27 0.2073 -2.7157
6 11 28 5.2956 -3.8724
6 11 29 -5.9208 1.5419
6 11 30 1.2116 -0.8272
6 11 31 0.1571 -7.6323
6 11 32 1.8636 -0.0846
6 12 0 -6.3959 1.3686
6 12 1 2.3024 9.8888
6 12 2 2.2526 -8.8334
6 12 3 -3.1270 -12.3428
6 12 4 6.2138 -3.5381
6 12 5 2.1745 8.4775
6 12 6 5.2187 8.2806
6 12 7 1.4922 4.0642
6 12 8 -1.0554 -6.8889
6 12 9 -6.8708 -9.2261
6 12 10 -7.0664 2.4498
6 12 11 4.5629 -3.6418
6 12 12 12.8617 0.0436
6 12 13 9.5472 2.8355
6 12 14 -1.2520 -16.9058
6 12 15 1.8998 2.4150
6 12 16 1.5872 -13.4616
6 12 17 3.2615 -0.6814
6 12 18 6.5958 3.6390
6 12 19 6.1335 -0.3373
6 12 20 -0.9184 -0.0479
6 12 21 8.1587 6.4620
6 12 22 4.9324 -8.1529
6 12 23 -6.1657 -0.2164
6 12 24 5.6405 -6.7955
6 12 25 -1.3566 -0.9076
6 12 26 -3.4362 7.6398
6 12 27 -8.1552 -3.0373
6 12 28 5.1924 4.5849
6 12 29 0.0588 1.4814
6 12 30 -2.1743 -7.9022
6 13 0 -5.3219 1.9113
6 13 1 -1.8025 -12.7528
6 13 2 1.1046 -11.7535
6 13 3 2.1305 -6.9058
6 13 4 13.4616 -3.3386
6 13 5 5.3836 -0.5965
6 13 6 -10.4831 7.3696
6 13 7 -9.1254 -6.0655
6 13 8 0.1345 0.0055
6 13 9 -4.8308 0.5653
6 13 10 0.2198 -13.9641
6 13 11 13.8762 -9.1498
6 13 12 -10.5226 1.7358
6 13 13 -8.7753 0.3343
6 13 14 5.4659 2.2697
6 13 15 -10.8479 -9.0026
6 13 16 4.2542 -14.9076
6 13 17 4.6649 -4.5088
6 13 18 10.6099 -7.2806
6 13 19 -4.2915 1.5103
6 13 20 -5.7347 1.5875
6 13 21 -2.1542 -3.1366
6 13 22 0.0534 -10.3297
6 13 23 1.5143 3.0478
6 13 24 16.4356 -0.3322
6 13 25 -5.3311 0.8656
6 13 26 4.7944 -1.9017
6 13 27 -0.5413 -8.9822
6 14 0 -23.3807 -1.7686
6 14 1 3.5459 -7.7748
6 14 2 -22.2536 -2.2444
6 14 3 7.8495 3.4064
6 14 4 7.1984 6.3819
6 14 5 -4.0432 7.2978
6 14 6 -5.7888 -0.9834
6 14 7 -4.0909 1.9770
6 14 8 -10.7419 -0.0362
6 14 9 3.4106 -9.9041
6 14 10 6.0616 3.6237
6 14 11 -5.1231 2.2574
6 14 12 1.8108 -11.8957
6 14 13 -7.8632 9.9344
6 14 14 -12.1678 1.8600
6 14 15 -4.1573 -9.2588
6 14 16 -5.7109 6.0206
6 14 17 2.4991 -4.8704
6 14 18 -1.1262 0.1826
6 14 19 -3.3107 4.1141
6 14 20 -1.6117 3.1483
6 14 21 -12.7241 -7.7027
6 14 22 -5.9696 -12.2122
6 14 23 2.9987 -3.2395
6 14 24 -2.7605 3.3389
6 15 0 9.1635 0.2228
6 15 1 6.7061 9.0358
6 15 2 5.0428 -9.7429
6 15 3 13.2832 13.3989
6 15 4 -8.6404 -12.9884
6 15 5 -3.9329 8.1421
6 15 6 9.4371 2.8182
6 15 7 -7.1370 -2.1622
6 15 8 0.7946 -1.4470
6 15 9 5.3414 -6.0710
6 15 10 -7.9437 0.6971
6 15 11 -1.4960 9.8531
6 15 12 4.9582 4.3762
6 15 13 3.2584 -5.1844
6 15 14 9.4378 6.1930
6 15 15 -3.3839 -5.8196
6 15 16 0.2397 2.3015
6 15 17 3.8989 6.5963
6 15 18 -5.9690 1.4866
6 15 19 0.0605 9.2701
6 15 20 -1.7543 2.1979
6 16 0 1.9135 -1.1479
6 16 1 -0.0395 -10.3320
6 16 2 -0.8353 9.9831
6 16 3 -4.9028 -2.7665
6 16 4 0.9345 -9.3657
6 16 5 -5.2359 7.6044
6 16 6 11.9785 -6.3081
6 16 7 -4.5947 -12.8108
6 16 8 2.6803 6.0078
6 16 9 1.0704 2.0390
6 16 10 -11.3109 -5.9869
6 16 11 6.0486 -5.7670
6 16 12 -0.0740 -3.9566
6 16 13 -10.0959 -5.6222
6 16 14 4.1984 -0.9524
6 17 0 3.4810 6.2752
7 0 1 2.5699 38.1857
7 0 2 9.6070 9.2562
7 0 3 -2.1665 -9.6163
7 0 4 1.9384 8.7229
7 0 5 -2.1786 4.8433
7 0 6 -8.9450 -0.7280
7 0 7 3.1445 13.7118
7 0 8 -7.9165 -1.1049
7 0 9 3.1602 23.5767
7 0 10 -5.4251 -0.2546
7 0 11 0.3222 15.2950
7 0 12 -1.7594 -8.4562
7 0 13 0.4060 -4.3241
7 0 14 36.3519 -16.3759
7 0 15 9.0814 8.5727
7 0 16 -9.2150 2.7312
7 0 17 -2.1091 5.2051
7 0 18 12.2822 10.1784
7 0 19 -10.9109 -20.2175
7 0 20 -2.3187 12.5971
7 0 21 0.3307 -16.0417
7 0 22 -6.2545 0.7071
7 0 23 5.1437 -0.2361
7 0 24 -6.4092 -3.4693
7 0 25 -1.9263 -16.2024
7 0 26 -0.7296 5.3612
7 0 27 -2.4986 -10.6823
7 0 28 0.5155 -11.3728
7 0 29 7.8323 -11.3082
7 0 30 4.3466 -11.4604
7 0 31 6.7421 7.0254
7 0 32 -3.5971 -2.2258
7 0 33 -7.4172 -3.1685
7 0 34 2.4464 11.2004
7 0 35 -5.1928 -9.6603
7 0 36 -3.5912 9.6200
7 0 37 1.7571 3.5263
7 0 38 0.5221 -3.8381
7 0 39 -1.0583 -1.2447
7 0 40 -6.0303 3.9228
7 0 41 -1.4416 -1.2000
7 0 42 -6.7128 2.4032
7 1 0 6.8471 -16.4671
7 1 1 17.4439 15.9173
7 1 2 18.8611 6.7490
7 1 3 -8.0171 -12.0511
7 1 4 -11.4115 -0.2101
7 1 5 11.5773 -0.2458
7 1 6 14.8710 5.3499
7 1 7 9.8196 0.8626
7 1 8 0.7875 -0.9764
7 1 9 -0.5651 2.9207
7 1 10 -5.4743 -11.8252
7 1 11 -16.2988 -0.4294
7 1 12 13.7346 -21.5702
7 1 13 -11.7132 -15.9636
7 1 14 -2.8459 0.1624
7 1 15 -1.9534 3.0632
7 1 16 26.9633 11.4967
7 1 17 -7.4520 10.4997
7 1 18 -12.2219 1.4014
7 1 19 -15.2056 -4.8431
7 1 20 -13.6454 7.2497
7 1 21 18.6297 -0.2603
7 1 22 -14.6665 4.1093
7 1 23 -7.8171 -2.9910
7 1 24 -19.8365 1.1981
7 1 25 -3.9686 1.9028
7 1 26 -10.7843 -9.1119
7 1 27 1.3020 4.7343
7 1 28 -16.7538 2.2100
7 1 29 1.2002 -7.9254
7 1 30 -8.9242 3.0912
7 1 31 -4.1708 11.6735
7 1 32 19.6259 4.2042
7 1 33 -7.4278 4.6479
7 1 34 3.0937 1.1034
7 1 35 7.5759 1.5437
7 1 36 -4.3425 6.5369
7 1 37 0.8748 -3.6764
7 1 38 -5.4327 4.2781
7 1 39 -0.2542 4.9828
7 1 40 -2.3971 3.2548
7 1 41 5.8052 -0.9423
7 1 42 -1.9783 -3.6087
7 2 0 1.9351 -5.1472
7 2 1 -5.3200 -23.7636
7 2 2 5.3037 -2.8284
7 2 3 -13.0575 12.3153
7 2 4 -5.0106 9.8351
7 2 5 10.0999 -7.1288
7 2 6 10.2814 -7.8188
7 2 7 -3.2265 2.2921
7 2 8 -21.6907 17.4712
7 2 9 -4.3915 16.5574
7 2 10 -12.5159 -4.3844
7 2 11 -19.8029 3.8422
7 2 12 14.5656 4.0240
7 2 13 10.7662 0.9311
7 2 14 2.8317 6.6294
7 2 15 3.6780 -9.3729
7 2 16 15.4689 14.0534
7 2 17 3.7287 6.4121
7 2 18 -6.9477 20.3461
7 2 19 -6.3337 0.5181
7 2 20 4.2489 6.6579
7 2 21 -1.4171 9.9024
7 2 22 1.2917 11.0830
7 2 23 -5.0931 22.7473
7 2 24 -8.8628 -5.4573
7 2 25 9.2608 10.7408
7 2 26 2.1938 -0.4547
7 2 27 0.7639 5.0410
7 2 28 14.0049 0.5541
7 2 29 5.0686 20.7950
7 2 30 1.1608 -18.7967
7 2 31 6.5535 -2.5983
7 2 32 3.4472 -5.0966
7 2 33 4.1246 -12.8258
7 2 34 3.0866 12.5812
7 2 35 -4.2445 4.5851
7 2 36 8.0769 4.7239
7 2 37 0.7675 -1.1309
7 2 38 -5.1291 6.0022
7 2 39 3.4141 0.5902
7 2 40 -2.7269 -6.4819
7 2 41 -2.5729 2.0107
7 3 0 -9.5988 18.1909
7 3 1 3.8419 -3.2169
7 3 2 2.4707 -1.2029
7 3 3 24.5651 -12.1733
7 3 4 12.2679 3.5780
7 3 5 -3.3542 0.7519
7 3 6 -3.1606 15.0264
7 3 7 20.6812 9.5613
7 3 8 15.6742 16.2159
7 3 9 6.5111 15.0716
7 3 10 -0.0801 -18.7880
7 3 11 4.6434 -13.0137
7 3 12 6.7869 -6.9128
7 3 13 1.0926 -4.1321
7 3 14 19.0765 -0.5281
7 3 15 10.4566 1.7459
7 3 16 -9.0841 -0.1300
7 3 17 13.0459 -7.1138
7 3 18 5.9448 7.4985
7 3 19 22.0617 12.2829
7 3 20 13.0570 -2.3228
7 3 21 4.6965 -6.0758
7 3 22 -9.4446 10.4459
7 3 23 13.0537 -4.0834
7 3 24 9.5807 0.6710
7 3 25 -9.4485 -13.3654
7 3 26 10.6434 -13.7629
7 3 27 1.8347 -0.5188
7 3 28 -3.1186 -8.0047
7 3 29 -10.2584 0.1016
7 3 30 5.7389 7.0014
7 3 31 -18.9307 -7.4282
7 3 32 8.8261 -5.3578
7 3 33 8.4337 1.6868
7 3 34 9.2929 -2.7599
7 3 35 1.3697 3.3873
7 3 36 -4.6623 4.8024
7 3 37 4.5509 -5.4679
7 3 38 -3.8453 8.5768
7 3 39 4.2451 -3.8026
7 3 40 2.1437 -7.0159
7 3 41 1.4290 -1.8230
7 4 0 1.5047 -23.8864
7 4 1 -7.5759 1.1937
7 4 2 -17.7463 -23.8398
7 4 3 17.0059 0.4532
7 4 4 20.4801 -15.8099
7 4 5 19.7856 -6.0600
7 4 6 -4.5599 -8.0343
7 4 7 7.5036 -5.9029
7 4 8 -1.1685 -13.3666
7 4 9 -11.3792 -9.7713
7 4 10 -11.3349 -0.2078
7 4 11 -2.3875 0.4497
7 4 12 7.5212 -18.9755
7 4 13 -3.7378 -10.4406
7 4 14 6.7309 5.6677
7 4 15 -6.5086 -0.8714
7 4 16 -4.1548 -2.1188
7 4 17 0.5014 -8.5279
7 4 18 2.7551 -28.0789
7 4 19 7.9187 2.4014
7 4 20 4.4688 0.7238
7 4 21 -11.6777 5.3136
7 4 22 -4.5061 -4.8970
7 4 23 -0.3580 -3.6125
7 4 24 -10.3171 -10.6927
7 4 25 -5.7544 7.2894
7 4 26 -8.7005 0.6473
7 4 27 12.4951 5.9371
7 4 28 8.4848 5.0422
7 4 29 -10.1044 -6.0047
7 4 30 4.9526 0.6422
7 4 31 -0.6737 -8.1720
7 4 32 -7.7474 -0.9224
7 4 33 2.8570 0.5372
7 4 34 5.9209 5.6208
7 4 35 1.3899 -8.8613
7 4 36 -0.1697 3.9208
7 4 37 -6.7971 -1.9227
7 4 38 -7.6713 -8.9432
7 4 39 -1.1008 3.4575
7 4 40 -6.5928 1.9961
7 5 0 -0.2936 7.3842
7 5 1 -15.6526 -17.8771
7 5 2 9.4649 -12.3214
7 5 3 -28.9520 -14.9043
7 5 4 -2.8828 -8.3591
7 5 5 -8.3150 1.5319
7 5 6 10.6207 -0.5439
7 5 7 -14.9176 17.2851
7 5 8 -13.3431 -1.3005
7 5 9 -1.2740 -10.7722
7 5 10 -6.6159 5.5024
7 5 11 -1.0163 5.4593
7 5 12 -2.1160 -2.1796
7 5 13 0.3732 4.5515
7 5 14 5.6159 13.5015
7 5 15 -3.6149 -4.8786
7 5 16 -10.4782 4.8069
7 5 17 -4.7049 -0.9690
7 5 18 2.1710 -4.4050
7 5 19 -6.6929 -1.4856
7 5 20 5.0715 4.9302
7 5 21 -7.8188 8.8755
7 5 22 10.8546 9.1170
7 5 23 -12.1979 -5.3845
7 5 24 -7.3218 -4.5633
7 5 25 13.3565 -4.8857
7 5 26 8.7581 -3.3365
7 5 27 -19.6460 -2.4328
7 5 28 7.2648 -2.9920
7 5 29 -4.4382 2.4068
7 5 30 -2.8240 6.4073
7 5 31 12.8589 -5.3015
7 5 32 5.2182 4.5942
7 5 33 -8.1081 -0.0454
7 5 34 -4.5477 1.8120
7 5 35 -4.3168 2.8847
7 5 36 -1.8245 9.3923
7 5 37 6.0264 9.2989
7 5 38 0.9135 -1.5839
7 5 39 -0.7007 -5.3106
7 5 40 0.3075 0.9659
7 6 0 1.4751 2.7331
7 6 1 -17.1006 1.0667
7 6 2 2.1371 16.2951
7 6 3 5.6026 -8.2061
7 6 4 -14.5312 7.3087
7 6 5 9.9804 0.1670
7 6 6 6.6243 13.6315
7 6 7 -1.0910 -2.7601
7 6 8 -0.7446 11.5005
7 6 9 -2.1763 4.4317
7 6 10 4.4654 -4.8021
7 6 11 19.1913 -5.3929
7 6 12 3.6720 -8.6069
7 6 13 -5.0616 11.0462
7 6 14 -2.0034 -7.0008
7 6 15 6.9133 -3.3181
7 6 16 -3.4285 5.4833
7 6 17 2.3678 -0.5599
7 6 18 4.1977 6.5223
7 6 19 -0.3212 3.9916
7 6 20 1.7283 -2.9463
7 6 21 -1.0007 -2.8096
7 6 22 0.3423 12.5341
7 6 23 -9.5998 -13.8062
7 6 24 -13.0650 9.2166
7 6 25 4.8898 -0.0064
7 6 26 9.1924 -4.8840
7 6 27 -4.9511 2.2928
7 6 28 -5.7311 -2.9016
7 6 29 9.3683 -18.6606
7 6 30 0.8823 5.4665
7 6 31 7.6641 4.0649
7 6 32 2.5260 9.2369
7 6 33 6.5570 -0.3244
7 6 34 2.6586 -2.5322
7 6 35 7.3178 -2.9768
7 6 36 -2.9789 -1.1030
7 6 37 2.1627 -2.8736
7 6 38 -1.7042 12.0413
7 6 39 -5.4579 7.2060
7 7 0 -3.5839 -7.5813
7 7 1 -2.0220 -8.4932
7 7 2 -4.9956 15.6468
7 7 3 15.6902 -4.2029
7 7 4 7.3432 -7.4731
7 7 5 9.4608 2.3802
7 7 6 -3.2657 -12.5229
7 7 7 2.4986 1.5679
7 7 8 2.2783 -4.2865
7 7 9 -2.7720 2.6482
7 7 10 -3.9239 -4.5029
7 7 11 -3.6433 1.9707
7 7 12 -6.2115 4.9338
7 7 13 -3.5553 4.7140
7 7 14 5.1681 -2.4824
7 7 15 -14.4064 -4.5337
7 7 16 16.3179 -8.1949
7 7 17 13.1026 2.0758
7 7 18 -8.5194 3.7342
7 7 19 1.6709 1.1550
7 7 20 1.7381 1.4381
7 7 21 -5.8396 -2.9711
7 7 22 -6.2604 7.4579
7 7 23 5.8282 -6.3276
7 7 24 -2.3575 1.6208
7 7 25 -0.2777 1.4992
7 7 26 -20.5226 -5.7000
7 7 27 -1.4041 -2.0800
7 7 28 2.8419 4.1829
7 7 29 3.7759 -12.2049
7 7 30 14.5044 -13.2935
7 7 31 0.1264 4.5131
7 7 32 -16.4557 -7.2093
7 7 33 0.0703 0.6288
7 7 34 -1.8013 -2.7466
7 7 35 7.8370 3.0011
7 7 36 12.0832 -0.5750
7 7 37 6.1881 3.6280
7 7 38 1.8311 1.9440
7 8 0 -1.7821 8.6416
7 8 1 -1.2732 -13.2089
7 8 2 -6.1581 -17.2961
7 8 3 -3.0349 -6.9582
7 8 4 -7.1440 -6.9403
7 8 5 -4.1257 6.5959
7 8 6 3.1017 -4.2330
7 8 7 -0.0948 5.4248
7 8 8 14.0621 -0.0262
7 8 9 8.4395 -7.2299
7 8 10 15.5606 4.0628
7 8 11 -5.7218 6.3518
7 8 12 -6.7827 12.4533
7 8 13 0.9927 -2.6907
7 8 14 -1.0700 -14.2959
7 8 15 -4.7034 -9.7894
7 8 16 -4.5479 2.2196
7 8 17 3.9632 -4.9298
7 8 18 -1.4561 11.2233
7 8 19 -6.0208 5.1637
7 8 20 -2.4535 1.0280
7 8 21 -2.9345 5.6195
7 8 22 -3.9854 -1.7504
7 8 23 5.9769 6.7288
7 8 24 -4.9257 8.9199
7 8 25 2.7667 2.6361
7 8 26 -7.7950 -3.0428
7 8 27 -6.6342 -4.9862
7 8 28 -3.0274 -17.2221
7 8 29 -3.4028 7.1400
7 8 30 -3.2958 13.6549
7 8 31 -1.5133 -1.0162
7 8 32 -0.1353 1.5341
7 8 33 -0.9340 -7.5556
7 8 34 5.2861 -13.4470
7 8 35 -3.0487 -8.7316
7 8 36 10.4133 -5.3801
7 9 0 5.4879 13.3231
7 9 1 -15.8524 11.8416
7 9 2 -6.3823 -1.3504
7 9 3 0.4578 1.3647
7 9 4 -2.9177 -2.6533
7 9 5 -0.9560 -6.8244
7 9 6 9.0107 -10.5093
7 9 7 -15.4918 -13.3050
7 9 8 -3.5706 -13.2954
7 9 9 0.9263 -9.8088
7 9 10 6.0286 13.0840
7 9 11 2.7503 3.4557
7 9 12 -6.1878 2.4006
7 9 13 -11.0067 4.0949
7 9 14 -13.7211 -0.5192
7 9 15 8.7640 3.0158
7 9 16 11.9986 8.0011
7 9 17 -2.8787 8.1472
7 9 18 5.4797 -6.1688
7 9 19 6.8737 6.8219
7 9 20 -7.7141 3.1390
7 9 21 10.4453 -2.3519
7 9 22 11.8701 3.0854
7 9 23 -6.1954 1.2929
7 9 24 -6.5367 -0.1475
7 9 25 -4.8769 5.1307
7 9 26 -4.7328 2.8779
7 9 27 0.9415 5.7951
7 9 28 9.2965 -5.7984
7 9 29 4.1099 6.0170
7 9 30 -5.2180 8.4566
7 9 31 -10.4711 -6.2085
7 9 32 -6.4992 0.0748
7 9 33 -3.0993 -2.5992
7 9 34 -8.6785 -6.2733
7 9 35 0.7405 -3.5895
7 10 0 -2.8353 -7.0617
7 10 1 9.6323 -8.5513
7 10 2 -5.4811 15.8862
7 10 3 -11.9463 3.4169
7 10 4 -4.6256 -2.3040
7 10 5 -7.0089 7.5603
7 10 6 -6.9043 2.6954
7 10 7 -8.5182 0.6565
7 10 8 4.0496 9.6047
7 10 9 1.0330 -6.5952
7 10 10 1.6260 9.4281
7 10 11 11.9642 2.6318
7 10 12 1.2219 0.0292
7 10 13 0.2395 -2.8140
7 10 14 3.5059 2.6338
7 10 15 -2.5358 -0.3397
7 10 16 1.1866 -3.5803
7 10 17 3.2051 -3.6619
7 10 18 0.9025 0.3293
7 10 19 -1.6737 -11.2698
7 10 20 8.1875 -3.2550
7 10 21 0.8568 0.8635
7 10 22 -0.6743 2.0454
7 10 23 2.1689 6.6752
7 10 24 -3.5480 1.0923
7 10 25 7.2504 -2.5798
7 10 26 4.3557 -8.0161
7 10 27 1.2073 -2.2811
7 10 28 6.6110 9.6208
7 10 29 0.1822 2.9230
7 10 30 0.3970 0.3714
7 10 31 -6.2884 5.1392
7 10 32 -3.5765 2.3113
7 10 33 2.3085 -1.5067
7 11 0 -1.0021 -3.4755
7 11 1 -3.3898 6.5660
7 11 2 10.3284 2.4653
7 11 3 5.2308 6.6002
7 11 4 -1.3545 -2.6808
7 11 5 -3.7594 -1.8267
7 11 6 1.9736 3.9668
7 11 7 -3.6435 -3.7197
7 11 8 15.0912 1.8008
7 11 9 3.3416 -7.2982
7 11 10 -16.4502 -2.7408
7 11 11 3.9755 -4.3861
7 11 12 -4.4915 5.2212
7 11 13 7.6636 9.3143
7 11 14 11.6599 1.3333
7 11 15 -8.8137 1.9601
7 11 16 -17.2168 -3.5712
7 11 17 0.2746 -8.6781
7 11 18 -13.3106 -2.1951
7 11 19 -0.5699 0.9599
7 11 20 6.5520 -4.1874
7 11 21 0.9719 2.9097
7 11 22 -12.8094 0.1465
7 11 23 0.2240 -7.2378
7 11 24 -1.5460 -8.8737
7 11 25 -3.6405 2.8511
7 11 26 3.4249 -14.3038
7 11 27 -2.9682 0.9557
7 11 28 -2.7893 9.3842
7 11 29 -1.3604 -2.3249
7 11 30 -3.9255 -2.2487
7 11 31 0.9135 3.5559
7 12 0 -1.4572 -0.0099
7 12 1 1.2037 3.8477
7 12 2 -1.1527 6.5884
7 12 3 -1.1380 -4.5498
7 12 4 -1.9184 8.5405
7 12 5 -6.1985 4.3307
7 12 6 -2.8340 -0.8934
7 12 7 0.9437 -9.1775
7 12 8 -5.2853 6.6000
7 12 9 7.7568 -6.8792
7 12 10 6.0857 9.0845
7 12 11 3.1866 1.9538
7 12 12 -3.9253 -16.2137
7 12 13 7.4850 9.5626
7 12 14 -1.3332 10.4651
7 12 15 -8.9272 4.6855
7 12 16 2.9040 18.9285
7 12 17 -6.6605 1.2326
7 12 18 -2.2485 -8.4582
7 12 19 2.5368 11.0809
7 12 20 0.2812 1.3185
7 12 21 -9.5225 9.1313
7 12 22 -4.6277 6.8579
7 12 23 -8.4497 -0.1910
7 12 24 0.5589 -4.7205
7 12 25 -1.8319 11.3058
7 12 26 8.8436 9.8484
7 12 27 -6.5957 5.9322
7 12 28 4.4764 2.7490
7 12 29 -0.9440 1.4418
7 13 0 9.0568 -0.3812
7 13 1 11.6423 1.8936
7 13 2 -2.6014 -2.0270
7 13 3 3.9494 6.9558
7 13 4 -6.8147 8.4879
7 13 5 0.5947 7.4788
7 13 6 -1.3705 -6.6940
7 13 7 -6.0178 -6.5115
7 13 8 -8.6497 -9.6615
7 13 9 10.1072 2.8620
7 13 10 -0.9993 7.7209
7 13 11 11.0308 7.7655
7 13 12 4.5741 -2.7941
7 13 13 -5.5007 -4.9048
7 13 14 8.2393 -6.7947
7 13 15 7.7048 2.9779
7 13 16 -0.8351 8.5729
7 13 17 6.4668 -0.8768
7 13 18 -1.8060 6.4847
7 13 19 11.0902 -4.4192
7 13 20 2.6265 4.9911
7 13 21 -4.6485 0.3024
7 13 22 8.7350 -1.7601
7 13 23 4.1241 0.9856
7 13 24 7.4342 -2.5920
7 13 25 9.7469 -8.3656
7 13 26 2.6169 7.9479
7 14 0 2.0830 -3.5080
7 14 1 -0.0816 7.7746
7 14 2 13.5868 6.4530
7 14 3 -0.7725 17.0976
7 14 4 4.8640 -4.0288
7 14 5 -6.6616 5.9474
7 14 6 -2.1857 1.2436
7 14 7 -5.7123 -4.2877
7 14 8 20.4882 -2.9365
7 14 9 8.5434 -1.7563
7 14 10 -3.6232 -9.7265
7 14 11 -7.0713 5.4732
7 14 12 -4.1896 7.2797
7 14 13 -7.9756 2.3611
7 14 14 2.2950 -2.1724
7 14 15 9.2421 -9.0802
7 14 16 0.7148 -2.6985
7 14 17 -0.2696 4.1890
7 14 18 -7.6270 -0.6771
7 14 19 -5.2793 4.5958
7 14 20 -13.2401 -4.6134
7 14 21 6.3458 0.9040
7 14 22 -1.9374 -10.7922
7 15 0 2.7612 -6.7253
7 15 1 18.5203 -5.6267
7 15 2 1.9745 3.3195
7 15 3 -5.3470 -7.3601
7 15 4 2.1007 2.3100
7 15 5 -14.8937 -11.7303
7 15 6 1.2491 1.4126
7 15 7 3.3231 -13.3066
7 15 8 0.3386 7.3154
7 15 9 3.4030 -5.3032
7 15 10 6.7543 5.6219
7 15 11 -3.0666 4.7042
7 15 12 0.2074 -2.2786
7 15 13 3.6310 -3.7148
7 15 14 -1.9255 8.2397
7 15 15 -2.3043 0.9343
7 15 16 3.2955 -0.0990
7 15 17 11.3450 14.1900
7 16 0 -3.1935 4.7384
7 16 1 -5.4833 17.8547
7 16 2 -11.0506 -0.4882
7 16 3 -0.6865 11.3096
7 16 4 -3.4350 0.3581
7 16 5 -1.2267 -6.1964
7 16 6 -4.1477 3.5490
7 16 7 6.4332 -7.8795
7 16 9 4.2593 5.3089
7 16 10 -5.2874 3.2578
7 16 11 3.7781 -1.3945
8 0 0 -31.5135 2.0358
8 0 1 -12.0316 24.6161
8 0 2 10.7544 -4.6412
8 0 3 15.8919 15.2978
8 0 4 -0.9386 -0.9891
8 0 5 7.2810 2.5965
8 0 6 -36.8463 0.8978
8 0 7 1.3091 22.6996
8 0 8 11.0754 3.7427
8 0 9 3.9390 -3.3659
8 0 10 -13.2699 6.2487
8 0 11 14.1451 14.5149
8 0 12 13.5630 -5.9078
8 0 13 -0.3030 2.9814
8 0 14 -4.6146 -2.0195
8 0 15 -19.2609 -0.4202
8 0 16 1.1607 2.7106
8 0 17 -7.5846 -12.8992
8 0 18 6.9344 0.5781
8 0 19 -1.5784 -3.9135
8 0 20 -16.8520 -2.9490
8 0 21 4.8793 -1.7249
8 0 22 10.2111 -2.1207
8 0 23 5.9189 10.5472
8 0 24 -1.1835 9.3983
8 0 25 4.1756 3.2801
8 0 26 -7.0716 1.9141
8 0 27 9.6549 16.8570
8 0 28 8.6511 -7.3169
8 0 29 -1.9518 9.2266
8 0 30 -8.1480 0.1709
8 0 31 -8.2488 3.2382
8 0 32 2.9357 2.6409
8 0 33 -11.6001 -1.9003
8 0 34 2.0759 -0.5858
8 0 35 -3.6862 7.5223
8 0 36 -4.8958 -5.0503
8 0 37 8.9187 2.2840
8 0 38 5.4872 2.5646
8 0 39 2.8694 2.6557
8 0 40 -6.1408 7.6246
8 1 0 25.8212 -5.9763
8 1 1 1.2889 -4.8033
8 1 2 13.3876 -11.5275
8 1 3 -18.0018 -15.0416
8 1 4 14.7647 15.8578
8 1 5 2.7937 24.6391
8 1 6 5.8451 -5.9344
8 1 7 -7.3272 -6.0176
8 1 8 14.0922 -25.7968
8 1 9 -1.3867 8.4796
8 1 10 -5.8815 -2.6940
8 1 11 -8.8483 -1.8271
8 1 12 4.8312 -3.8230
8 1 13 -11.1290 20.7208
8 1 14 -3.6786 3.3168
8 1 15 -9.4730 10.7150
8 1 16 1.1507 0.9149
8 1 17 -12.1905 -7.8700
8 1 18 -2.3318 13.2950
8 1 19 6.6888 -17.6626
8 1 20 -2.9974 -2.5267
8 1 21 4.9863 4.3965
8 1 22 23.4519 -5.8165
8 1 23 7.2954 -3.7279
8 1 24 3.5545 2.6798
8 1 25 4.1959 2.7018
8 1 26 -2.3461 -3.7802
8 1 27 3.7522 2.9693
8 1 28 2.1509 -0.5383
8 1 29 -9.8155 11.0797
8 1 30 16.9625 4.0348
8 1 31 -8.0389 17.6307
8 1 32 5.1471 0.1736
8 1 33 -0.3790 -10.7071
8 1 34 -0.1727 7.3921
8 1 35 5.3436 -11.6709
8 1 36 7.4387 -3.4903
8 1 37 -6.5761 -1.8246
8 1 38 13.1068 1.9566
8 1 39 5.5246 1.1087
8 1 40 -4.5007 3.6404
8 2 0 9.9221 -3.2548
8 2 1 -16.8162 -6.1906
8 2 2 1.5221 19.3621
8 2 3 10.6836 -7.0640
8 2 4 4.3276 5.6675
8 2 5 -7.7642 -10.4348
8 2 6 -13.8958 11.5553
8 2 7 -4.9174 -10.3829
8 2 8 -10.4116 6.3565
8 2 9 -2.4708 9.9426
8 2 10 34.6077 15.1808
8 2 11 2.0067 1.1707
8 2 12 -2.4905 6.0197
8 2 13 2.6422 -1.1003
8 2 14 10.0533 7.9981
8 2 15 -4.6934 4.1834
8 2 16 14.6410 -2.6524
8 2 17 -20.9164 -8.9386
8 2 18 -15.1475 4.7654
8 2 19 9.6875 -13.6899
8 2 20 1.9200 -17.5855
8 2 21 10.3030 -7.7588
8 2 22 -7.9546 -2.5998
8 2 23 -2.0927 -8.8600
8 2 24 0.2705 7.5099
8 2 25 13.9054 -1.8880
8 2 26 13.8433 4.7582
8 2 27 2.0807 -1.9752
8 2 28 -0.5063 -10.5773
8 2 29 7.5561 2.5129
8 2 30 11.5276 -1.4594
8 2 31 -12.8194 -16.3843
8 2 32 2.2802 10.2723
8 2 33 -13.0459 -12.3769
8 2 34 -4.3244 0.1599
8 2 35 2.2054 -4.0833
8 2 36 0.2047 -5.7596
8 2 37 3.7737 -4.5837
8 2 38 -4.4716 6.5313
8 2 39 5.0959 -8.4859
8 2 40 -6.2489 3.3383
8 3 0 22.6420 -1.8638
8 3 1 -4.4216 -10.6072
8 3 2 -3.7284 9.7618
8 3 3 8.3698 17.3831
8 3 4 -5.6261 9.0035
8 3 5 -2.2932 -8.8025
8 3 6 -4.9886 3.3612
8 3 7 25.3110 -0.3290
8 3 8 -2.8861 -17.0387
8 3 9 3.0551 -9.5152
8 3 10 7.3866 -12.8074
8 3 11 1.4777 -3.6175
8 3 12 -10.5119 15.5551
8 3 13 3.8972 -9.9259
8 3 14 -2.8342 -10.2753
8 3 15 -8.5131 2.1506
8 3 16 -5.0948 14.3488
8 3 17 -10.1269 -3.6161
8 3 18 -5.9954 2.4547
8 3 19 -8.5044 -13.0236
8 3 20 -6.2463 1.8039
8 3 21 2.2721 1.3348
8 3 22 1.6746 -7.7803
8 3 23 -1.9682 -2.9100
8 3 24 -1.7109 -19.2088
8 3 25 0.9416 -8.3694
8 3 26 -10.0461 -4.2403
8 3 27 0.6603 7.9425
8 3 28 -12.7494 0.3964
8 3 29 -6.6026 4.2106
8 3 30 0.1290 1.5085
8 3 31 -7.4354 -5.6729
8 3 32 -5.3687 12.2371
8 3 33 7.8198 0.3225
8 3 34 -9.7942 1.7146
8 3 35 0.0404 -5.6841
8 3 36 -4.7626 7.0208
8 3 37 5.8388 -7.3885
8 3 38 0.8192 0.8817
8 3 39 -0.3718 2.8388
8 3 40 -2.2104 -8.0281
8 4 0 -10.7608 -2.3002
8 4 1 34.0258 1.6588
8 4 2 16.0994 9.5385
8 4 3 -3.3571 -4.4185
8 4 4 -21.3441 7.6730
8 4 5 -13.3068 -7.0051
8 4 6 -7.9646 -2.4769
8 4 7 -3.6662 2.8437
8 4 8 -8.5944 -8.5291
8 4 9 -2.5929 12.9447
8 4 10 -6.8431 -2.1985
8 4 11 -8.1892 -5.5876
8 4 12 4.1501 11.3116
8 4 13 -3.2529 17.7236
8 4 14 -9.9877 -0.9867
8 4 15 4.5552 3.4347
8 4 16 -7.5190 5.4390
8 4 17 2.2990 3.0623
8 4 18 9.2135 2.2043
8 4 19 -2.9148 -6.2479
8 4 20 -18.7800 8.4424
8 4 21 -1.6278 1.1363
8 4 22 -11.8269 2.5305
8 4 23 -6.2738 7.1303
8 4 24 8.7665 8.6382
8 4 25 -1.2253 2.1025
8 4 26 -1.6019 0.7355
8 4 27 6.3248 9.3694
8 4 28 10.1195 8.1245
8 4 29 -17.3894 5.4602
8 4 30 -1.4285 -7.3717
8 4 31 7.5092 1.7022
8 4 32 -1.4455 0.6756
8 4 33 7.3469 1.6609
8 4 34 -2.1849 -1.0663
8 4 35 -5.1013 -0.9976
8 4 36 -6.7924 -3.9691
8 4 37 4.0846 -0.1635
8 4 38 -4.6667 -6.3260
8 4 39 4.6738 5.8550
8 5 0 -0.6894 -10.5263
8 5 1 -1.1681 -1.1541
8 5 2 17.2743 9.7908
8 5 3 2.8473 22.1206
8 5 4 -8.3814 6.9027
8 5 5 9.5929 15.5672
8 5 6 -10.3170 -2.8179
8 5 7 6.0980 -0.5881
8 5 8 -5.8648 11.9428
8 5 9 -0.1195 10.0636
8 5 10 11.2976 2.7130
8 5 11 4.9671 13.3410
8 5 12 12.7322 -1.0625
8 5 13 8.8339 -1.7987
8 5 14 -2.9917 13.8389
8 5 15 -7.6525 1.8223
8 5 16 3.0800 -19.2437
8 5 17 0.9829 1.5601
8 5 18 8.4064 6.0150
8 5 19 3.6350 9.1589
8 5 20 4.6108 10.6978
8 5 21 10.1620 -0.6863
8 5 22 3.7137 -12.9609
8 5 23 2.1651 -1.3823
8 5 24 -0.9893 0.1658
8 5 25 3.4031 -1.0306
8 5 26 7.2872 8.7073
8 5 27 -1.3869 7.6700
8 5 28 3.4898 -0.0951
8 5 29 -3.9763 -3.5305
8 5 30 -8.6070 4.8436
8 5 31 -0.6045 -4.0595
8 5 32 5.5021 -1.5693
8 5 33 -10.1967 4.8950
8 5 34 -1.2542 3.4948
8 5 35 -1.1506 2.3518
8 5 36 -1.9035 -8.7109
8 5 37 0.5247 -1.9850
8 5 38 2.5222 -3.5847
8 6 0 38.1458 -2.2385
8 6 1 -6.3217 -11.2378
8 6 2 -3.3169 -2.0294
8 6 3 10.7707 2.6988
8 6 4 9.8610 12.4706
8 6 5 2.2043 11.9790
8 6 6 11.8989 -4.3714
8 6 7 -4.0640 5.2855
8 6 8 9.5526 -13.2997
8 6 9 11.8157 -4.6284
8 6 10 1.8549 -22.5483
8 6 11 1.5677 3.2115
8 6 12 6.9535 3.0191
8 6 13 -3.9531 -10.1961
8 6 14 -4.7046 3.9901
8 6 15 -5.2604 3.1926
8 6 16 1.1737 -6.4591
8 6 17 1.3291 -11.7702
8 6 18 3.2307 -3.2246
8 6 19 -4.2653 -3.8556
8 6 20 -0.5927 4.4573
8 6 21 -7.1454 -8.8683
8 6 22 -3.3733 3.3698
8 6 23 7.8539 -0.1101
8 6 24 6.5090 -1.4585
8 6 25 5.7534 -3.4813
8 6 26 9.4726 4.6959
8 6 27 -2.9628 4.9549
8 6 28 -13.3436 10.7084
8 6 29 6.4039 -6.3142
8 6 30 9.6867 8.8480
8 6 31 -2.7924 7.4065
8 6 32 -0.5027 -1.5311
8 6 33 -5.3484 -3.9964
8 6 34 -8.2359 7.7016
8 6 35 -6.3129 -1.6906
8 6 36 -3.5077 0.7632
8 7 0 3.2588 -3.7183
8 7 1 20.9790 -3.3984
8 7 2 6.4794 14.6497
8 7 3 15.4473 -11.4563
8 7 4 7.3066 -13.7657
8 7 5 -5.7850 0.2438
8 7 6 -3.8427 -2.0112
8 7 7 -24.5543 2.6196
8 7 8 -7.8792 3.8001
8 7 9 -4.2188 -10.9089
8 7 10 7.3628 0.9922
8 7 11 -15.7838 0.2711
8 7 12 7.7184 -1.2146
8 7 13 -10.3523 10.7887
8 7 14 -2.0781 3.2698
8 7 15 9.3627 -6.7506
8 7 16 -1.7061 6.6687
8 7 17 -2.0318 4.9485
8 7 18 -1.9198 1.5156
8 7 19 -0.8953 3.8117
8 7 20 0.3375 -1.0375
8 7 21 2.6592 -11.2766
8 7 22 -9.9302 3.7450
8 7 23 9.8467 -2.7209
8 7 24 1.3259 -7.0528
8 7 25 10.6939 7.4296
8 7 26 5.1401 7.0254
8 7 27 5.4602 -8.2854
8 7 28 -4.6064 -1.4159
8 7 29 9.8383 4.6943
8 7 30 -3.0325 -2.1498
8 7 31 4.0151 7.2346
8 7 32 -3.9542 16.5369
8 7 33 3.9164 3.3925
8 7 34 3.8162 8.0554
8 7 35 10.7614 2.8647
8 7 36 -0.5732 7.6201
8 8 0 -5.3448 -3.6368
8 8 1 -3.1336 -27.8305
8 8 2 16.4256 0.2654
8 8 3 -1.7708 14.2566
8 8 4 -9.5731 2.5455
8 8 5 2.2393 13.4020
8 8 6 12.9485 16.5325
8 8 7 0.3384 -3.2705
8 8 8 10.8992 6.5794
8 8 9 -8.8297 -6.8405
8 8 10 -9.1632 12.1908
8 8 11 12.7640 -2.1512
8 8 12 1.1450 2.7771
8 8 13 -7.4670 -20.6552
8 8 14 11.2714 1.8837
8 8 15 2.6126 -10.6601
8 8 16 -2.7733 4.3841
8 8 17 4.4147 8.5173
8 8 18 -0.9397 5.1075
8 8 19 -8.4847 0.1084
8 8 20 1.7113 -3.5853
8 8 21 4.2991 -5.1976
8 8 22 2.1852 -0.3563
8 8 23 10.0160 -4.6074
8 8 24 1.0172 -17.1944
8 8 25 -0.8572 5.0330
8 8 26 -6.3748 0.0947
8 8 27 1.6069 1.5282
8 8 28 10.5450 -3.2041
8 8 29 11.2572 4.7691
8 8 30 3.1138 -8.0247
8 8 31 6.0034 1.4674
8 8 32 7.9882 -9.5594
8 8 33 11.0640 -3.1763
8 8 34 5.0445 -7.7489
8 8 35 10.8596 0.9552
8 9 0 -2.4842 -12.3700
8 9 1 17.6035 -0.4902
8 9 2 -2.4346 -11.3136
8 9 3 21.6881 -3.3386
8 9 4 1.8152 10.0274
8 9 5 -5.1869 -10.1733
8 9 6 2.3758 -11.1662
8 9 7 3.7720 -10.1699
8 9 8 1.3318 8.4076
8 9 9 3.1283 -1.8878
8 9 10 -18.4094 16.8050
8 9 11 -2.7934 2.2664
8 9 12 -17.0742 -8.7853
8 9 13 5.6551 -4.3183
8 9 14 0.0939 0.1023
8 9 15 14.4403 -1.6274
8 9 16 -4.7090 10.4437
8 9 17 12.3829 1.5960
8 9 18 -6.6660 -0.3456
8 9 19 -3.0841 -8.5937
8 9 20 -6.4157 -5.5022
8 9 21 0.1778 -5.0210
8 9 22 -4.9301 -0.7334
8 9 23 0.4774 -1.3383
8 9 24 -2.3970 4.4427
8 9 25 2.0298 1.4226
8 9 26 5.2585 -13.8454
8 9 27 -4.0304 -1.4704
8 9 28 1.8247 -5.9165
8 9 29 -6.3476 -7.2575
8 9 30 -4.1227 -1.8170
8 9 31 -4.4397 -4.9465
8 9 32 -0.0109 -13.3712
8 9 33 -7.3760 -7.4094
8 10 0 -6.5831 -1.3602
8 10 1 6.0870 -10.4723
8 10 2 -1.7180 -0.1573
8 10 3 -10.6259 6.7887
8 10 4 2.5873 -5.6417
8 10 5 -7.7553 10.2077
8 10 6 -7.2342 -7.8085
8 10 7 6.3712 -0.6020
8 10 8 5.5345 15.1948
8 10 9 18.8999 8.5494
8 10 10 3.2349 3.4160
8 10 11 -3.9550 2.9950
8 10 12 -18.5720 -19.2275
8 10 13 7.1932 0.3185
8 10 14 10.9295 -4.5525
8 10 15 5.2207 2.7457
8 10 16 6.4625 -4.4500
8 10 17 -2.3636 10.1373
8 10 18 -15.0801 -9.5333
8 10 19 5.8052 7.5024
8 10 20 -0.7228 -2.6449
8 10 21 4.0257 5.6322
8 10 22 3.3806 -4.7931
8 10 23 -0.3142 6.3266
8 10 24 -11.3787 -2.4452
8 10 25 0.4706 0.7969
8 10 26 4.8944 -5.8402
8 10 27 -4.0570 5.0734
8 10 28 -2.6823 1.7466
8 10 29 -8.2224 -4.2598
8 10 30 -2.3367 8.7050
8 10 31 -1.7343 2.0008
8 10 32 0.6976 -5.9143
8 11 0 5.7091 -3.0896
8 11 1 1.6353 2.8217
8 11 2 1.0341 10.5352
8 11 3 3.0363 8.6590
8 11 4 -2.9767 -11.3704
8 11 5 4.7818 -8.9025
8 11 6 15.4872 4.3586
8 11 7 -7.4919 -5.7476
8 11 8 0.8518 -4.2505
8 11 9 2.3227 3.9747
8 11 10 -12.8915 -0.9141
8 11 11 -1.2403 1.3790
8 11 12 5.2255 -5.0354
8 11 13 -7.3780 -0.1683
8 11 14 6.5968 -18.4237
8 11 15 0.3010 -3.0546
8 11 16 -1.9557 6.9984
8 11 17 -1.0886 -4.8059
8 11 18 4.7132 -1.0734
8 11 19 -4.8658 -2.8074
8 11 20 13.7615 -9.6138
8 11 21 1.0498 5.4525
8 11 22 1.0286 2.9738
8 11 23 -2.6917 3.2011
8 11 24 2.3941 -9.8678
8 11 25 -10.0377 -0.7401
8 11 26 3.2125 3.6898
8 11 27 -4.4321 2.4583
8 11 28 5.4109 0.6462
8 11 29 2.1632 -0.9154
8 12 0 16.2322 2.3689
8 12 1 1.6844 -4.8500
8 12 2 -3.1785 3.0983
8 12 3 -6.4085 -8.6419
8 12 4 -9.3813 -8.7160
8 12 5 1.1587 -1.3000
8 12 6 22.6460 4.7941
8 12 7 3.1448 4.5535
8 12 8 -1.9297 4.0811
8 12 9 -8.3236 -8.3522
8 12 10 -11.6403 -2.6936
8 12 11 -2.5379 3.4643
8 12 12 8.2103 -4.9228
8 12 13 -9.1702 1.1854
8 12 14 0.3723 2.3171
8 12 15 -10.0103 -9.6416
8 12 16 -3.9325 -0.5800
8 12 17 2.2466 -3.0779
8 12 18 -3.3437 -9.6629
8 12 19 3.4148 -2.4631
8 12 20 1.7195 -0.2296
8 12 21 4.4081 -7.6531
8 12 22 -8.9325 8.9831
8 12 23 -6.4875 5.2027
8 12 24 12.2986 -5.6786
8 12 25 -0.2594 6.6980
8 12 26 -3.6662 5.7487
8 12 27 -6.1059 -14.5363
8 13 0 -5.6140 -0.0326
8 13 1 -4.0629 1.3228
8 13 2 -14.1724 5.3552
8 13 3 -3.8421 -9.8536
8 13 4 -0.0686 -9.5068
8 13 5 1.8789 -6.8142
8 13 6 -3.1713 -6.0139
8 13 7 0.8269 -1.7929
8 13 8 -2.4623 30.5351
8 13 9 -7.4642 -3.2702
8 13 10 -2.9988 -4.2259
8 13 11 -0.8644 -4.0464
8 13 12 -6.0508 -5.0614
8 13 13 -3.5571 -6.2840
8 13 14 0.2540 22.9814
8 13 15 -11.0475 -2.3333
8 13 16 -9.7544 -0.5146
8 13 17 1.9900 -9.7821
8 13 18 -0.7744 -10.2876
8 13 19 -1.2151 1.9503
8 13 20 0.8038 5.1646
8 13 21 -2.5970 5.4417
8 13 22 -2.3859 -13.0354
8 13 23 7.9694 0.2352
8 13 24 1.6484 2.7143
8 14 0 0.0134 1.0261
8 14 1 -0.6550 19.3478
8 14 2 -7.7152 1.8876
8 14 3 -1.1061 3.9767
8 14 4 3.8624 -1.4678
8 14 5 6.0434 -1.7841
8 14 6 5.2956 0.5471
8 14 7 4.4047 4.4296
8 14 8 -5.3149 9.8581
8 14 9 11.4947 13.1726
8 14 12 3.3773 0.7687
8 14 13 7.6446 6.2352
8 14 14 -5.3442 5.0777
8 14 15 6.6114 6.0467
8 14 16 -19.6678 2.9945
8 14 17 -2.5356 -5.8175
8 14 18 -1.5195 2.5443
8 14 19 8.7728 3.7806
8 14 20 -1.4889 2.5985
8 15 0 17.1083 0.3839
8 15 1 -11.2265 -11.8881
8 15 2 12.8718 -6.3422
8 15 3 -14.2839 -3.7859
8 15 4 0.8529 -9.2398
8 15 5 7.1714 -7.0790
8 15 6 17.3116 9.0031
8 15 7 13.6467 -0.8444
8 15 13 13.6278 0.3337
8 15 14 -0.3005 0.4197
8 16 0 -19.2490 3.4008
8 16 1 4.5558 -0.5674
8 16 2 -15.4712 6.7538
8 16 3 1.7293 -20.7604
9 0 1 6.8058 6.8725
9 0 2 13.1163 0.7770
9 0 3 0.9110 -26.7890
9 0 4 0.4258 13.0803
9 0 5 -5.8390 -5.5611
9 0 6 4.4377 10.5155
9 0 7 -5.7316 -26.1123
9 0 8 -1.2571 -2.7353
9 0 9 1.9267 -11.5475
9 0 10 11.6177 -9.1800
9 0 11 10.3435 0.4024
9 0 12 11.0564 -5.7541
9 0 13 -6.6025 -17.4312
9 0 14 7.0794 -7.1613
9 0 15 -5.2411 -12.7390
9 0 16 -2.4965 -2.4699
9 0 17 3.4279 7.9534
9 0 18 9.3994 4.1542
9 0 19 4.2566 -2.5961
9 0 20 -23.3641 15.0526
9 0 21 -2.0361 -0.6810
9 0 22 2.4698 5.6190
9 0 23 -8.9244 13.9298
9 0 24 -1.8233 -3.7678
9 0 25 6.8462 -0.3254
9 0 26 -7.9342 -1.0310
9 0 27 7.6716 3.5172
9 0 28 -3.9431 -10.4413
9 0 29 -7.3898 -11.5773
9 0 30 5.6410 -8.7468
9 0 31 -5.0495 6.5507
9 0 32 3.0928 0.0831
9 0 33 3.5283 13.8299
9 0 34 -8.4237 7.2496
9 0 35 6.0134 -6.4838
9 0 36 -5.0441 7.1656
9 0 37 -5.8601 -2.0650
9 0 38 8.8305 3.0565
9 0 39 -3.7195 -7.8549
9 1 0 1.8568 -15.3994
9 1 1 -5.7860 -4.6573
9 1 2 9.9772 4.5523
9 1 3 -3.5198 -9.7887
9 1 4 -29.7751 12.2277
9 1 5 -3.3878 12.8381
9 1 6 -6.5229 0.7476
9 1 7 1.2588 -16.3676
9 1 8 -27.4442 -3.5812
9 1 9 6.7117 -13.7054
9 1 10 -22.0981 -6.8978
9 1 11 -11.5825 3.4835
9 1 12 1.4139 2.1503
9 1 13 -10.8451 6.2238
9 1 14 -14.3958 6.1913
9 1 15 7.2967 -3.2678
9 1 16 20.8887 -1.7446
9 1 17 7.8605 -6.9706
9 1 18 2.1572 14.9982
9 1 19 -2.2087 12.8922
9 1 20 8.4543 8.1788
9 1 21 17.3463 9.0099
9 1 22 -0.6526 -7.9121
9 1 23 2.4257 -0.4260
9 1 24 -20.5127 7.7884
9 1 25 -5.9309 -10.3039
9 1 26 -1.1079 -2.7242
9 1 27 -9.6832 7.4691
9 1 28 2.6291 -2.0075
9 1 29 -1.1281 11.3311
9 1 30 4.8042 -5.2541
9 1 31 11.2051 0.5830
9 1 32 16.4192 10.2488
9 1 33 -3.9535 -9.8832
9 1 34 1.7845 3.7514
9 1 35 -1.7247 7.3939
9 1 36 5.8215 -4.4231
9 1 37 4.5784 8.8453
9 1 38 -5.5487 4.3588
9 1 39 5.8552 -5.3927
9 2 0 -2.4527 10.8537
9 2 1 -4.2520 -22.0770
9 2 2 12.1213 19.6721
9 2 3 10.2730 18.0701
9 2 4 -4.4929 17.3679
9 2 5 6.0458 1.1623
9 2 6 -14.0428 -6.4396
9 2 7 -6.9600 10.9752
9 2 8 -0.2698 18.7031
9 2 9 17.9152 26.2785
9 2 10 8.1369 -7.8456
9 2 11 1.0314 6.6090
9 2 12 3.9663 -7.1808
9 2 13 7.8441 -2.0161
9 2 14 3.1244 -10.1666
9 2 15 -8.4134 -7.8984
9 2 16 14.9110 -3.1138
9 2 17 13.5213 -7.0602
9 2 18 4.5504 1.1438
9 2 19 5.9196 -7.6242
9 2 20 1.2285 0.1066
9 2 21 -1.2382 1.4045
9 2 22 -4.6654 16.4967
9 2 23 -3.7759 10.2593
9 2 24 4.8795 1.5698
9 2 25 1.3285 17.3187
9 2 26 -2.0746 -13.7270
9 2 27 10.3024 -7.4197
9 2 28 1.8282 -7.5227
9 2 29 3.1424 -4.7154
9 2 30 7.3883 -6.0102
9 2 31 -11.4279 -7.8892
9 2 32 3.6712 0.8564
9 2 33 6.3928 -4.2470
9 2 34 -0.9104 -0.3092
9 2 35 9.0691 -1.9205
9 2 36 5.0132 2.8718
9 2 37 -0.5079 -9.1493
9 2 38 -1.9078 8.2829
9 2 39 -4.5658 5.3731
9 3 0 -3.5291 -5.0155
9 3 1 11.3325 6.0710
9 3 2 -1.3283 -12.4424
9 3 3 21.3228 -2.7803
9 3 4 0.8809 3.9228
9 3 5 7.3850 -9.3157
9 3 6 -1.7159 -14.9259
9 3 7 20.6369 -5.7460
9 3 8 18.5851 -20.8883
9 3 9 -7.3866 1.4638
9 3 10 -9.5538 -6.3754
9 3 11 -9.2220 -5.3268
9 3 12 -8.0194 -1.1496
9 3 13 -8.0604 -7.1721
9 3 14 18.6063 -12.3721
9 3 15 -4.7532 -5.0360
9 3 16 -7.4416 1.1888
9 3 17 -4.1934 -5.9559
9 3 18 3.3712 3.4630
9 3 19 17.8066 -1.2734
9 3 20 11.2229 2.3793
9 3 21 4.2368 -5.3994
9 3 22 -4.5264 -2.4841
9 3 23 12.8342 2.3217
9 3 24 0.1281 -5.7354
9 3 25 -8.2672 -7.6892
9 3 26 -6.8725 0.5542
9 3 27 -10.7979 -3.0239
9 3 28 2.0046 -6.5679
9 3 29 -5.1973 2.5578
9 3 30 10.3768 3.7418
9 3 31 -6.9202 -1.4116
9 3 32 -7.1296 -4.1159
9 3 33 4.2958 -7.2767
9 3 34 3.3905 -2.1152
9 3 35 -1.4210 -1.4916
9 3 36 -0.5629 2.6739
9 3 37 2.6909 -1.6948
9 3 38 -5.1664 -3.7889
9 4 0 1.8574 -7.6952
9 4 1 -7.3064 4.0888
9 4 2 -7.9207 -6.3694
9 4 3 -29.2116 -8.6494
9 4 4 -3.0300 -13.3615
9 4 5 -16.2214 -6.2363
9 4 6 -14.9247 -12.6716
9 4 7 4.8031 14.6831
9 4 8 2.6328 -5.8535
9 4 9 -14.9844 -0.9254
9 4 10 -1.1312 15.9381
9 4 11 -11.8694 3.5050
9 4 12 -1.5780 -11.3833
9 4 13 -10.1236 -5.7326
9 4 14 -2.9587 -0.9298
9 4 15 10.5059 -4.1171
9 4 16 6.5874 7.1555
9 4 17 -8.1300 -15.4772
9 4 18 -2.3083 -11.0449
9 4 19 -5.1229 -5.7523
9 4 20 -7.2963 2.7003
9 4 21 -1.4403 0.7903
9 4 22 -2.4240 -4.6792
9 4 23 -1.0204 0.3401
9 4 24 -2.9922 -1.5589
9 4 25 -5.8794 1.4814
9 4 26 -1.3297 1.1715
9 4 27 2.6855 2.7810
9 4 28 2.1350 -5.9336
9 4 29 -3.8532 -6.7993
9 4 30 -4.3264 2.6990
9 4 31 7.2197 -4.4644
9 4 32 -3.7372 6.0363
9 4 33 -7.2341 -3.1164
9 4 34 2.4624 -0.4443
9 4 35 -2.5879 -2.8204
9 4 36 -6.6816 5.1066
9 4 37 0.7130 3.7348
9 4 38 -4.1911 2.3778
9 5 0 3.3828 31.7310
9 5 1 -1.5741 1.8819
9 5 2 -1.3209 17.4045
9 5 3 -23.9469 8.1503
9 5 4 -17.3446 7.8586
9 5 5 10.0194 -15.2488
9 5 6 10.5821 6.8290
9 5 7 -5.2703 5.0559
9 5 8 1.6468 9.2783
9 5 9 -6.0170 4.8646
9 5 10 7.3775 7.8003
9 5 11 -2.5561 6.5715
9 5 12 -7.8321 4.3325
9 5 13 -2.1155 -15.1942
9 5 14 -5.9347 3.7083
9 5 15 -7.3693 -6.6560
9 5 16 1.1819 3.1397
9 5 17 1.9850 8.2545
9 5 18 -3.1711 11.8592
9 5 19 0.6381 -2.9519
9 5 20 -13.0290 1.3202
9 5 21 -0.0121 -3.5413
9 5 22 2.6414 8.9309
9 5 23 -6.9723 -1.8989
9 5 24 -9.0985 2.4908
9 5 25 1.3872 -0.2604
9 5 26 -0.7850 -2.3796
9 5 27 -6.9330 1.2410
9 5 28 -4.0866 4.6831
9 5 29 -1.1430 -5.4446
9 5 30 -2.5236 -1.9090
9 5 31 1.9498 2.3393
9 5 32 6.5018 -0.0728
9 5 33 -0.8626 12.3328
9 5 34 -5.9606 0.7689
9 5 35 6.4423 -6.2179
9 5 36 2.4691 1.8841
9 5 37 8.0788 1.7892
9 6 0 -0.9706 3.3487
9 6 1 8.0141 15.8930
9 6 2 -18.4839 15.1506
9 6 3 10.3900 8.5270
9 6 4 -9.4284 -2.1426
9 6 5 5.6742 -7.2717
9 6 6 9.2024 -5.4051
9 6 7 12.2550 -3.8271
9 6 8 -1.0623 -0.6640
9 6 9 9.1544 6.4450
9 6 10 1.1093 3.2950
9 6 11 2.5603 -10.5176
9 6 12 -8.6022 13.6290
9 6 13 -8.8894 3.3195
9 6 14 -1.5301 -2.0849
9 6 15 9.6700 -1.0926
9 6 16 -8.8305 -4.7560
9 6 17 13.2084 -2.2561
9 6 18 -5.3815 17.4369
9 6 19 -0.9450 4.2294
9 6 20 -2.1097 -0.7590
9 6 21 4.1201 2.2379
9 6 22 -0.0621 1.7467
9 6 23 6.4158 4.2061
9 6 24 -16.0112 7.4359
9 6 25 9.0634 8.0365
9 6 26 5.3318 -1.0827
9 6 27 -2.2941 -2.2496
9 6 28 -6.0817 1.8594
9 6 29 1.2462 -1.2679
9 6 30 3.7753 -6.9147
9 6 31 5.5488 4.3335
9 6 32 -2.0200 0.2217
9 6 33 -3.4064 -6.1774
9 6 34 0.5251 3.5139
9 7 0 2.5810 12.5767
9 7 1 15.7339 -2.5626
9 7 2 -6.0924 4.0520
9 7 3 -5.4187 1.3955
9 7 4 4.4269 -23.1690
9 7 5 -21.8545 3.7297
9 7 6 -9.7712 -7.4051
9 7 7 5.5821 -6.0150
9 7 8 5.3429 -5.8588
9 7 9 2.9410 3.8036
9 7 10 1.9495 4.1909
9 7 11 -0.2907 9.2806
9 7 12 -5.9118 0.9986
9 7 13 10.0799 9.2975
9 7 14 -6.5235 1.6594
9 7 15 5.9768 -3.0709
9 7 16 -1.0393 0.2983
9 7 17 6.1855 5.7259
9 7 18 -2.6102 -11.1785
9 7 19 1.7153 12.3362
9 7 20 -4.7406 -6.1750
9 7 21 11.4491 0.8342
9 7 22 -4.1690 3.1863
9 7 23 11.0863 0.3070
9 7 24 6.9059 -7.1238
9 7 25 -5.1145 2.8417
9 7 26 -8.9313 -8.7513
9 7 27 -4.0803 6.7754
9 7 28 -2.7056 -2.3404
9 7 29 2.6929 -1.4190
9 7 30 3.8614 1.1744
9 7 31 -1.2044 3.1284
9 7 32 0.8902 4.9538
9 7 33 -5.6716 -1.4890
9 7 34 0.3131 -6.0749
9 7 35 4.3660 0.5673
9 8 0 1.2230 21.4879
9 8 1 -1.7655 1.4197
9 8 2 -13.2839 -6.0066
9 8 3 -3.2482 21.0198
9 8 4 -7.7745 4.0737
9 8 5 -6.1438 2.6421
9 8 6 6.1387 6.8926
9 8 7 -4.2284 -14.4169
9 8 8 7.9201 -2.5893
9 8 9 7.6067 -7.1867
9 8 10 7.3980 -4.6808
9 8 11 -5.1852 7.7085
9 8 12 3.3452 -4.2910
9 8 13 5.7421 -2.4135
9 8 14 5.3158 -6.0855
9 8 15 -8.7422 5.9355
9 8 16 -2.0244 -1.6633
9 8 17 2.0054 18.6992
9 8 18 1.2037 -13.8727
9 8 19 -1.6822 -2.4012
9 8 20 8.6079 -3.5581
9 8 21 -7.5748 -2.6333
9 8 22 -2.2910 -12.4673
9 8 23 -5.5744 18.3438
9 8 24 -1.5713 -2.3004
9 8 25 0.6295 7.0983
9 8 26 -3.2605 5.0808
9 8 27 -1.3434 2.1769
9 8 28 6.8106 -8.5065
9 8 29 0.4041 -5.5857
9 8 30 4.8259 1.2489
9 8 31 -3.4070 0.7610
9 8 32 -5.1464 -1.6170
9 8 33 5.7252 -1.3653
9 9 0 9.0301 14.1269
9 9 1 12.3259 8.3787
9 9 2 -3.7874 5.9560
9 9 3 3.4350 0.0456
9 9 4 -0.7148 -1.4676
9 9 5 -12.5057 -7.5425
9 9 6 9.7578 -10.2912
9 9 7 -16.4377 -4.0903
9 9 8 -17.4134 7.3670
9 9 9 9.0117 1.2401
9 9 10 -5.8457 6.3967
9 9 11 -0.7045 -5.6315
9 9 12 9.5510 1.1615
9 9 13 -9.3018 -5.7957
9 9 16 1.8692 5.2953
9 9 17 -10.4372 -9.2650
9 9 18 4.0255 0.8529
9 9 19 -17.9139 0.8943
9 9 20 6.2437 1.7270
9 9 21 3.0805 3.5233
9 9 22 11.2489 5.1469
9 9 23 0.6911 -0.5806
9 9 24 4.6980 -0.3604
9 9 25 -8.7373 1.0413
9 9 26 6.2421 0.4445
9 9 27 -7.7621 -0.2646
9 9 28 -0.0180 -10.2159
9 9 29 -2.8772 3.1993
9 9 30 -5.7439 3.9238
9 9 31 -1.5782 -2.0903
9 9 32 -2.3959 5.2330
9 10 0 2.4693 -19.3865
9 10 1 6.7357 2.4422
9 10 2 -9.7755 15.4451
9 10 3 -12.9293 12.5545
9 10 4 -11.1202 -3.5567
9 10 5 3.1052 4.9079
9 10 6 2.6454 4.4508
9 10 7 14.6695 -5.7778
9 10 8 8.6165 21.3134
9 10 9 -1.9577 -4.4917
9 10 10 -11.3517 -8.8772
9 10 11 7.3931 5.4952
9 10 12 1.3541 -0.0254
9 10 13 6.5230 -1.6483
9 10 15 5.1137 2.6579
9 10 16 -6.2302 0.5153
9 10 17 2.8355 -2.7262
9 10 18 -9.5998 5.0560
9 10 19 7.9143 -2.7812
9 10 20 -3.4250 -5.1977
9 10 21 1.6784 -11.6629
9 10 22 2.2199 10.6127
9 10 23 -1.0964 -3.2801
9 10 24 -2.0365 -2.9486
9 10 25 -1.2130 1.3223
9 10 26 0.1877 -0.9128
9 10 27 -6.0959 -4.0690
9 10 28 0.9839 14.2968
9 10 29 -1.0864 7.3383
9 10 30 8.9329 5.2499
9 11 0 -2.0493 12.3948
9 11 1 10.5318 4.4978
9 11 2 12.2915 9.0653
9 11 3 -2.5894 7.8566
9 11 4 -6.9663 -12.0289
9 11 5 -5.5116 -9.8648
9 11 6 1.0930 -3.1998
9 11 7 7.5348 5.4207
9 11 8 6.7788 -1.1940
9 11 9 6.5773 2.4348
9 11 10 -12.8827 -5.6035
9 11 11 7.3892 -0.6907
9 11 12 5.1741 -6.2573
9 11 13 5.3717 6.8764
9 11 15 -3.0301 3.2399
9 11 16 -7.7440 -0.2334
9 11 17 -0.7472 7.2512
9 11 18 -8.1028 -1.6879
9 11 19 1.5861 5.4705
9 11 20 5.9802 -10.2897
9 11 21 -4.5947 12.3858
9 11 22 -11.6504 -2.2641
9 11 23 -4.0257 1.1948
9 11 24 -5.8897 0.8997
9 11 25 0.9898 4.1613
9 11 26 12.1464 -1.5574
9 11 27 9.1360 -1.7809
9 12 0 2.2144 -0.2778
9 12 1 3.5901 11.3595
9 12 2 -7.3244 -7.0326
9 12 3 4.8766 8.9088
9 12 4 4.1252 2.1366
9 12 5 -4.2022 -2.9578
9 12 6 7.4140 -4.5404
9 12 7 -4.8330 -0.3121
9 12 8 -9.9542 -10.9547
9 12 9 2.2080 -3.0999
9 12 10 9.6788 7.1351
9 12 11 -2.3050 4.1952
9 12 16 -1.3059 11.9249
9 12 17 -0.2169 3.6482
9 12 18 3.1066 -7.9508
9 12 19 3.8084 -0.3536
9 12 20 3.8316 11.7025
9 12 21 -2.1684 16.8213
9 12 22 4.6334 5.0521
9 12 23 -11.0933 -3.7501
9 12 24 6.7764 -10.0633
9 13 0 5.0658 -3.7487
9 13 1 0.1560 -2.6469
9 13 2 -6.7958 -5.3062
9 13 3 -9.0880 -3.2035
9 13 4 13.7728 3.4890
9 13 5 -5.7386 6.9553
9 13 6 2.4951 9.4857
9 13 7 -12.7813 -11.5467
9 13 8 -3.1187 -3.8403
9 13 9 -2.9668 -6.1842
9 13 16 -5.4097 -10.1557
9 13 17 3.2405 1.2314
9 13 18 6.2863 -3.5667
9 13 19 12.3549 -0.0123
9 13 20 -2.5078 4.7398
9 13 21 -2.6599 6.5874
9 14 0 -1.7343 11.4222
9 14 1 3.7198 -7.3714
9 14 2 11.2010 10.6693
9 14 3 0.8820 -10.3068
9 14 4 0.9182 -1.3143
9 14 5 -0.4112 -0.4213
9 14 6 -18.7027 24.2594
9 15 0 -2.3443 -17.3385
9 15 1 -1.8164 5.7815
9 15 2 -8.7655 -2.5005
9 15 3 16.4968 11.9199
10 0 0 -0.3235 15.8266
10 0 1 -5.2945 8.3183
10 0 2 21.6430 -5.2970
10 0 3 -5.8381 -16.0838
10 0 4 2.8102 -8.4181
10 0 5 -3.9030 -8.1598
10 0 6 -17.3666 1.5951
10 0 7 14.4282 22.8141
10 0 8 20.7790 2.7989
10 0 9 13.6645 6.7378
10 0 10 -5.1252 -2.6450
10 0 11 1.5163 15.0867
10 0 12 6.1872 -9.9148
10 0 13 -10.2660 8.6913
10 0 14 -11.9190 7.6432
10 0 15 -5.9126 21.6432
10 0 16 -0.4341 2.4847
10 0 17 -1.6651 -4.6620
10 0 18 1.1840 -4.1557
10 0 19 -9.4625 5.4466
10 0 20 -4.4321 2.9092
10 0 21 -1.8062 5.8967
10 0 22 19.7158 -1.8377
10 0 23 14.2963 4.6500
10 0 24 7.0557 0.6699
10 0 25 13.2434 -0.5302
10 0 26 -1.7337 -2.8076
10 0 27 -0.0296 -4.3998
10 0 28 11.9795 -1.6040
10 0 29 -8.2535 1.2512
10 0 30 -1.2135 1.5461
10 0 31 -2.1710 4.1176
10 0 32 2.5424 -1.1710
10 0 33 -3.5009 1.5702
10 0 34 3.3018 4.7727
10 0 35 -10.1795 -9.9639
10 0 36 13.8308 -1.5057
10 0 37 -1.2791 -10.2996
10 1 0 -4.2992 2.9084
10 1 1 -7.4991 -11.4898
10 1 2 -14.5456 7.2907
10 1 3 -10.9238 -6.5714
10 1 4 14.6942 15.7380
10 1 5 19.9848 -4.9109
10 1 6 4.3767 -6.6934
10 1 7 -0.7526 -27.4605
10 1 8 -1.0971 -10.5843
10 1 9 -0.2657 20.8231
10 1 10 12.6325 8.7490
10 1 11 4.2100 18.3047
10 1 12 17.0892 7.5573
10 1 13 -0.2101 2.9598
10 1 14 10.1662 9.4060
10 1 15 -4.6457 1.0229
10 1 16 11.9095 5.4376
10 1 17 -5.2407 7.5376
10 1 18 0.8392 7.4872
10 1 19 12.5757 -16.7421
10 1 20 5.2481 -7.2067
10 1 21 -4.1156 -14.4108
10 1 22 6.5186 -8.7094
10 1 23 -1.1488 -26.6212
10 1 24 -9.3584 -0.5006
10 1 25 -1.2479 5.4157
10 1 26 7.1640 -5.4646
10 1 27 -0.0621 12.0451
10 1 28 -0.8597 -1.3839
10 1 29 3.8496 -1.6674
10 1 30 2.7700 6.0739
10 1 31 2.5020 0.1429
10 1 32 -1.3259 1.5748
10 1 33 -7.6191 -7.8619
10 1 34 -6.2445 0.0512
10 1 35 -4.3624 -0.4273
10 1 36 -3.6903 5.5582
10 1 37 1.2387 -15.5441
10 2 0 10.5799 4.9688
10 2 1 3.8902 -4.5682
10 2 2 -9.5601 -3.4269
10 2 3 10.7453 -7.0213
10 2 4 -10.2130 -7.1155
10 2 5 -6.2279 -2.8958
10 2 6 -6.5661 12.4742
10 2 7 22.0309 -5.9122
10 2 8 2.7335 -10.5028
10 2 9 17.6377 -8.8431
10 2 10 22.7703 -12.7231
10 2 11 2.2980 -12.4373
10 2 12 0.9425 3.9769
10 2 13 -4.1862 4.3427
10 2 14 12.0910 0.0463
10 2 15 6.8196 -15.4454
10 2 16 0.7495 -0.1753
10 2 17 -10.3667 -13.8047
10 2 18 -20.4696 7.4205
10 2 19 -7.4225 -0.5458
10 2 20 -9.9404 -8.5052
10 2 21 -4.2401 3.9595
10 2 22 -17.8469 12.2605
10 2 23 3.9391 -4.2535
10 2 24 -4.8206 -3.8976
10 2 25 17.9038 -3.2944
10 2 26 2.7884 -4.5490
10 2 27 -1.7891 -2.1579
10 2 28 0.7313 1.3317
10 2 29 -8.6034 -1.0653
10 2 30 2.9922 1.2491
10 2 31 -4.6771 2.3220
10 2 32 -4.1469 7.5325
10 2 33 0.8330 5.7028
10 2 34 1.5377 -1.2812
10 2 35 1.0605 -0.3952
10 2 36 -3.6265 0.3683
10 2 37 -4.1108 -4.1167
10 3 0 -5.0579 0.9050
10 3 1 -1.7991 -10.6180
10 3 2 -6.4436 5.5637
10 3 3 19.6829 8.1178
10 3 4 -1.1269 -9.3770
10 3 5 -12.3017 -19.7129
10 3 6 -13.1620 -15.4205
10 3 7 -1.9468 6.7554
10 3 8 -14.8218 -9.8124
10 3 9 -6.7134 -5.9775
10 3 10 -2.2988 -9.0246
10 3 11 7.7487 -4.9431
10 3 12 -0.2441 3.9068
10 3 13 -6.0595 3.3009
10 3 14 -5.6280 0.8450
10 3 15 -10.6860 1.4992
10 3 16 -5.0958 22.6641
10 3 17 13.1029 -0.0263
10 3 18 0.2856 3.2253
10 3 19 5.8464 8.4675
10 3 20 -4.2893 4.5610
10 3 21 1.0679 -1.1524
10 3 22 0.3420 -4.7356
10 3 23 -5.5795 4.5856
10 3 24 -8.2961 -9.6048
10 3 25 3.2824 1.6001
10 3 26 -5.4085 -5.5067
10 3 27 3.4388 15.3862
10 3 28 2.8168 3.1638
10 3 29 -1.7343 7.9994
10 3 30 0.2045 1.4071
10 3 31 4.1787 -8.1722
10 3 32 -4.4964 0.0604
10 3 33 7.0337 2.8142
10 3 34 1.4109 3.4945
10 3 35 -5.3607 -0.9567
10 3 36 0.2016 6.0437
10 4 0 -12.5062 1.2527
10 4 1 7.0057 -6.3903
10 4 2 2.5818 -1.9192
10 4 3 -11.6145 8.0838
10 4 4 -18.7725 9.7919
10 4 5 5.0752 23.7458
10 4 6 4.5561 -1.4597
10 4 7 0.5033 4.2803
10 4 8 -2.0505 0.2704
10 4 9 -13.4137 0.8123
10 4 10 -5.3633 -0.7870
10 4 11 9.2218 4.3995
10 4 12 7.8362 1.4658
10 4 13 13.3188 7.2305
10 4 14 5.6630 1.7765
10 4 15 -5.2924 -6.6040
10 4 16 -6.4322 -1.3737
10 4 17 8.0928 -3.8372
10 4 18 -0.9534 -1.5627
10 4 19 7.3421 2.9566
10 4 20 -8.2609 4.4556
10 4 21 -4.8340 10.3729
10 4 22 0.8700 -7.9774
10 4 23 5.2334 0.5373
10 4 24 4.3801 11.5237
10 4 25 -0.1995 0.9428
10 4 26 3.9143 -8.9424
10 4 27 3.5347 11.3508
10 4 28 11.3483 -1.1004
10 4 29 -11.6108 4.2536
10 4 30 -1.3797 0.6717
10 4 31 -0.8887 -5.3810
10 4 32 4.8095 -4.4437
10 4 33 -0.5314 6.2721
10 4 34 3.0108 -3.1013
10 4 35 -2.7394 5.7866
10 4 36 -4.8917 -0.6150
10 5 0 1.6879 -4.0677
10 5 1 4.7926 2.9089
10 5 2 14.3644 0.2805
10 5 3 12.5765 -4.3946
10 5 4 -1.3266 -4.7155
10 5 5 7.0856 8.6598
10 5 6 9.1924 0.3668
10 5 7 -7.9260 5.5859
10 5 8 5.0460 4.0347
10 5 9 1.0976 -1.7222
10 5 10 6.6401 -3.7783
10 5 11 -0.2031 -6.7113
10 5 12 -4.2355 -10.6564
10 5 13 2.4712 1.2278
10 5 14 1.8196 4.6082
10 5 15 2.4020 11.2198
10 5 16 2.4707 -2.9098
10 5 17 1.3516 -6.5686
10 5 18 -1.4243 0.8806
10 5 19 9.6282 6.8998
10 5 20 -4.6122 -2.5895
10 5 21 0.3904 2.8894
10 5 22 9.7457 -4.2751
10 5 23 -1.5435 -7.2201
10 5 24 4.5685 -0.5210
10 5 25 6.0940 5.2563
10 5 26 1.2073 -0.5596
10 5 27 1.4999 2.7323
10 5 28 7.9077 -0.8061
10 5 29 -11.1454 -4.8847
10 5 30 2.5499 6.4175
10 5 31 0.0729 0.4354
10 5 32 4.1729 2.6762
10 5 33 1.3203 -4.4976
10 5 34 0.3097 3.3593
10 5 35 -2.9833 -5.6713
10 6 0 5.5267 4.7612
10 6 1 -11.7980 -15.2454
10 6 2 -12.5295 0.7433
10 6 3 10.2826 -7.4020
10 6 4 16.3995 -4.0479
10 6 5 9.1856 -4.6309
10 6 6 5.0012 -4.3296
10 6 7 -10.5962 2.0578
10 6 8 -1.2844 1.5171
10 6 9 1.9277 -3.7631
10 6 10 -3.2896 0.1797
10 6 11 -3.5347 -4.6385
10 6 12 -3.7004 0.1119
10 6 13 2.9179 -11.8568
10 6 14 1.7689 -10.7903
10 6 15 -0.0261 8.1285
10 6 16 5.9575 1.9558
10 6 17 -1.5527 -3.6534
10 6 18 -3.3783 -0.1098
10 6 19 2.0174 3.5712
10 6 20 3.4102 -11.2914
10 6 21 -2.3551 0.0936
10 6 30 8.2184 2.6555
10 6 31 0.0587 -2.7572
10 6 32 -7.3135 6.7253
10 7 0 -9.1892 -2.3299
10 7 1 7.0808 -0.8564
10 7 2 -13.9599 -12.0189
10 7 3 -0.4726 -14.6449
10 7 4 -2.4968 -15.4117
10 7 5 5.2702 3.4852
10 7 6 -3.0098 6.8011
10 7 7 1.7180 8.8404
10 7 8 -2.6339 5.1614
10 7 9 -1.5845 -7.9713
10 7 10 -6.3586 5.4596
10 7 11 -10.9147 2.9434
10 7 12 -3.0851 1.9792
10 7 13 4.2298 4.8786
10 7 14 -0.5575 -7.6412
10 7 15 7.4777 -4.8453
10 7 16 -0.3071 -0.9711
10 7 17 -4.2294 2.6353
10 7 18 -0.1555 2.1652
10 7 19 -0.6011 2.6188
10 7 20 5.5489 -2.8376
10 7 26 2.9307 -2.4200
10 7 27 0.1357 3.2820
10 7 28 -7.1012 0.0180
10 7 29 5.9920 5.6802
10 7 30 5.3829 1.3586
10 7 31 2.4929 -8.0555
10 7 32 -7.8776 5.7727
10 7 33 0.4065 1.7135
10 8 0 -31.3661 2.3023
10 8 1 -9.1611 -1.1125
10 8 2 0.1096 -9.3018
10 8 3 -3.5669 7.2628
10 8 4 2.1922 -4.3693
10 8 5 9.0615 -0.3172
10 8 6 9.8854 2.8560
10 8 7 0.8063 1.1950
10 8 8 2.8301 -4.3688
10 8 9 -8.5658 7.3440
10 8 10 -5.4277 0.3705
10 8 11 17.4835 0.0716
10 8 12 -3.0154 -6.6041
10 8 13 -4.1105 -6.6959
10 8 15 2.2617 -1.0945
10 8 16 1.1388 -11.9906
10 8 17 4.0970 5.6933
10 8 18 7.6084 -8.2193
10 8 19 -2.7640 -9.9900
10 8 24 1.1989 -2.7080
10 8 25 -2.5205 -1.0807
10 8 26 3.3144 5.1231
10 8 27 4.0934 -7.8602
10 8 28 8.1207 -6.2324
10 8 29 -5.5779 -0.4945
10 8 30 0.2032 -2.1552
10 8 31 -5.2307 4.6352
10 9 0 -14.0519 -0.2072
10 9 1 0.1628 7.2780
10 9 2 -1.1241 -24.9892
10 9 3 3.9466 -2.8579
10 9 4 5.8499 1.6934
10 9 5 -12.7047 1.1016
10 9 6 -3.7980 0.1952
10 9 7 3.9954 6.0449
10 9 8 -6.2564 3.0474
10 9 9 -4.3970 -0.8569
10 9 10 1.3982 0.2673
10 9 11 -3.7067 -0.3181
10 9 12 2.2292 -8.5515
10 9 13 -1.7020 3.6284
10 9 17 0.0077 7.2746
10 9 18 9.8835 4.5000
10 9 23 -3.4305 -1.0948
10 9 24 2.9200 1.5858
10 9 25 -4.0415 -0.8946
10 9 26 -5.1507 -5.8670
10 9 27 -4.5631 -2.0831
10 9 28 -3.0884 1.5060
10 9 29 -0.9728 -0.7960
10 10 0 -22.7363 -3.2811
10 10 1 0.9865 3.7459
10 10 2 0.2064 -5.3323
10 10 3 -0.1991 3.9552
10 10 4 22.6487 2.2874
10 10 5 -1.1693 6.0212
10 10 6 5.5608 8.3969
10 10 7 -0.3230 -1.5435
10 10 8 -2.7659 3.9042
10 10 9 1.8937 6.8724
10 10 10 7.4804 -8.5643
10 10 11 -12.8991 -3.3666
10 10 12 -0.9165 6.6136
10 10 23 -11.2454 2.5491
10 10 24 0.3344 7.0625
10 10 25 -5.4145 0.4024
10 10 26 5.4422 6.5648
10 10 27 -3.1500 6.6431
10 11 0 -4.3417 -2.0355
10 11 1 -3.8127 -5.2031
10 11 2 7.8927 -13.8122
10 11 3 -4.2334 3.3877
10 11 4 4.8083 -13.7885
10 11 5 9.8177 -8.4493
10 11 6 11.3129 15.9508
10 11 7 -2.9547 -11.2054
10 11 8 -6.8751 -1.0517
10 11 9 2.6249 2.5578
10 11 10 -1.3911 -2.6619
10 11 22 -2.3274 12.4340
10 11 23 6.4434 3.4743
10 11 24 7.4416 0.4104
10 11 25 9.4403 -11.5827
10 12 0 -2.9249 -4.2714
10 12 1 6.6208 3.7847
10 12 2 -5.8304 -9.7427
10 12 3 -8.2577 -7.9251
10 12 4 -1.3598 -0.6810
10 12 5 -9.6620 -10.5489
10 12 6 6.3176 3.2607
10 12 7 4.9828 0.6056
10 12 8 -12.5937 6.1231
10 13 0 -12.0848 3.2418
10 13 1 1.8450 1.6276
10 13 2 -2.5470 9.0325
10 13 3 -5.3731 5.1185
10 13 4 6.2558 2.3938
10 13 5 -5.4422 -3.2148
10 13 6 -9.8385 -6.4125
10 14 0 14.1941 -1.4280
10 14 1 3.4927 -3.6824
10 14 2 -2.0443 -3.4153
10 14 3 -0.0350 10.5827
11 0 1 0.1248 -7.6151
11 0 2 -17.0260 -0.4782
11 0 3 -4.1463 -23.4196
11 0 4 -5.0310 7.7589
11 0 5 9.5463 19.7675
11 0 6 -0.8844 10.0951
11 0 7 6.9904 1.8708
11 0 8 -23.4386 2.1836
11 0 9 -10.4921 -6.5664
11 0 10 -11.0423 -12.7562
11 0 11 -1.0185 -0.6671
11 0 12 -10.2131 -13.0753
11 0 13 -0.5859 -6.8226
11 0 14 -8.3781 -0.7514
11 0 15 0.9592 -17.0049
11 0 16 0.9864 2.3703
11 0 17 -3.0539 4.5515
11 0 18 4.9675 -2.4799
11 0 19 -0.3080 -2.1168
11 0 20 -7.3722 6.7062
11 0 21 9.8136 2.3608
11 0 22 8.2002 13.7113
11 0 23 -2.1059 -4.2205
11 0 24 -7.3209 2.3679
11 0 25 -0.9600 -12.7856
11 0 26 -6.1463 -12.9325
11 0 27 -1.2577 7.9296
11 0 28 0.6528 -8.7407
11 0 29 -2.9091 -3.1075
11 0 30 -7.0960 2.1118
11 0 31 2.4539 2.5835
11 0 32 5.2340 -1.5188
11 0 33 -1.8738 1.1885
11 0 34 9.5719 -2.8006
11 0 35 1.4482 -6.4488
11 1 0 0.9982 13.2539
11 1 1 -8.1296 4.4162
11 1 2 12.1852 0.4122
11 1 3 19.3925 -6.3591
11 1 4 -7.0794 -2.2216
11 1 5 18.7992 11.6136
11 1 6 -2.9497 4.4647
11 1 7 -2.5977 15.4320
11 1 8 -17.0761 8.6453
11 1 9 -6.2604 24.4270
11 1 10 -13.7314 -1.4018
11 1 11 -6.9713 -0.2375
11 1 12 2.3501 2.2536
11 1 13 -8.4534 3.0598
11 1 14 -0.4261 0.6329
11 1 15 -2.6436 10.4110
11 1 16 6.1335 -7.1604
11 1 17 5.9742 -10.0146
11 1 18 -8.3240 4.2485
11 1 19 3.6278 -4.2904
11 1 20 11.7356 -3.0334
11 1 21 -0.1378 -4.6943
11 1 22 -6.1579 -4.9493
11 1 23 -5.7353 14.1896
11 1 24 -23.5203 8.1214
11 1 25 3.4506 2.2802
11 1 26 -9.1912 -4.0543
11 1 27 2.7774 4.3779
11 1 28 4.1382 5.6213
11 1 29 -6.4787 -3.7006
11 1 30 6.8109 -6.5200
11 1 31 -4.7476 -0.8462
11 1 32 -1.7729 -4.9152
11 1 33 -3.2888 0.9754
11 1 34 2.8684 5.6257
11 1 35 0.3355 -4.8155
11 2 0 -3.1276 -10.9825
11 2 1 -6.4219 -17.9136
11 2 2 -0.6913 -4.5890
11 2 3 11.9394 -0.4753
11 2 4 7.5744 8.4516
11 2 5 17.6231 2.0513
11 2 6 7.1599 -8.8446
11 2 7 0.4861 17.5003
11 2 8 12.4772 2.3194
11 2 9 3.7168 18.0611
11 2 10 3.8166 -6.0384
11 2 11 -10.8928 -3.3566
11 2 12 2.2023 -2.2671
11 2 13 7.3080 3.4258
11 2 14 -0.0844 -3.7851
11 2 15 -8.5496 -0.3810
11 2 16 -4.5003 8.4803
11 2 17 -1.4809 -13.0502
11 2 18 -5.3458 -0.0914
11 2 19 1.4584 7.3750
11 2 20 1.5244 5.1014
11 2 21 7.2929 11.9977
11 2 22 -2.5157 13.3657
11 2 23 6.0398 -1.1144
11 2 24 10.1932 1.4235
11 2 25 -3.8122 12.0463
11 2 26 2.8211 -11.6454
11 2 27 -2.8015 2.9115
11 2 28 -3.8783 -9.3860
11 2 29 -1.5127 14.7289
11 2 30 -2.6283 1.4400
11 2 31 2.0867 -7.1703
11 2 32 4.5600 2.8854
11 2 33 0.6783 -6.8203
11 2 34 -1.5186 -6.1990
11 2 35 -3.8279 -5.3596
11 3 0 -6.6461 0.0647
11 3 1 -3.9255 -8.5070
11 3 2 7.3911 -11.1926
11 3 3 0.1820 -15.6903
11 3 4 -3.8305 -0.1187
11 3 5 -0.0151 3.4998
11 3 6 -7.8018 -7.8923
11 3 7 8.5024 4.6244
11 3 8 10.2815 -2.7501
11 3 9 -13.3130 -8.4278
11 3 10 3.1382 6.2717
11 3 11 -5.0189 6.1769
11 3 12 -3.1161 3.4083
11 3 13 0.0304 1.0512
11 3 14 8.3679 0.5584
11 3 15 -3.8170 -6.7483
11 3 16 0.1555 5.1869
11 3 17 0.1409 4.0232
11 3 18 7.0796 -11.7101
11 3 19 23.1333 -1.2594
11 3 20 -0.1013 -0.1440
11 3 21 -5.3480 -2.2581
11 3 22 -0.9881 -6.1640
11 3 23 2.5483 -1.6305
11 3 24 0.7151 -11.8503
11 3 25 1.1304 1.0594
11 3 26 -0.2269 10.8549
11 3 27 -4.8527 -1.1418
11 3 28 8.9772 -3.6505
11 3 29 -9.1457 -4.6122
11 3 30 7.7610 -2.9478
11 3 31 -10.9556 -1.8948
11 3 32 1.5724 -1.2068
11 3 33 -2.7186 3.2875
11 3 34 -1.2534 4.1578
11 4 0 -6.0219 -3.8044
11 4 1 -9.8665 14.0101
11 4 2 0.6204 8.2627
11 4 3 7.3576 2.5554
11 4 4 -2.2538 5.3351
11 4 5 3.4882 -2.3407
11 4 6 -6.1269 -1.7701
11 4 7 -1.5981 10.5460
11 4 8 7.1451 -5.1608
11 4 9 -0.0512 -6.6639
11 4 10 1.5108 8.0003
11 4 11 12.0393 4.5884
11 4 12 -0.6858 2.8807
11 4 13 -18.1648 -3.1181
11 4 14 -6.7995 -3.6154
11 4 15 4.7545 -2.9579
11 4 16 -4.1881 -2.8127
11 4 17 1.4417 -7.5624
11 4 18 -3.5357 3.4455
11 4 19 -4.9450 -2.3217
11 4 20 -1.2227 3.5307
11 4 21 -11.3526 8.2426
11 4 22 -7.8028 -6.2332
11 4 23 0.7290 -0.0315
11 4 24 2.0679 3.1994
11 4 25 -3.7158 -1.5904
11 4 26 0.4253 -2.2706
11 4 27 -4.9224 7.2029
11 4 28 -6.5282 4.9675
11 4 29 -6.4992 -11.7853
11 4 30 -1.5234 0.3808
11 4 31 3.9019 -0.0245
11 4 32 1.8552 10.5280
11 4 33 1.1631 -1.4075
11 4 34 1.6026 11.2050
11 5 0 0.9496 -0.2383
11 5 1 19.3333 -13.9543
11 5 2 4.2574 0.9514
11 5 3 -12.2841 3.9206
11 5 4 -6.3257 4.2615
11 5 5 11.2772 -0.6025
11 5 6 2.3035 -8.4972
11 5 7 -6.0644 -0.9007
11 5 8 -3.2698 -2.3266
11 5 9 3.0883 -1.6378
11 5 10 8.6595 0.7197
11 5 11 10.4872 9.8744
11 5 12 -4.5736 6.1276
11 5 13 -2.4821 1.5662
11 5 14 -4.6043 3.2238
11 5 15 -0.5200 -1.5332
11 5 16 2.9539 -1.1817
11 5 17 7.5057 0.8694
11 5 18 2.8338 6.7309
11 5 19 -0.3941 15.1044
11 5 20 -6.2918 0.6990
11 5 21 8.1781 -1.4715
11 5 22 6.8909 2.0390
11 5 23 0.5253 0.3925
11 5 24 -2.7372 3.8183
11 5 25 1.1870 9.1173
11 5 26 3.1685 -0.1667
11 5 27 -5.4800 2.6616
11 5 28 -0.3723 10.1136
11 5 29 2.7805 -0.8926
11 5 30 0.3777 -1.7048
11 5 31 10.1338 -4.3393
11 5 32 6.7842 2.2364
11 5 33 -2.0229 3.5872
11 6 0 -6.9214 -4.2009
11 6 1 3.1734 15.9073
11 6 2 1.0204 -1.9404
11 6 3 6.1089 8.2121
11 6 4 -7.6359 -1.6358
11 6 5 -6.2935 -1.3981
11 6 6 -1.3588 -2.7087
11 6 7 1.9711 0.6597
11 6 8 -0.7998 -9.7234
11 6 9 3.9858 -1.5582
11 6 10 3.0884 -5.6775
11 6 11 -2.6669 -7.4151
11 6 12 -4.4192 -2.8905
11 6 13 2.8316 12.8782
11 6 14 3.5633 -4.1392
11 6 15 -0.7341 -2.8714
11 6 16 -1.9566 -7.3918
11 6 17 8.9358 -0.3623
11 6 18 0.9257 -6.4364
11 7 0 -2.3090 -6.6861
11 7 1 9.9356 4.7727
11 7 2 0.5583 -2.9645
11 7 3 -2.9302 7.2605
11 7 4 6.6349 -2.7527
11 7 5 -13.9356 7.3874
11 7 6 -8.2042 3.3870
11 7 7 -1.3534 0.1141
11 7 8 1.9828 -3.8562
11 7 9 -10.4049 6.3527
11 7 10 2.6601 3.4433
11 7 11 -3.7440 3.5130
11 7 12 0.0152 -6.9542
11 7 13 3.2346 4.4477
11 7 14 3.1615 -2.8192
11 7 15 -14.3561 4.1144
11 7 16 -5.5316 0.7602
11 7 17 -2.3264 3.9179
11 8 0 -7.6340 -0.4489
11 8 1 3.5910 4.0535
11 8 2 6.2687 -11.6401
11 8 3 -0.7523 12.8126
11 8 4 10.6808 6.8859
11 8 5 -2.1029 3.5837
11 8 6 1.3948 2.9266
11 8 7 -7.6334 -7.0417
11 8 8 2.9601 1.6404
11 8 9 3.8513 -2.3301
11 8 10 3.6039 5.7664
11 8 11 -6.0196 1.6101
11 8 12 7.0503 10.5693
11 8 15 -8.5976 2.4296
11 8 16 7.1518 4.3768
11 9 0 1.5061 -2.1271
11 9 1 1.9248 2.1042
11 9 2 6.0149 -8.1916
11 9 3 -1.4211 3.0024
11 9 4 2.8405 14.8928
11 9 5 -6.8176 1.0226
11 9 6 -1.2899 5.6166
11 9 7 -7.2477 -5.0087
11 9 8 -0.3907 4.0604
11 9 9 19.9397 -6.5426
11 9 10 4.4385 -1.0838
11 9 11 4.6714 0.0917
11 9 12 -5.7121 11.5317
11 9 13 -2.6273 -3.3405
11 9 14 -10.1195 11.1679
11 9 15 6.4641 5.2902
11 10 0 -0.6319 -13.0354
11 10 1 12.0234 -3.5530
11 10 2 12.9909 5.9198
11 10 3 4.1924 7.6135
11 10 4 8.0122 4.9003
11 10 5 0.1671 3.9831
11 10 6 -11.2907 -4.0575
11 10 7 8.8077 -7.9389
11 10 8 -2.2325 -6.9419
11 10 9 3.6765 -4.4969
11 10 10 2.0513 -2.5233
11 10 11 17.0747 16.2607
11 10 12 6.9933 2.2242
11 10 13 9.3404 1.4795
11 10 14 -6.5436 -8.3536
11 10 15 12.0636 4.1964
11 11 0 3.1078 -22.3973
11 11 1 -2.5602 -3.2853
11 11 2 14.5430 -8.9070
11 11 3 5.0569 9.6319
11 11 4 -2.0364 2.6604
11 11 5 -7.8815 -7.0901
11 11 6 -4.0683 2.8371
11 11 7 -3.5532 1.4102
11 12 0 -5.2709 -11.2168
11 12 1 -2.7318 -5.5085
11 12 2 8.2714 4.6253
11 12 3 -3.1652 -6.7699
11 12 4 2.0949 11.4324
11 12 5 -7.9789 -2.7919
11 13 0 5.8766 -2.5959
11 13 1 -4.4223 4.9305
11 13 2 5.8131 2.6465
12 0 0 -6.4751 1.0055
12 0 1 -4.4627 -1.0005
12 0 2 2.6263 0.4134
12 0 3 -6.1872 6.0199
12 0 4 1.3163 10.6062
12 0 5 1.3430 12.0735
12 0 6 -5.5961 -2.2110
12 0 7 11.4938 2.7880
12 0 8 11.7741 -15.6282
12 0 9 5.8271 -6.4623
12 0 10 -0.3131 0.2497
12 0 11 0.5821 7.8435
12 0 12 17.6125 4.2670
12 0 13 -1.1539 -8.8195
12 0 14 10.8024 4.7638
12 0 15 -3.3797 13.5497
12 0 16 13.8790 -4.0740
12 0 17 -11.2861 0.7840
12 0 18 0.1086 1.0593
12 0 19 -4.1582 1.1399
12 0 20 2.4744 11.0620
12 0 21 6.4731 -8.3073
12 0 22 6.7530 -6.2417
12 0 23 5.3281 -9.2132
12 0 24 0.3617 -8.1873
12 0 25 4.3661 1.9422
12 0 26 3.2968 -2.5127
12 0 27 5.1313 -4.4833
12 0 28 -2.5917 4.7947
12 0 29 0.6516 2.2907
12 0 30 -1.1920 4.4241
12 0 31 -9.1505 -3.4537
12 0 32 16.7259 -4.9235
12 0 33 -6.8977 2.5998
12 1 0 -0.1434 3.8847
12 1 1 8.3067 -2.6064
12 1 2 8.5089 1.4929
12 1 3 2.2985 -7.7629
12 1 4 3.8816 0.9181
12 1 5 5.9452 -4.5943
12 1 6 -18.8983 -1.9370
12 1 7 -13.6076 -11.2855
12 1 8 4.0307 -3.3860
12 1 9 -2.6156 3.0304
12 1 10 18.2003 -7.8883
12 1 11 3.4901 -7.1522
12 1 12 2.5384 -3.7477
12 1 13 2.5118 -6.0436
12 1 14 0.6096 5.1964
12 1 15 9.1572 2.4407
12 1 16 2.4913 8.1048
12 1 17 -4.1012 -10.5387
12 1 18 2.1983 2.0214
12 1 19 1.3427 -22.8898
12 1 20 -3.1403 -3.0425
12 1 21 -5.2063 2.4260
12 1 22 -12.5975 1.3993
12 1 23 1.8683 -11.1288
12 1 24 -12.2553 -6.6307
12 1 25 2.7058 3.3208
12 1 26 11.4281 -1.7497
12 1 27 -1.6855 0.1019
12 1 28 1.9705 -0.5324
12 1 29 1.0246 5.6806
12 1 30 -6.0334 -6.3020
12 1 31 1.3303 9.0005
12 1 32 -0.2565 2.5786
12 1 33 1.7078 -5.7524
12 2 0 -4.6673 -4.6047
12 2 1 1.7038 -0.8151
12 2 2 -13.3965 -2.7783
12 2 3 9.4798 -0.7935
12 2 4 -6.7973 7.7302
12 2 5 -2.1154 6.6690
12 2 6 -6.9828 -1.1480
12 2 7 5.7413 7.1944
12 2 8 -14.5971 -17.1480
12 2 9 0.3892 -8.4763
12 2 10 -1.0607 -2.6148
12 2 11 3.2069 -16.1003
12 2 12 1.5698 3.9407
12 2 13 2.7803 6.4206
12 2 14 1.4883 -0.7688
12 2 15 -0.1369 -11.5682
12 2 16 -11.1463 0.0727
12 2 17 -13.1471 5.1105
12 2 18 -11.8876 2.2290
12 2 19 6.0010 2.7931
12 2 20 0.3436 -0.6228
12 2 21 4.6365 5.8937
12 2 22 -13.7782 9.3749
12 2 23 1.6596 2.0266
12 2 24 -0.5933 -13.4676
12 2 25 4.9609 2.1069
12 2 26 -1.3986 -6.5884
12 2 27 1.3320 4.5607
12 2 28 3.8348 10.0281
12 2 29 0.7554 -1.9250
12 2 30 5.6295 -1.6127
12 2 31 -0.9335 -2.6439
12 2 32 6.0115 -4.2574
12 3 0 -3.0857 2.9219
12 3 1 -8.7817 -4.9368
12 3 2 -0.3084 -2.4087
12 3 3 8.7757 18.9863
12 3 4 1.5313 -4.7180
12 3 5 -7.5105 6.9149
12 3 6 -7.9672 -3.9138
12 3 7 -5.0402 13.1318
12 3 8 0.2649 -2.8264
12 3 9 -15.1883 -2.0655
12 3 10 -0.3798 -15.7380
12 3 11 4.1750 5.8093
12 3 12 2.2923 -2.5522
12 3 13 -2.2202 7.9813
12 3 14 0.4545 4.1870
12 3 15 -4.2113 6.2640
12 3 16 -5.6304 4.9996
12 3 17 10.5395 2.5235
12 3 18 -1.7123 -7.0335
12 3 19 -0.8534 3.2944
12 3 20 2.8804 4.3725
12 3 21 -1.0781 -6.4583
12 3 22 -0.4374 -7.4404
12 3 23 -4.8523 8.9806
12 3 24 1.3482 -4.2924
12 3 25 1.5747 1.7825
12 3 26 8.8628 -9.9402
12 3 27 -2.9239 5.1871
12 3 28 3.2373 -6.4456
12 3 29 -1.3283 0.1819
12 3 30 -4.6638 1.2143
12 3 31 -2.1381 -2.4536
12 3 32 -0.8139 -0.3194
12 4 0 2.5652 6.0987
12 4 1 16.5077 -0.0683
12 4 2 11.9990 -0.4633
12 4 3 3.2150 0.2443
12 4 4 2.0276 7.0951
12 4 5 -1.8118 11.2473
12 4 6 11.0368 -0.8141
12 4 7 -8.9526 -5.0357
12 4 8 0.1600 6.6409
12 4 9 -7.6845 0.9656
12 4 10 1.1722 1.1189
12 4 11 2.5328 4.9099
12 4 12 9.7538 -0.2096
12 4 13 -2.2767 -4.3221
12 4 14 6.2320 7.5273
12 4 15 -5.5573 -0.7073
12 4 16 -0.5119 9.2340
12 4 17 1.5441 0.8881
12 4 18 3.8341 -5.7475
12 4 19 -6.6439 5.6523
12 4 20 -4.9197 5.2299
12 4 21 -7.5119 4.1111
12 4 22 2.8057 -7.1544
12 4 23 7.8407 -6.7163
12 4 24 -0.4285 5.8365
12 4 25 -10.7650 -0.2775
12 4 26 1.7764 -0.6726
12 4 27 -6.6464 -6.2460
12 4 28 9.0309 4.6926
12 4 29 -8.0011 -1.5693
12 4 30 5.0742 1.7580
12 4 31 3.0900 0.3153
12 5 0 -0.4203 -11.2269
12 5 1 3.5584 -13.7712
12 5 2 7.3381 0.3863
12 5 3 7.6823 -5.6640
12 5 4 -7.7841 -4.3930
12 5 5 0.4265 1.1646
12 5 6 8.4196 4.5214
12 5 7 0.0155 -2.3984
12 5 8 0.9976 0.7726
12 5 9 15.0948 -4.4648
12 5 10 2.8704 3.0738
12 5 11 -2.3381 -2.9247
12 5 12 1.5382 -4.3888
12 5 13 -0.3431 -1.7118
12 5 14 10.1276 0.5251
12 5 15 13.5651 3.9944
12 5 16 -3.7927 3.5335
12 5 17 5.5473 -5.6618
12 5 18 -0.0793 7.7335
12 5 19 5.8792 5.9267
12 5 20 -1.0426 -1.2316
12 5 21 -1.8069 -2.6258
12 5 22 1.5531 6.2915
12 5 23 3.8423 -5.4005
12 5 24 0.5934 3.7936
12 5 25 -5.3227 8.6529
12 5 26 -4.8327 3.3500
12 5 27 4.7550 -7.3644
12 5 28 1.5722 3.8204
12 5 29 4.1557 -10.2610
12 5 30 -5.8425 1.5210
12 6 0 -3.8298 -2.1117
12 6 1 -7.8958 -7.8547
12 6 2 -13.3064 2.5303
12 6 3 4.4652 2.5516
12 6 4 2.3412 -10.5560
12 6 5 5.5626 -6.3249
12 6 6 -7.7703 -11.3637
12 6 7 -3.7148 -3.7196
12 6 8 -1.0475 -3.1120
12 6 9 2.1881 -5.2553
12 6 10 -2.7093 -5.0728
12 6 11 -2.9321 2.5089
12 6 12 -1.7898 -7.0175
12 6 13 3.0056 -7.4125
12 6 14 3.0593 -5.6113
12 6 15 0.6349 -5.3165
12 7 0 4.5751 -5.8457
12 7 1 -0.6807 13.7472
12 7 2 -13.2907 -5.2828
12 7 3 -13.1558 -3.8047
12 7 4 -5.4777 -2.3523
12 7 5 -4.8368 5.6072
12 7 6 1.5578 0.3722
12 7 7 -5.0731 8.4745
12 7 8 0.8213 -3.9246
12 7 9 -6.5795 -2.1695
12 7 10 -7.4816 -3.2109
12 7 11 0.0165 3.1331
12 7 14 0.2928 -1.0089
12 7 15 -3.9154 -3.8186
12 8 0 -2.7932 -1.1036
12 8 1 -10.0948 11.9277
12 8 2 8.1724 9.6681
12 8 3 -5.8039 0.3825
12 8 4 1.1107 -3.8937
12 8 5 -0.2044 -4.1761
12 8 6 0.9981 4.0446
12 8 7 0.4533 0.8869
12 8 8 -1.6269 8.6887
12 8 9 -9.6670 3.3720
12 8 10 1.6019 0.5544
12 8 11 3.7276 -4.2776
12 8 12 1.4322 -10.5425
12 8 13 -12.2073 3.8285
12 9 0 5.3747 -2.4647
12 9 1 -10.7745 7.4666
12 9 2 2.4837 2.2816
12 9 3 2.1472 -0.5653
12 9 4 -6.1208 5.1198
12 9 5 -1.5000 -3.8403
12 9 6 7.9753 1.4763
12 9 7 12.0945 0.8458
12 9 8 -2.4275 -2.6570
12 9 9 -3.5662 3.6350
12 9 10 -8.1965 5.1402
12 9 11 -10.4774 -0.4103
12 9 12 -1.8469 -1.0604
12 9 13 -1.7677 0.2134
12 10 0 7.5922 -1.2204
12 10 1 -3.8937 2.6001
12 10 2 8.5119 0.2032
12 10 3 -5.4656 -5.6108
12 10 4 -4.6852 -2.4131
12 10 5 -0.2613 -1.7582
12 10 6 -3.5428 -8.3272
12 10 7 4.3046 -1.5822
12 10 8 3.0705 7.9916
12 10 9 2.4618 11.4473
12 10 10 1.1668 1.0900
12 10 11 -7.8241 -3.8271
12 10 12 -8.8750 1.6252
12 11 0 -7.4116 -3.9696
12 11 1 -0.5623 3.6147
12 11 2 3.0141 7.7075
12 11 3 -5.3722 -2.6612
12 11 4 -5.7408 6.7469
12 11 5 5.0177 -3.3238
12 11 6 0.5434 -7.0811
12 11 7 -2.8736 1.0439
12 11 8 2.2444 -3.1000
12 11 9 0.4731 7.5533
12 11 10 -3.4861 6.9561
12 11 11 -3.5904 1.7152
12 12 0 5.4923 -0.2581
12 12 1 -1.1451 -6.1609
12 12 5 -0.1204 1.0022
12 12 6 -4.1098 -1.9782
12 12 7 1.4949 8.0513
12 12 8 7.3377 -2.4160
12 12 9 -5.1378 -4.1154
13 0 1 6.1693 11.8151
13 0 2 -6.6060 9.2135
13 0 3 2.8629 0.8060
13 0 4 1.7828 7.5598
13 0 5 3.9719 -0.2104
13 0 6 0.4629 -6.6184
13 0 7 6.9115 0.2562
13 0 8 -10.2166 2.1271
13 0 9 -2.9878 2.8090
13 0 10 6.3848 2.7996
13 0 11 -5.4836 -0.1976
13 0 12 -2.9859 -9.5936
13 0 13 -7.1342 3.4364
13 0 14 -12.4808 -10.0126
13 0 15 4.0806 0.4199
13 0 16 -3.2070 0.2996
13 0 17 1.5895 6.7293
13 0 18 -4.8891 10.9808
13 0 19 -2.8931 -16.3254
13 0 20 -9.0594 3.9096
13 0 21 10.3117 2.8920
13 0 22 3.0462 -0.1188
13 0 23 4.4857 6.7887
13 0 24 0.1964 2.2589
13 0 25 -2.2094 3.1144
13 0 26 -4.8026 -1.7542
13 0 27 -6.9765 9.7860
13 0 28 -2.4033 -5.7157
13 0 29 -2.8144 3.6237
13 0 30 0.7052 -8.3470
13 1 0 9.9224 1.7096
13 1 1 4.7256 1.5751
13 1 2 3.0316 -5.8889
13 1 3 -1.7940 1.9044
13 1 4 -11.3155 -7.4205
13 1 5 -0.7212 2.1334
13 1 6 1.8976 -5.3561
13 1 7 -0.0381 1.6059
13 1 8 1.3575 -0.3245
13 1 9 -0.5295 18.8795
13 1 10 -4.0771 1.2895
13 1 11 -0.4830 1.6334
13 1 12 -4.3730 7.3005
13 1 13 -2.6594 -1.0071
13 1 14 2.0241 5.2789
13 1 15 -2.1459 1.2232
13 1 16 18.4842 -1.0906
13 1 17 -3.7922 -0.4608
13 1 18 0.0803 1.4527
13 1 19 3.2724 8.7579
13 1 20 -3.5574 -5.4007
13 1 21 9.4615 -9.7398
13 1 22 -6.6129 -4.1223
13 1 23 3.1122 12.4712
13 1 24 2.7458 5.4928
13 1 25 0.3085 8.0663
13 1 26 0.4574 -2.7365
13 1 27 -4.0389 2.9003
13 1 28 -4.6650 4.0874
13 1 29 -4.9620 -4.6777
13 1 30 9.4668 0.9281
13 2 0 2.1599 4.6287
13 2 1 -3.8459 -5.6105
13 2 2 -5.3289 6.9083
13 2 3 -3.6283 5.7222
13 2 4 1.2674 1.4898
13 2 5 -2.7373 2.1042
13 2 6 5.9996 -4.1529
13 2 7 0.3595 -0.1289
13 2 8 14.2262 2.8826
13 2 9 5.5586 1.9789
13 2 10 1.6745 0.0710
13 2 11 -10.9560 0.9503
13 2 12 1.9877 -1.3536
13 2 13 1.7762 1.2190
13 2 14 2.4141 -11.2368
13 2 15 -1.3840 -7.0448
13 2 16 -4.7189 0.6329
13 2 17 6.4800 -9.3357
13 2 18 -5.6588 3.2410
13 2 19 -0.1350 -1.0187
13 2 20 8.3864 9.8996
13 2 21 0.8398 1.1031
13 2 22 1.2629 -4.9234
13 2 23 10.6263 0.8122
13 2 24 3.7163 -2.1167
13 2 25 -3.3119 11.2481
13 2 26 5.7892 4.8383
13 2 27 -5.9807 -1.9735
13 2 28 7.7419 -5.6273
13 2 29 2.4266 3.0595
13 3 0 1.2528 7.4933
13 3 1 0.6318 1.9733
13 3 2 -1.3586 2.8867
13 3 3 5.2872 -3.2170
13 3 4 -2.0117 0.0689
13 3 5 -4.4546 0.1368
13 3 6 0.5951 -7.8694
13 3 7 3.5165 -4.2449
13 3 8 0.1748 5.5398
13 3 9 -1.5102 -4.9564
13 3 10 0.3573 5.3096
13 3 11 -5.1064 10.1888
13 3 12 -7.0292 -0.6232
13 3 13 -9.8208 -2.6168
13 3 14 0.2974 2.8566
13 3 15 -4.1114 -6.1847
13 3 16 -7.2430 6.7594
13 3 17 -0.4325 0.9189
13 3 18 8.5212 -12.2025
13 3 19 8.5569 -5.7148
13 3 20 -2.2533 -6.4579
13 3 21 1.1060 0.2175
13 3 22 -4.1713 4.0753
13 3 23 7.1306 -6.2128
13 3 24 3.4130 -9.2876
13 3 25 0.0653 4.1277
13 3 26 -5.9141 0.2069
13 3 27 -5.0861 -5.4349
13 3 28 0.4243 3.7221
13 3 29 -4.9977 -4.3153
13 4 0 0.1490 2.3163
13 4 1 -0.7229 2.8233
13 4 2 1.8770 6.4554
13 4 3 5.8640 1.2712
13 4 4 -9.9144 -4.2625
13 4 5 -2.0254 -3.2131
13 4 6 0.1885 3.7657
13 4 7 -1.8025 -1.1058
13 4 8 6.5688 1.9008
13 4 9 4.4914 7.7280
13 4 10 -3.9475 4.0096
13 4 11 9.5068 8.1308
13 4 12 6.2410 7.7303
13 4 13 -15.7236 -4.6854
13 4 14 0.9385 7.6421
13 4 15 3.3603 2.2937
13 4 16 -7.3249 -0.8262
13 4 17 -4.8940 -0.5561
13 4 18 -10.9348 -7.7594
13 4 19 3.4204 -6.4495
13 4 20 1.6079 4.1861
13 4 21 -5.5558 1.4655
13 4 22 -3.7785 -1.3732
13 4 23 2.1157 5.6204
13 4 24 -4.5476 3.2282
13 4 25 -0.7698 1.9318
13 4 26 0.6042 -6.1406
13 4 27 0.2703 8.0147
13 4 28 3.4016 3.8386
13 5 0 2.5265 -4.3063
13 5 1 8.3402 -8.7589
13 5 2 -5.4300 8.3905
13 5 3 -5.9336 8.4396
13 5 4 -4.4662 5.0459
13 5 5 5.8922 4.0815
13 5 6 6.5234 -10.9330
13 5 7 5.9597 0.6208
13 5 8 -4.3073 1.1175
13 5 9 10.9517 -3.9477
13 5 10 3.7144 -2.3369
13 5 12 3.6799 -2.1331
13 5 13 4.2669 3.3107
13 5 14 -2.0153 9.5296
13 5 18 1.0281 -1.5505
13 5 19 -3.6925 10.1852
13 5 20 4.6206 -3.1802
13 5 21 10.5000 -0.0419
13 5 22 1.5643 -4.4842
13 5 23 -2.5456 2.7227
13 5 24 -4.7151 2.2070
13 5 25 0.0208 4.8166
13 5 26 8.7355 -8.0425
13 5 27 7.6247 -3.3662
13 6 0 6.2001 3.0901
13 6 1 5.4970 10.2407
13 6 2 9.1004 -2.6673
13 6 3 10.5648 -1.9052
13 6 4 -9.5242 -5.9791
13 6 5 -2.3096 1.3420
13 6 6 -0.1454 -3.3465
13 6 7 -2.1405 -0.9690
13 6 8 4.3469 1.0964
13 6 9 -2.0865 6.0105
13 6 10 2.5757 -6.5309
13 6 11 -0.7769 3.8805
13 7 0 0.5685 -15.3762
13 7 1 -4.4430 -0.8453
13 7 2 -0.8953 2.6030
13 7 3 0.1521 -1.3855
13 7 4 3.9634 1.7178
13 7 5 2.3808 8.3117
13 7 6 3.3265 -5.9213
13 7 7 -0.5747 0.8364
13 7 8 2.2091 -4.2274
13 7 9 2.7488 0.0062
13 7 10 1.8990 7.0365
13 7 11 0.8822 -0.1809
13 7 12 7.1910 -1.0175
13 8 0 -1.9128 8.1542
13 8 1 -3.5501 -8.3834
13 8 2 7.4794 -3.1613
13 8 3 -1.1413 -6.7154
13 8 4 -0.3700 1.6470
13 8 5 5.3746 1.1640
13 8 6 -5.0684 -0.3359
13 8 7 -6.8069 0.1368
13 8 8 8.5602 -1.8954
13 8 9 3.8666 -3.0951
13 8 10 2.8462 -5.9520
13 8 11 1.6800 2.3973
13 9 0 2.5598 7.7653
13 9 1 -0.9140 0.5159
13 9 2 -6.3903 -4.5741
13 9 3 6.9362 -3.0245
13 9 4 4.1668 5.3616
13 9 5 9.1748 -1.8345
13 9 6 -3.8866 -4.3057
13 9 7 -2.1307 4.8140
13 9 8 -1.8734 -4.6925
13 9 9 1.0458 -4.8785
13 9 10 6.7176 -4.6601
13 10 0 2.7424 -3.3223
13 10 1 0.3154 -3.3990
13 10 2 -10.9085 -9.3113
13 10 3 0.5690 -2.0162
13 10 4 2.3335 -7.3873
13 10 5 -1.9232 1.4239
13 10 6 0.8960 -1.4907
13 10 7 3.1974 7.3390
13 10 8 -3.2872 -7.0938
13 10 9 -13.2854 -2.3859
13 11 0 0.6866 10.7477
13 11 1 -8.5119 -6.8519
13 11 2 1.2970 3.9670
13 11 3 -2.6414 6.2823
13 11 4 2.6265 -12.1230
13 11 5 -2.3085 -0.1701
13 11 6 3.5480 6.2006
13 11 7 -6.3654 2.1672
13 11 8 2.3561 4.1187
14 0 0 6.3873 5.6707
14 0 1 -7.9362 -0.9934
14 0 2 -0.7411 -0.1307
14 0 3 3.4163 2.7704
14 0 4 -0.9640 -0.5642
14 0 5 8.1280 0.1515
14 0 6 8.1709 -6.7928
14 0 7 -1.6086 -8.6474
14 0 8 5.2217 -7.6244
14 0 9 2.2125 -6.1136
14 0 10 -2.4295 0.5129
14 0 11 8.0202 7.0014
14 0 12 9.1852 -5.8871
14 0 13 0.7028 -7.6598
14 0 14 -2.9838 1.5423
14 0 15 -7.9519 -7.1820
14 0 16 5.5041 9.9034
14 0 17 -10.0338 -16.2170
14 0 18 2.8415 5.1704
14 0 19 4.2964 6.0779
14 0 20 3.7380 -1.8415
14 0 21 3.9410 7.7010
14 0 22 1.5902 -8.6787
14 0 23 -0.7912 -5.9128
14 0 24 -2.4009 4.1569
14 0 25 4.2495 -2.5498
14 0 26 0.8474 -2.7488
14 0 27 3.4224 1.0814
14 1 0 4.6519 -4.3636
14 1 1 3.6029 -2.7005
14 1 2 -8.3031 6.1990
14 1 3 -5.4709 -18.7098
14 1 4 -5.9188 -4.7885
14 1 5 -1.4007 0.4161
14 1 6 -3.7289 -3.9611
14 1 7 0.6776 2.3783
14 1 8 -1.0282 5.2718
14 1 9 6.2989 -11.5637
14 1 10 1.8125 -4.0327
14 1 11 0.5783 -1.7325
14 1 12 -9.9337 2.9448
14 1 13 -2.0401 7.3668
14 1 14 10.8210 0.0565
14 1 15 7.0601 5.2173
14 1 16 7.0012 2.8283
14 1 17 8.0840 -9.2070
14 1 18 -23.3911 3.5313
14 1 19 13.6852 -15.0426
14 1 20 -12.3042 -0.5291
14 1 21 -3.0127 -0.0860
14 1 22 7.7489 1.7267
14 1 23 -8.2476 -4.5209
14 1 24 -3.7393 -7.7856
14 1 25 0.0247 1.7799
14 1 26 -5.9164 -2.5604
14 2 0 -1.1109 4.8828
14 2 1 -14.5617 9.1609
14 2 2 -3.4081 3.8508
14 2 3 1.1101 4.6204
14 2 4 -5.1568 -5.5329
14 2 5 8.2585 -2.5989
14 2 6 -3.2630 -5.6511
14 2 7 -1.3006 3.6886
14 2 8 -3.9660 -6.9829
14 2 9 0.6631 6.5483
14 2 10 -0.9332 -3.2715
14 2 11 9.6289 -7.4269
14 2 12 -1.5357 -11.2319
14 2 13 1.0200 0.1489
14 2 14 1.8354 -13.7020
14 2 15 -1.6870 -7.5649
14 2 16 1.9321 11.3239
14 2 17 -7.2410 10.1229
14 2 18 -8.4842 11.3373
14 2 19 1.1318 4.8186
14 2 20 -4.0410 -17.1267
14 2 21 6.0598 15.2926
14 2 22 -12.7429 -2.5685
14 2 23 4.7933 7.5239
14 2 24 3.3938 4.5180
14 2 25 -3.8653 -1.1332
14 2 26 -0.2910 -2.2424
14 3 0 -1.6722 4.8135
14 3 1 -4.0879 1.6281
14 3 2 1.8906 -1.3389
14 3 3 -2.2421 -1.5587
14 3 4 6.3046 2.4902
14 3 5 -4.2274 -0.7510
14 3 6 -1.7933 -3.1177
14 3 7 2.6981 5.4425
14 3 8 4.3962 -4.3924
14 3 9 -20.5560 -0.0909
14 3 10 -5.9253 -5.0837
14 3 11 -9.0082 8.3790
14 3 12 -0.3294 -3.5818
14 3 13 0.5213 -2.9288
14 3 14 7.0966 -3.0401
14 3 15 3.2090 0.6558
14 3 16 9.6310 4.1239
14 3 17 6.4988 3.7857
14 3 18 1.5918 3.1521
14 3 19 1.6433 -0.8733
14 3 20 -3.7054 1.3452
14 3 21 6.4961 -6.5258
14 3 22 3.6334 -8.5810
14 3 23 -10.1698 7.7447
14 3 24 4.8788 -5.9735
14 3 25 -9.2239 1.2008
14 4 0 -2.2527 7.8338
14 4 1 7.2441 -8.5857
14 4 2 -1.1229 -9.6793
14 4 3 -4.1702 -10.9098
14 4 4 -0.9553 7.2874
14 4 5 3.2214 -4.1826
14 4 6 0.7264 4.6916
14 4 7 0.9868 4.7155
14 4 8 2.2703 7.2826
14 4 9 0.7344 5.2414
14 4 10 1.6005 1.7527
14 4 11 -7.9457 -11.8473
14 4 12 4.4499 2.1799
14 4 13 -8.7539 -8.2105
14 4 14 1.9556 -5.2878
14 4 15 7.4070 0.5295
14 4 16 -0.9117 -2.2247
14 4 17 -0.0182 -7.0220
14 4 18 0.1407 -2.4910
14 4 19 -2.8061 -0.7686
14 4 20 -9.1676 12.3676
14 4 21 -1.6760 8.5181
14 4 22 0.2972 -7.4720
14 4 23 6.5503 7.0739
14 4 24 -4.3262 1.3253
14 4 25 -7.4842 1.5140
14 5 0 -22.0342 0.9025
14 5 1 -1.6265 -0.7626
14 5 2 -10.3300 0.6720
14 5 3 6.6205 1.8153
14 5 4 -8.2060 -9.0062
14 5 5 9.2554 -6.7462
14 5 6 0.8378 -1.1201
14 5 7 4.6361 1.4423
14 5 8 -13.4932 -4.0724
14 5 9 -1.4640 2.3039
14 5 10 2.8454 2.3122
14 5 11 -6.7178 0.8109
14 5 22 -6.3050 -1.9675
14 5 23 4.6479 1.5826
14 6 0 6.4733 0.4432
14 6 1 -3.1263 6.7499
14 6 2 -13.5795 -0.9609
14 6 3 -4.5234 8.4348
14 6 4 0.0573 -10.6967
14 6 5 -6.3740 9.1191
14 6 6 -2.1959 0.4651
14 6 7 1.5332 11.5712
14 6 8 1.8355 -2.9674
14 6 9 -5.4863 6.4358
14 6 10 -2.2249 -7.6872
14 7 0 10.2168 2.6781
14 7 1 6.2612 2.0177
14 7 2 -0.3461 10.8515
14 7 3 0.4970 5.2445
14 7 4 7.6347 -3.3490
14 7 5 2.8174 1.7900
14 7 6 5.0243 2.3603
14 7 7 -4.2197 -2.8434
14 7 8 6.4879 4.3487
14 7 9 -3.1727 5.1153
14 8 0 11.6809 -1.3750
14 8 1 0.6696 -9.4493
14 8 2 -2.0001 -0.7043
14 8 3 8.1908 0.7616
14 8 4 -8.3464 -2.0971
14 8 5 -6.5707 0.6541
14 8 6 5.9676 -6.4766
14 8 7 5.6403 -1.6224
14 8 8 -0.9487 1.2939
14 9 0 -3.9297 0.3217
14 9 1 -2.1881 0.3111
14 9 2 0.9369 5.1761
14 9 3 8.7452 3.6404
14 9 4 -9.7426 -6.8265
14 9 5 -9.1853 4.3333
14 9 6 2.3767 -5.7588
14 9 7 -0.8131 -3.4973
14 10 0 -4.0014 -1.7697
14 10 1 -1.6757 -0.9130
14 10 2 -0.3079 4.7094
14 10 3 -4.1314 2.6914
14 10 4 -0.3987 2.0949
14 10 5 -1.2472 6.5253
14 10 6 -0.1424 -4.6961
15 0 1 7.9618 6.9777
15 0 2 8.2989 -3.0056
15 0 3 10.1276 0.0260
15 0 4 -9.4657 10.0130
15 0 5 0.6542 -8.9482
15 0 6 1.7992 3.4775
15 0 7 -0.5113 5.5951
15 0 8 -6.1880 -0.4250
15 0 9 2.2600 0.5652
15 0 10 -0.1584 -4.8045
15 0 11 1.0505 -6.8757
15 0 12 -2.2918 -0.8115
15 0 13 -11.9130 -0.1740
15 0 14 -17.4974 -0.4499
15 0 15 -4.9496 -10.6403
15 0 16 6.6542 -5.5850
15 0 17 7.2286 -2.3572
15 0 18 1.7667 5.0154
15 0 19 7.0013 2.3233
15 0 20 -13.6720 4.7404
15 0 21 3.4480 0.7325
15 0 22 7.4617 3.1323
15 1 0 -0.7986 -3.6952
15 1 1 1.6582 -9.2567
15 1 2 -0.3917 0.0452
15 1 3 -0.7263 2.6463
15 1 4 9.7221 1.2855
15 1 5 4.1297 7.8203
15 1 6 -7.9688 -3.4241
15 1 7 3.5763 -3.4626
15 1 8 -13.4669 0.6551
15 1 9 -2.7835 10.4457
15 1 10 2.8639 -1.0641
15 1 11 -2.3584 12.4697
15 1 12 -3.1674 6.1590
15 1 13 -3.0094 3.8190
15 1 14 -3.6081 0.8229
15 1 15 -2.5022 -5.5590
15 1 16 -0.7205 -8.3807
15 1 17 7.8310 -10.3517
15 1 18 -1.9601 2.7648
15 1 19 1.0921 2.5163
15 1 20 1.9877 -8.4261
15 1 21 -7.9590 0.1642
15 1 22 -9.7626 -13.2280
15 2 0 -2.5089 2.9965
15 2 1 0.8708 -4.5671
15 2 2 -8.8017 -4.5747
15 2 3 6.4215 -2.0372
15 2 4 7.7468 1.2567
15 2 5 -0.6528 5.4618
15 2 6 -3.4602 12.4553
15 2 7 2.6521 3.4610
15 2 8 6.7848 -7.8724
15 2 9 7.0153 4.7695
15 2 10 6.2478 -4.2961
15 2 11 -8.2572 5.2526
15 2 12 2.9181 2.8366
15 2 13 -6.5125 5.6372
15 2 14 1.1661 -2.6773
15 2 15 -7.9052 -4.2201
15 2 16 -9.9409 5.0837
15 2 17 -1.6914 3.1496
15 2 18 -10.0908 -1.6255
15 2 19 0.6508 7.7312
15 2 20 -0.1035 5.8417
15 2 21 -0.2228 -0.5383
15 2 22 -0.7709 0.4757
15 3 0 -3.1325 10.6587
15 3 1 1.2329 0.6831
15 3 2 5.4641 -7.3606
15 3 3 6.9529 -1.8420
15 3 4 1.2179 -1.5868
15 3 5 0.6908 -0.7425
15 3 6 -1.5990 -0.1152
15 3 7 -1.4734 0.4477
15 3 8 -2.5420 -4.9785
15 3 9 -0.1468 0.5077
15 3 10 6.0472 1.9451
15 3 11 2.2993 2.0188
15 3 12 1.4749 5.3334
15 3 13 -5.5878 -2.8114
15 3 14 9.1159 10.9614
15 3 15 2.0176 2.2288
15 3 16 3.3662 12.6038
15 3 17 4.2472 4.1160
15 3 18 0.8524 -6.8391
15 3 19 -1.0655 -5.1580
15 3 20 -6.5725 -8.3058
15 3 21 3.2993 0.9059
15 4 0 -5.3812 -13.2614
15 4 1 0.5180 -3.1553
15 4 2 3.9585 1.9414
15 4 3 0.1289 2.7591
15 4 4 -4.2654 4.1388
15 4 5 2.4547 5.3289
15 4 6 -1.1234 -0.6597
15 4 7 -0.2333 -0.8225
15 4 8 0.1872 -1.0640
15 4 9 -3.8381 -0.2584
15 4 14 -2.0561 -4.9115
15 4 15 13.1938 -2.1341
15 4 16 -3.4943 8.3557
15 4 17 -6.8935 2.9849
15 4 18 -9.6920 6.0039
15 4 19 1.8235 2.2197
15 4 20 0.8696 -0.0933
15 5 0 -2.4644 -9.8971
15 5 1 1.0492 -2.3216
15 5 2 6.7404 1.3848
15 5 3 6.0592 2.4935
15 5 4 2.0801 5.3298
15 5 5 0.6276 -0.9355
15 5 6 1.0745 -3.9159
15 5 7 -4.6527 7.6880
15 5 8 -2.0934 -0.2009
15 6 0 -4.3867 -2.1740
15 6 1 3.1769 -0.8858
15 6 2 0.3689 -6.6912
15 6 3 1.6859 -5.5196
15 6 4 3.0670 0.5584
15 6 5 0.9803 11.6250
15 6 6 -3.0782 1.1224
15 6 7 3.5731 -5.6328
15 7 0 0.6988 8.5977
15 7 1 -2.6671 1.3682
15 7 2 0.9337 -6.5924
15 7 3 6.6431 1.2812
15 7 4 2.0336 -4.5948
15 7 5 2.3988 -0.5566
15 7 6 0.5330 7.3140
15 8 0 -8.4640 0.2576
15 8 1 5.4098 -1.6755
15 8 2 -7.3196 -3.1838
15 8 3 1.5525 1.7227
15 8 4 4.8547 0.1934
15 8 5 2.7247 3.8612
15 9 0 3.7673 -0.1585
15 9 1 4.5893 -0.0697
15 9 2 -1.5287 -8.5929
16 0 0 5.6784 10.9506
16 0 1 0.2591 -3.4326
16 0 2 -9.5325 2.1660
16 0 3 -5.6150 -2.6759
16 0 4 -4.1435 -3.2676
16 0 5 0.4241 0.6396
16 0 6 6.1038 -3.9842
16 0 7 0.5286 -6.1655
16 0 8 -12.3533 -3.2407
16 0 9 8.9339 -8.0627
16 0 10 0.0885 -4.7412
16 0 11 0.1951 2.9332
16 0 12 0.5109 -4.5244
16 0 13 -8.5600 -12.9790
16 0 14 -3.7457 5.2470
16 0 15 1.0766 -6.3311
16 0 16 6.1926 9.2911
16 0 17 1.5565 5.7342
16 1 0 12.7040 -3.9139
16 1 1 2.9165 5.4853
16 1 2 -14.4024 3.9413
16 1 3 3.3445 1.4574
16 1 4 -10.1988 -4.9354
16 1 5 -1.6186 -3.5639
16 1 6 1.1091 -3.0971
16 1 7 -4.6750 2.4964
16 1 8 -9.0091 -4.4145
16 1 9 3.2639 4.3498
16 1 10 0.4694 -9.9430
16 1 11 0.7618 13.2013
16 1 12 -2.7209 1.5004
16 1 13 0.3758 3.5626
16 1 14 4.4164 -6.5860
16 1 15 13.8554 -8.4437
16 1 16 1.4182 -1.9429
16 1 17 11.3608 -3.7693
16 2 0 -7.4237 2.6683
16 2 1 -2.4048 -1.4250
16 2 2 9.6507 13.2906
16 2 3 -4.7523 7.0724
16 2 4 3.6604 -7.0813
16 2 5 -4.6894 6.0043
16 2 6 -7.5977 -2.0050
16 2 7 1.4471 1.2423
16 2 8 12.5018 -1.7005
16 2 9 -1.6465 2.9758
16 2 10 6.5410 -7.0316
16 2 11 -4.4463 -3.7233
16 2 12 4.2672 -5.4094
16 2 13 -14.6754 0.9662
16 2 14 0.3098 -7.1514
16 2 15 -9.2766 -5.3859
16 2 16 0.7248 1.6634
16 3 0 4.6376 -2.6096
16 3 1 3.0703 -1.4863
16 3 2 4.6889 -7.4116
16 3 3 4.3182 -4.9169
16 3 4 -1.8866 13.6282
16 3 5 -3.8247 -8.8356
16 3 6 -1.2144 -5.4837
16 3 10 -3.5468 11.5459
16 3 11 -1.2699 3.8724
16 3 12 4.4640 4.5393
16 3 13 -3.1679 -0.8011
16 3 14 3.1356 6.6739
16 3 15 -2.4667 -9.4767
16 4 0 1.2757 -0.6043
16 4 1 -4.5227 -6.2301
16 4 2 -4.9671 -2.3444
16 4 3 -6.2299 -1.8023
16 4 4 -10.8186 9.6896
16 4 5 2.5529 -0.4470
16 4 6 -8.3245 -4.2293
16 5 0 -2.5471 -0.8888
16 5 1 1.5517 10.6939
16 5 2 -0.1899 14.6883
16 5 3 4.2149 -0.0599
16 5 4 -9.7476 -5.6207
16 5 5 -3.4456 1.9491
16 6 0 13.5414 1.7469
16 6 1 -3.8738 -1.9654
16 6 2 -0.2345 8.3644
16 6 3 -0.7108 10.3671
16 6 4 -0.5626 -1.6089
17 0 1 -3.0915 -2.5577
17 0 2 7.3270 -2.6762
17 0 3 1.5494 5.8657
17 0 4 -8.6597 5.3280
17 0 5 10.5999 0.0462
17 0 6 1.9583 4.3511
17 0 7 6.2425 1.7723
17 0 8 -3.7395 2.9840
17 1 0 -0.3941 -6.1783
17 1 1 -0.6935 -1.9505
17 1 2 -7.3317 0.9587
17 1 3 4.7014 -7.5718
17 1 4 15.3440 -0.6376
17 1 5 2.2344 4.2834
17 1 6 -3.5580 -4.9826
17 1 7 2.9091 10.5324
17 1 8 -8.4231 4.5381
17 2 0 1.5569 8.2299
17 2 1 -9.0073 3.5141
17 2 2 -1.7005 -5.1987
17 2 3 2.0889 -5.8242
17 2 4 4.9943 -4.3615
17 3 0 3.5803 10.8550
17 3 1 0.6188 -7.3059
17 3 2 4.6601 -0.2610
17 3 3 -1.2722 -12.7963
0 0 0 0.0 0.0
;
_shelx_fab_checksum              64807
_olex2_date_sample_data_collection 2019-07-18
_olex2_submission_special_instructions 'No special instructions were received'
_oxdiff_exptl_absorpt_empirical_details
;
Empirical correction (ABSPACK) includes:
- Absorption correction using spherical harmonics
- Frame scaling
;
_oxdiff_exptl_absorpt_empirical_full_max 1.997
_oxdiff_exptl_absorpt_empirical_full_min 0.695
loop_
_space_group_symop_operation_xyz
'x, y, z'
'-x+1/2, -y, z+1/2'
'x+1/2, -y+1/2, -z'
'-x, y+1/2, -z+1/2'
loop_
_atom_site_label
_atom_site_type_symbol
_atom_site_fract_x
_atom_site_fract_y
_atom_site_fract_z
_atom_site_U_iso_or_equiv
_atom_site_adp_type
_atom_site_occupancy
_atom_site_site_symmetry_order
_atom_site_calc_flag
_atom_site_refinement_flags_posn
_atom_site_refinement_flags_adp
_atom_site_refinement_flags_occupancy
_atom_site_disorder_assembly
_atom_site_disorder_group
W6 W 1.04320(5) 0.77500(5) 0.70365(2) 0.01437(13) Uani 1 1 d . . . . .
W7 W 0.79088(5) 0.76393(5) 0.71210(2) 0.01546(14) Uani 1 1 d . . . . .
W5 W 1.16759(4) 0.65912(5) 0.62472(2) 0.01596(14) Uani 1 1 d . . . . .
W8 W 0.64533(5) 0.63540(5) 0.64212(2) 0.01700(14) Uani 1 1 d . . . . .
W4 W 0.89609(5) 0.90029(5) 0.64267(2) 0.01759(14) Uani 1 1 d . . . . .
W9 W 0.76122(5) 0.52462(5) 0.57015(2) 0.01846(15) Uani 1 1 d . . . . .
W10 W 1.03263(5) 0.53721(5) 0.56098(2) 0.01880(15) Uani 1 1 d . . . . .
W2 W 0.74942(5) 0.76903(5) 0.57258(2) 0.01920(14) Uani 1 1 d . . . . .
W3 W 1.02178(5) 0.78136(5) 0.56323(2) 0.01925(15) Uani 1 1 d . . . . .
Ni13 Ni 0.92923(14) 0.55228(15) 0.72172(5) 0.0142(4) Uani 1 1 d . . . . .
Ni15 Ni 0.80949(14) 0.44115(15) 0.66102(5) 0.0151(4) Uani 1 1 d . . . . .
Ni12 Ni 1.04035(15) 0.45382(15) 0.65579(5) 0.0156(4) Uani 1 1 d . . . . .
Ni11 Ni 1.15990(14) 0.55468(15) 0.71248(5) 0.0156(4) Uani 1 1 d . . . . .
Ni16 Ni 0.69953(15) 0.52131(16) 0.72558(5) 0.0175(4) Uani 1 1 d . . . . .
Ni14 Ni 0.92212(15) 0.33442(17) 0.59941(5) 0.0189(5) Uani 1 1 d . . . . .
Ni17 Ni 0.39037(16) 0.7219(2) 0.53935(6) 0.0277(5) Uani 1 1 d . U . . .
P1 P 0.9085(3) 0.6449(3) 0.63732(10) 0.0104(7) Uani 1 1 d . . . . .
O47 O 0.9216(8) 0.7972(8) 0.7312(3) 0.0163(18) Uani 1 1 d . U . . .
O37 O 1.1239(7) 0.7499(8) 0.6615(3) 0.0159(18) Uani 1 1 d . U . . .
O32 O 0.8078(8) 0.8816(8) 0.6831(3) 0.020(2) Uani 1 1 d . U . . .
O43 O 0.8065(8) 0.4408(8) 0.6037(3) 0.0170(18) Uani 1 1 d . U . . .
O48 O 0.6961(8) 0.7289(9) 0.6750(3) 0.0195(18) Uani 1 1 d . U . . .
O41 O 0.6477(8) 0.5531(8) 0.5983(3) 0.0182(18) Uani 1 1 d . U . . .
O21 O 1.1432(7) 0.7630(8) 0.5883(3) 0.0156(18) Uani 1 1 d . U . . .
O35 O 1.2963(8) 0.6683(8) 0.6295(3) 0.020(2) Uani 1 1 d . U . . .
O18 O 1.0608(8) 0.8624(9) 0.5308(3) 0.022(3) Uani 1 1 d . U . . .
O20 O 0.9869(8) 0.8614(9) 0.6049(3) 0.0204(18) Uani 1 1 d . U . . .
O30 O 1.0180(8) 0.4524(8) 0.5985(3) 0.0164(18) Uani 1 1 d . U . . .
O26 O 0.7348(8) 0.6509(9) 0.5482(3) 0.0200(19) Uani 1 1 d . U . . .
O33 O 1.1565(8) 0.5783(8) 0.5830(3) 0.0179(19) Uani 1 1 d . U . . .
O59 O 1.0396(7) 0.6518(8) 0.7178(3) 0.0146(17) Uani 1 1 d . U . . .
O52 O 0.9302(8) 0.3597(8) 0.6548(3) 0.0191(19) Uani 1 1 d . U . . .
O60 O 1.0431(7) 0.4652(8) 0.7121(3) 0.0142(18) Uani 1 1 d . U . . .
O22 O 0.8836(8) 0.7725(9) 0.5547(3) 0.0200(18) Uani 1 1 d . U . . .
O45 O 0.8109(7) 0.6417(8) 0.7249(3) 0.0150(18) Uani 1 1 d . U . . .
O19 O 0.8902(9) 1.0188(8) 0.6359(3) 0.026(3) Uani 1 1 d . U . . .
O31 O 0.9928(8) 0.6531(9) 0.6097(3) 0.0178(17) Uani 1 1 d . U . . .
O39 O 1.1310(7) 0.5664(8) 0.6556(3) 0.0142(17) Uani 1 1 d . U . . .
O50 O 1.2540(8) 0.4516(8) 0.6963(3) 0.022(2) Uani 1 1 d . U . . .
O29 O 0.8108(7) 0.6458(8) 0.6153(3) 0.0166(17) Uani 1 1 d . U . . .
O44 O 0.9175(8) 0.5546(8) 0.6606(3) 0.0161(17) Uani 1 1 d . U . . .
O40 O 0.9108(8) 0.7326(8) 0.6628(3) 0.0163(16) Uani 1 1 d . U . . .
O49 O 0.7041(8) 0.5427(8) 0.6689(3) 0.0163(17) Uani 1 1 d . U . . .
O56 O 1.1612(8) 0.3661(9) 0.6544(3) 0.022(2) Uani 1 1 d . U . . .
O55 O 0.6949(8) 0.3468(9) 0.6621(3) 0.0191(19) Uani 1 1 d . U . . .
O58 O 0.9346(8) 0.5453(8) 0.7797(3) 0.019(2) Uani 1 1 d . U . . .
O57 O 1.0712(8) 0.4714(9) 0.5237(3) 0.020(2) Uani 1 1 d . U . . .
O46 O 0.7137(8) 0.8062(8) 0.7464(3) 0.021(2) Uani 1 1 d . U . . .
O23 O 1.0381(8) 0.6670(9) 0.5382(3) 0.0211(19) Uani 1 1 d . U . . .
O28 O 0.8942(8) 0.5422(8) 0.5519(3) 0.0197(18) Uani 1 1 d . U . . .
O54 O 0.6081(8) 0.4055(8) 0.7098(3) 0.019(2) Uani 1 1 d . U . . .
N65 N 1.2775(10) 0.6473(11) 0.7120(4) 0.024(3) Uani 1 1 d . U . . .
H65A H 1.325789 0.623861 0.697896 0.028 Uiso 1 1 calc R . . . .
H65B H 1.258335 0.702053 0.702132 0.028 Uiso 1 1 calc R . . . .
N64 N 1.1853(10) 0.5494(11) 0.7694(4) 0.022(3) Uani 1 1 d . U . . .
H64A H 1.135717 0.577368 0.781512 0.027 Uiso 1 1 calc R . . . .
H64B H 1.188877 0.489562 0.776928 0.027 Uiso 1 1 calc R . . . .
O53 O 1.0542(9) 0.2578(11) 0.5995(4) 0.036(3) Uani 1 1 d . U . . .
H53A H 1.048709 0.195109 0.608685 0.054 Uiso 1 1 d GR . . . .
H53B H 1.103068 0.281196 0.615817 0.054 Uiso 1 1 d GR . . . .
N66 N 0.8237(12) 0.2242(12) 0.6064(4) 0.032(3) Uani 1 1 d . U . . .
H66A H 0.855768 0.173572 0.614910 0.038 Uiso 1 1 calc R . . . .
H66B H 0.777913 0.240225 0.623041 0.038 Uiso 1 1 calc R . . . .
O36 O 1.0035(8) 0.8937(8) 0.6768(3) 0.0166(19) Uani 1 1 d . U . . .
O27 O 0.6401(8) 0.7358(9) 0.6043(3) 0.0206(19) Uani 1 1 d . U . . .
O24 O 0.7951(8) 0.8525(9) 0.6104(3) 0.0213(18) Uani 1 1 d . U . . .
O42 O 0.5241(7) 0.6315(8) 0.6552(3) 0.014(2) Uani 1 1 d . U . . .
O25 O 0.6921(9) 0.8437(10) 0.5417(3) 0.025(3) Uani 1 1 d . U . . .
O34 O 0.7135(9) 0.4535(9) 0.5355(3) 0.025(3) Uani 1 1 d . U . . .
O38 O 1.1311(8) 0.8229(8) 0.7330(3) 0.019(2) Uani 1 1 d . U . . .
C74 C 0.5221(12) 0.3469(14) 0.6589(4) 0.025(4) Uani 1 1 d . . . . .
N67 N 0.8993(12) 0.3091(11) 0.5434(4) 0.030(3) Uani 1 1 d . U . . .
H67A H 0.863327 0.355212 0.533353 0.036 Uiso 1 1 calc R . . . .
H67B H 0.956967 0.305807 0.531440 0.036 Uiso 1 1 calc R . . . .
N62 N 0.5781(11) 0.6047(12) 0.7368(4) 0.030(3) Uani 1 1 d . U . . .
H62A H 0.585322 0.660829 0.725948 0.036 Uiso 1 1 calc R . . . .
H62B H 0.523761 0.577592 0.727704 0.036 Uiso 1 1 calc R . . . .
C73 C 0.6116(14) 0.3670(13) 0.6782(5) 0.027(4) Uani 1 1 d . . . . .
N63 N 0.6993(12) 0.5010(12) 0.7820(4) 0.032(3) Uani 1 1 d . U . . .
H63A H 0.697300 0.439355 0.786908 0.039 Uiso 0.46(5) 1 calc R . P A 1
H63B H 0.754742 0.524402 0.791680 0.039 Uiso 0.46(5) 1 calc R . P A 1
H63C H 0.665522 0.449050 0.787874 0.039 Uiso 0.54(5) 1 calc R . P A 2
H63D H 0.760857 0.495375 0.790518 0.039 Uiso 0.54(5) 1 calc R . P A 2
C78 C 0.5225(12) 0.3006(15) 0.6239(5) 0.034(5) Uani 1 1 d . . . . .
H78 H 0.582500 0.281131 0.613803 0.040 Uiso 1 1 calc R . . . .
C80 C 1.3398(13) 0.3574(14) 0.6544(5) 0.028(4) Uani 1 1 d . . . . .
C79 C 1.2464(13) 0.3936(12) 0.6703(4) 0.021(4) Uani 1 1 d . U . . .
N72 N 0.4327(14) 0.2319(16) 0.5695(5) 0.056(6) Uani 1 1 d . . . . .
H72A H 0.393849 0.257182 0.551233 0.067 Uiso 1 1 d GR . . . .
H72B H 0.493291 0.232445 0.559576 0.067 Uiso 1 1 d GR . . . .
C83 C 1.3101(14) 0.6019(14) 0.8171(4) 0.028(4) Uani 1 1 d . U . . .
H83A H 1.351946 0.548693 0.822470 0.042 Uiso 1 1 calc GR . . . .
H83B H 1.253207 0.600381 0.833142 0.042 Uiso 1 1 calc GR . . . .
H83C H 1.346254 0.659391 0.821209 0.042 Uiso 1 1 calc GR . . . .
C76 C 0.3431(13) 0.3097(14) 0.6198(5) 0.028(4) Uani 1 1 d . . . . .
H76 H 0.284493 0.295651 0.607398 0.033 Uiso 1 1 calc R . . . .
C77 C 0.4347(12) 0.2834(17) 0.6042(5) 0.036(5) Uani 1 1 d . . . . .
C75 C 0.4304(12) 0.3745(13) 0.6731(4) 0.021(4) Uani 1 1 d . . . . .
H75 H 0.428604 0.405486 0.695858 0.025 Uiso 1 1 calc R . . . .
C86 C 0.7220(16) 0.1079(15) 0.5708(5) 0.038(4) Uani 1 1 d . U . . .
H86A H 0.769585 0.058228 0.574456 0.057 Uiso 1 1 calc GR . . . .
H86B H 0.687328 0.097585 0.547850 0.057 Uiso 1 1 calc GR . . . .
H86C H 0.675632 0.107939 0.591035 0.057 Uiso 1 1 calc GR . . . .
O51 O 0.8258(7) 0.4523(8) 0.7156(3) 0.0152(18) Uani 1 1 d . U . . .
N69 N 0.3020(12) 0.6185(12) 0.5275(4) 0.038(3) Uani 1 1 d D U . . .
H69A H 0.254649 0.613202 0.544580 0.045 Uiso 0.59(3) 1 calc R . P B 1
H69B H 0.273926 0.627288 0.505366 0.045 Uiso 0.59(3) 1 calc R . P B 1
H69C H 0.271013 0.599194 0.547973 0.045 Uiso 0.41(3) 1 calc R . P B 2
H69D H 0.256584 0.637692 0.511220 0.045 Uiso 0.41(3) 1 calc R . P B 2
N70 N 0.2910(12) 0.8144(13) 0.5326(4) 0.038(3) Uani 1 1 d . U . . .
H70A H 0.269145 0.813082 0.509236 0.045 Uiso 1 1 calc R . . . .
H70B H 0.240092 0.802801 0.547660 0.045 Uiso 1 1 calc R . . . .
N71 N 0.4778(12) 0.8201(13) 0.5528(4) 0.041(3) Uani 1 1 d D U . . .
H71A H 0.516779 0.800521 0.571196 0.050 Uiso 1 1 calc R . . . .
H71B H 0.516085 0.834478 0.533436 0.050 Uiso 1 1 calc R . . . .
N68 N 0.4877(12) 0.6261(12) 0.5462(4) 0.040(3) Uani 1 1 d D U . . .
H68A H 0.526498 0.625270 0.526186 0.048 Uiso 0.59(3) 1 calc R . P B 1
H68B H 0.525393 0.642418 0.565484 0.048 Uiso 0.59(3) 1 calc R . P B 1
H68C H 0.535761 0.632302 0.529422 0.048 Uiso 0.41(3) 1 calc R . P B 2
H68D H 0.514342 0.630662 0.568780 0.048 Uiso 0.41(3) 1 calc R . P B 2
C91 C 0.3352(17) 0.9108(18) 0.5413(6) 0.047(4) Uani 1 1 d . U . . .
H91A H 0.351507 0.942778 0.518225 0.056 Uiso 1 1 calc R . . . .
H91B H 0.286537 0.948844 0.554346 0.056 Uiso 1 1 calc R . . . .
C92 C 0.484(2) 0.9888(18) 0.5695(7) 0.067(6) Uani 1 1 d D U . . .
H92A H 0.553149 0.973071 0.569620 0.101 Uiso 1 1 calc GR . . . .
H92B H 0.466436 1.017850 0.592669 0.101 Uiso 1 1 calc GR . . . .
H92C H 0.470635 1.031868 0.549449 0.101 Uiso 1 1 calc GR . . . .
C90 C 0.4251(17) 0.9020(15) 0.5643(7) 0.056(4) Uani 1 1 d D U . . .
H90 H 0.400519 0.886499 0.589217 0.068 Uiso 1 1 calc R . . . .
C81 C 1.3156(14) 0.6639(15) 0.7502(4) 0.034(3) Uani 1 1 d D U . . .
H81A H 1.387279 0.659393 0.749897 0.041 Uiso 1 1 calc R . . . .
H81B H 1.298190 0.727524 0.757846 0.041 Uiso 1 1 calc R . . . .
C82 C 1.2769(14) 0.5974(15) 0.7772(5) 0.037(3) Uani 1 1 d D U . . .
H82 H 1.320146 0.544710 0.770127 0.044 Uiso 1 1 calc R . . . .
C85 C 0.7739(16) 0.2003(16) 0.5694(5) 0.043(4) Uani 1 1 d D U . . .
H85 H 0.721833 0.247899 0.566038 0.052 Uiso 1 1 calc R . . . .
C84 C 0.8478(16) 0.2206(17) 0.5409(5) 0.045(4) Uani 1 1 d D U . . .
H84A H 0.896624 0.170333 0.541371 0.054 Uiso 1 1 calc R . . . .
H84B H 0.815226 0.218059 0.516863 0.054 Uiso 1 1 calc R . . . .
C87 C 0.5680(15) 0.6170(17) 0.7772(5) 0.042(3) Uani 1 1 d . U . . .
H87A H 0.595417 0.678054 0.784014 0.050 Uiso 0.46(5) 1 calc R . P A 1
H87B H 0.498042 0.618006 0.783411 0.050 Uiso 0.46(5) 1 calc R . P A 1
H87C H 0.553256 0.683046 0.782049 0.050 Uiso 0.54(5) 1 calc R . P A 2
H87D H 0.511187 0.580481 0.785404 0.050 Uiso 0.54(5) 1 calc R . P A 2
C88A C 0.614(4) 0.547(5) 0.7987(11) 0.035(4) Uani 0.46(5) 1 d . U P A 1
H88A H 0.564571 0.496786 0.799863 0.042 Uiso 0.46(5) 1 calc R . P A 1
C89 C 0.6254(15) 0.5769(16) 0.8391(5) 0.039(3) Uani 1 1 d . U . . .
H89A H 0.641676 0.522719 0.853919 0.058 Uiso 0.46(5) 1 calc GR . P A 1
H89B H 0.564205 0.603792 0.847687 0.058 Uiso 0.46(5) 1 calc GR . P A 1
H89C H 0.677216 0.623121 0.841103 0.058 Uiso 0.46(5) 1 calc GR . P A 1
H89D H 0.599438 0.514373 0.842643 0.058 Uiso 0.54(5) 1 calc GR . P A 2
H89E H 0.577337 0.622623 0.847139 0.058 Uiso 0.54(5) 1 calc GR . P A 2
H89F H 0.685055 0.584229 0.853291 0.058 Uiso 0.54(5) 1 calc GR . P A 2
C88B C 0.647(4) 0.592(4) 0.7988(10) 0.035(4) Uani 0.54(5) 1 d . U P A 2
H88B H 0.695573 0.643663 0.797315 0.042 Uiso 0.54(5) 1 calc R . P A 2
C94A C 0.450(3) 0.528(2) 0.5527(9) 0.042(4) Uani 0.59(3) 1 d D U P B 1
H94A H 0.497850 0.480111 0.545116 0.050 Uiso 0.59(3) 1 calc R . P B 1
H94B H 0.430582 0.517528 0.578275 0.050 Uiso 0.59(3) 1 calc R . P B 1
C93A C 0.365(2) 0.534(2) 0.5272(10) 0.044(4) Uani 0.59(3) 1 d D U P B 1
H93A H 0.392187 0.529585 0.501960 0.052 Uiso 0.59(3) 1 calc R . P B 1
C95A C 0.298(3) 0.4526(18) 0.5317(10) 0.049(6) Uani 0.59(3) 1 d D U P B 1
H95A H 0.333403 0.401926 0.543578 0.073 Uiso 0.59(3) 1 calc GR . P B 1
H95B H 0.275660 0.432172 0.507668 0.073 Uiso 0.59(3) 1 calc GR . P B 1
H95C H 0.242616 0.470640 0.546632 0.073 Uiso 0.59(3) 1 calc GR . P B 1
C93B C 0.437(4) 0.532(3) 0.5417(9) 0.041(4) Uani 0.41(3) 1 d D U P B 2
H93B H 0.486040 0.484672 0.533975 0.050 Uiso 0.41(3) 1 calc R . P B 2
C95B C 0.406(4) 0.510(3) 0.5801(11) 0.047(6) Uani 0.41(3) 1 d D U P B 2
H95D H 0.433188 0.556891 0.596600 0.070 Uiso 0.41(3) 1 calc GR . P B 2
H95E H 0.429856 0.448794 0.586978 0.070 Uiso 0.41(3) 1 calc GR . P B 2
H95F H 0.335032 0.511378 0.581670 0.070 Uiso 0.41(3) 1 calc GR . P B 2
C94B C 0.360(3) 0.540(3) 0.5116(12) 0.042(4) Uani 0.41(3) 1 d D U P B 2
H94C H 0.388799 0.556214 0.487723 0.050 Uiso 0.41(3) 1 calc R . P B 2
H94D H 0.320680 0.482624 0.509082 0.050 Uiso 0.41(3) 1 calc R . P B 2
loop_
_atom_site_aniso_label
_atom_site_aniso_U_11
_atom_site_aniso_U_22
_atom_site_aniso_U_33
_atom_site_aniso_U_23
_atom_site_aniso_U_13
_atom_site_aniso_U_12
W6 0.0145(3) 0.0143(3) 0.0143(3) -0.0002(3) -0.0016(2) 0.0003(3)
W7 0.0137(3) 0.0163(3) 0.0165(3) -0.0005(3) 0.0008(2) 0.0014(3)
W5 0.0128(3) 0.0200(4) 0.0150(3) 0.0005(3) 0.0008(2) -0.0006(3)
W8 0.0123(3) 0.0203(4) 0.0184(3) 0.0025(3) -0.0020(3) 0.0006(3)
W4 0.0158(3) 0.0171(3) 0.0198(3) 0.0027(3) -0.0024(3) 0.0001(3)
W9 0.0169(3) 0.0236(4) 0.0148(3) 0.0002(3) -0.0033(3) -0.0024(3)
W10 0.0176(3) 0.0254(4) 0.0135(3) -0.0016(3) 0.0018(3) -0.0025(3)
W2 0.0159(3) 0.0241(4) 0.0177(3) 0.0042(3) -0.0049(3) -0.0007(3)
W3 0.0169(3) 0.0252(4) 0.0156(3) 0.0049(3) -0.0003(3) -0.0029(3)
Ni13 0.0139(9) 0.0170(11) 0.0118(8) 0.0004(8) -0.0005(8) -0.0014(8)
Ni15 0.0116(9) 0.0186(11) 0.0152(9) 0.0014(8) -0.0012(8) -0.0013(8)
Ni12 0.0127(9) 0.0181(11) 0.0160(9) -0.0019(8) 0.0002(8) 0.0004(9)
Ni11 0.0148(9) 0.0168(11) 0.0152(9) 0.0003(8) -0.0023(8) 0.0001(9)
Ni16 0.0140(9) 0.0218(12) 0.0168(9) 0.0028(9) 0.0004(8) -0.0007(9)
Ni14 0.0194(10) 0.0217(12) 0.0157(9) -0.0033(9) 0.0015(8) 0.0001(10)
Ni17 0.0178(10) 0.0475(16) 0.0177(9) 0.0037(11) -0.0015(9) -0.0022(12)
P1 0.0109(17) 0.0079(19) 0.0124(16) 0.0005(16) 0.0002(14) 0.0031(15)
O47 0.013(4) 0.021(4) 0.015(4) 0.001(4) 0.003(3) -0.002(4)
O37 0.014(3) 0.016(4) 0.017(3) -0.002(3) 0.001(3) -0.001(3)
O32 0.019(4) 0.020(4) 0.022(4) 0.001(4) -0.001(4) -0.003(4)
O43 0.018(4) 0.019(4) 0.014(3) 0.001(3) -0.003(3) -0.006(3)
O48 0.016(4) 0.022(4) 0.020(3) 0.005(3) -0.004(3) -0.001(4)
O41 0.017(4) 0.020(4) 0.017(3) 0.005(3) -0.003(3) 0.000(4)
O21 0.013(4) 0.021(4) 0.013(3) 0.002(4) -0.001(3) -0.002(4)
O35 0.016(5) 0.022(6) 0.023(5) 0.000(5) 0.000(4) 0.001(5)
O18 0.021(5) 0.034(7) 0.012(4) 0.012(5) -0.006(4) -0.008(5)
O20 0.019(4) 0.023(4) 0.018(3) 0.000(3) 0.002(3) -0.002(4)
O30 0.017(4) 0.020(4) 0.012(3) -0.001(3) 0.000(3) 0.002(3)
O26 0.018(4) 0.025(4) 0.017(3) 0.003(4) -0.008(3) -0.003(4)
O33 0.017(4) 0.023(4) 0.014(3) 0.004(4) -0.002(3) -0.002(4)
O59 0.015(4) 0.016(4) 0.012(3) -0.002(3) -0.005(3) 0.001(4)
O52 0.016(4) 0.020(4) 0.021(4) 0.001(4) -0.004(3) 0.000(4)
O60 0.012(4) 0.015(4) 0.016(3) 0.002(4) 0.001(3) 0.002(4)
O22 0.020(4) 0.026(4) 0.014(3) 0.000(3) -0.007(3) -0.002(4)
O45 0.015(4) 0.015(4) 0.015(3) -0.001(3) -0.004(3) -0.001(3)
O19 0.032(6) 0.018(6) 0.027(5) -0.006(5) -0.006(5) 0.007(5)
O31 0.018(3) 0.022(4) 0.014(3) 0.002(3) -0.002(3) 0.004(3)
O39 0.014(3) 0.016(4) 0.012(3) 0.000(3) 0.002(3) 0.003(3)
O50 0.021(5) 0.022(5) 0.023(4) 0.002(4) 0.004(4) 0.000(5)
O29 0.015(3) 0.019(4) 0.017(3) 0.003(3) -0.005(3) 0.001(3)
O44 0.013(3) 0.020(4) 0.015(3) 0.003(3) -0.001(3) 0.000(3)
O40 0.014(3) 0.020(3) 0.014(3) 0.001(3) -0.003(3) -0.001(3)
O49 0.015(3) 0.019(4) 0.015(3) -0.002(3) -0.002(3) -0.006(3)
O56 0.020(4) 0.024(5) 0.021(4) 0.001(4) -0.001(4) 0.004(4)
O55 0.017(4) 0.020(4) 0.020(4) -0.001(4) -0.002(4) 0.001(4)
O58 0.020(5) 0.024(6) 0.014(5) 0.001(5) 0.001(4) 0.003(5)
O57 0.024(5) 0.021(6) 0.016(5) -0.009(5) -0.001(4) 0.000(5)
O46 0.022(5) 0.021(6) 0.022(5) -0.007(5) 0.007(5) 0.001(5)
O23 0.021(4) 0.024(4) 0.018(4) 0.000(4) 0.003(4) -0.002(4)
O28 0.021(4) 0.024(4) 0.014(3) -0.001(3) -0.001(3) -0.001(4)
O54 0.016(4) 0.016(5) 0.025(5) 0.004(4) 0.002(4) 0.002(4)
N65 0.021(6) 0.026(6) 0.024(5) 0.011(6) -0.005(5) -0.014(5)
N64 0.021(6) 0.026(6) 0.020(5) 0.006(5) -0.002(5) -0.009(5)
O53 0.031(7) 0.040(8) 0.038(6) -0.006(6) -0.001(6) 0.003(6)
N66 0.043(7) 0.037(7) 0.015(5) 0.001(6) 0.001(5) -0.003(6)
O36 0.015(4) 0.019(4) 0.015(3) 0.001(3) -0.003(3) 0.003(4)
O27 0.017(4) 0.024(4) 0.021(4) 0.005(4) -0.003(3) 0.001(4)
O24 0.020(4) 0.023(4) 0.020(3) 0.001(4) -0.006(3) -0.003(4)
O42 0.009(4) 0.015(4) 0.019(4) 0.001(3) 0.000(3) -0.005(3)
O25 0.027(6) 0.027(6) 0.021(5) 0.010(5) -0.005(5) 0.007(6)
O34 0.025(6) 0.028(7) 0.023(5) -0.013(5) -0.005(5) 0.001(5)
O38 0.017(5) 0.026(6) 0.015(5) -0.002(5) -0.007(4) -0.007(5)
C74 0.022(8) 0.025(10) 0.027(8) -0.001(8) 0.009(7) 0.005(8)
N67 0.040(7) 0.033(7) 0.018(5) 0.001(5) -0.004(6) -0.009(6)
N62 0.030(6) 0.039(7) 0.022(5) 0.005(5) 0.003(5) 0.002(6)
C73 0.031(10) 0.023(10) 0.027(8) -0.006(8) -0.005(8) -0.005(9)
N63 0.032(6) 0.043(7) 0.022(5) 0.003(5) 0.005(5) 0.009(6)
C78 0.013(8) 0.063(15) 0.024(8) -0.017(9) -0.001(7) 0.009(9)
C80 0.021(9) 0.023(10) 0.040(10) -0.015(9) 0.004(8) -0.001(8)
C79 0.026(6) 0.022(6) 0.016(5) 0.008(5) 0.000(5) -0.002(5)
N72 0.041(10) 0.095(17) 0.030(8) -0.015(11) 0.011(8) -0.002(12)
C83 0.033(9) 0.037(10) 0.015(7) 0.000(7) -0.002(7) -0.010(8)
C76 0.022(9) 0.037(12) 0.024(8) -0.008(8) -0.014(8) 0.007(8)
C77 0.013(8) 0.062(15) 0.034(9) 0.001(11) 0.010(7) -0.004(9)
C75 0.026(9) 0.027(10) 0.010(6) -0.002(7) 0.000(6) -0.006(8)
C86 0.049(10) 0.035(10) 0.029(8) -0.004(8) -0.001(8) -0.007(9)
O51 0.013(4) 0.017(4) 0.016(4) 0.003(4) -0.002(3) 0.002(4)
N69 0.032(5) 0.058(6) 0.024(5) 0.005(5) -0.002(5) -0.005(5)
N70 0.032(5) 0.057(6) 0.024(5) 0.003(5) 0.000(5) 0.007(5)
N71 0.034(6) 0.057(6) 0.034(5) 0.002(5) 0.000(5) 0.002(6)
N68 0.035(5) 0.059(6) 0.027(5) 0.003(5) 0.000(5) 0.001(5)
C91 0.053(8) 0.053(8) 0.035(7) 0.001(7) -0.009(7) 0.009(7)
C92 0.080(13) 0.073(13) 0.049(10) -0.015(11) 0.000(11) -0.004(12)
C90 0.053(8) 0.064(8) 0.052(7) 0.000(8) -0.002(7) 0.004(7)
C81 0.036(7) 0.043(7) 0.024(6) 0.009(6) -0.010(6) -0.020(7)
C82 0.035(7) 0.048(8) 0.028(6) 0.008(6) -0.012(6) -0.027(7)
C85 0.061(8) 0.043(8) 0.026(6) 0.003(7) -0.001(7) -0.015(7)
C84 0.062(8) 0.042(8) 0.031(6) -0.005(7) -0.003(7) -0.017(7)
C87 0.042(7) 0.051(8) 0.032(6) -0.002(6) 0.002(6) 0.017(7)
C88A 0.035(8) 0.044(8) 0.027(7) 0.000(7) 0.004(7) 0.008(7)
C89 0.038(7) 0.048(8) 0.030(6) -0.003(6) 0.004(6) 0.012(6)
C88B 0.036(8) 0.044(8) 0.025(7) 0.001(7) 0.004(7) 0.011(7)
C94A 0.036(7) 0.063(8) 0.026(7) 0.007(7) 0.000(7) -0.002(7)
C93A 0.038(7) 0.062(8) 0.031(7) 0.003(7) 0.002(7) -0.005(7)
C95A 0.040(10) 0.069(11) 0.037(10) -0.004(10) 0.007(10) -0.001(10)
C93B 0.036(7) 0.062(8) 0.026(7) 0.005(7) -0.001(7) -0.001(7)
C95B 0.035(11) 0.066(11) 0.040(11) 0.004(11) 0.002(10) 0.000(11)
C94B 0.036(7) 0.062(8) 0.028(7) 0.005(7) -0.002(7) -0.004(7)
loop_
_atom_type_symbol
_atom_type_description
_atom_type_scat_dispersion_real
_atom_type_scat_dispersion_imag
_atom_type_scat_source
C C 0.0033 0.0016 'International Tables Vol C Tables 4.2.6.8 and 6.1.1.4'
H H 0.0000 0.0000 'International Tables Vol C Tables 4.2.6.8 and 6.1.1.4'
N N 0.0061 0.0033 'International Tables Vol C Tables 4.2.6.8 and 6.1.1.4'
Ni Ni 0.3393 1.1124 'International Tables Vol C Tables 4.2.6.8 and 6.1.1.4'
O O 0.0106 0.0060 'International Tables Vol C Tables 4.2.6.8 and 6.1.1.4'
P P 0.1023 0.0942 'International Tables Vol C Tables 4.2.6.8 and 6.1.1.4'
W W -0.8490 6.8722 'International Tables Vol C Tables 4.2.6.8 and 6.1.1.4'
loop_
_geom_angle_atom_site_label_1
_geom_angle_atom_site_label_2
_geom_angle_atom_site_label_3
_geom_angle
_geom_angle_site_symmetry_1
_geom_angle_site_symmetry_3
O47 W6 O40 73.9(4) . .
O47 W6 O36 83.4(4) . .
O37 W6 O47 157.1(4) . .
O37 W6 O40 83.7(4) . .
O37 W6 O36 85.7(4) . .
O59 W6 O47 89.4(5) . .
O59 W6 O37 93.4(5) . .
O59 W6 O40 84.9(4) . .
O59 W6 O36 158.3(4) . .
O36 W6 O40 73.4(4) . .
O38 W6 O47 101.8(5) . .
O38 W6 O37 99.7(5) . .
O38 W6 O59 102.9(5) . .
O38 W6 O40 171.2(5) . .
O38 W6 O36 98.6(5) . .
O47 W7 O32 83.0(5) . .
O47 W7 O40 72.6(4) . .
O32 W7 O40 72.2(4) . .
O48 W7 O47 155.9(4) . .
O48 W7 O32 85.9(5) . .
O48 W7 O40 83.7(4) . .
O45 W7 O47 90.3(5) . .
O45 W7 O32 157.1(5) . .
O45 W7 O48 91.7(5) . .
O45 W7 O40 85.0(4) . .
O46 W7 O47 102.2(5) . .
O46 W7 O32 98.9(5) . .
O46 W7 O48 100.6(5) . .
O46 W7 O45 103.9(5) . .
O46 W7 O40 169.9(5) . .
O37 W5 O21 84.8(4) . .
O37 W5 O31 83.0(4) . .
O21 W5 O31 73.7(4) . .
O35 W5 O37 100.7(5) . .
O35 W5 O21 100.0(5) . .
O35 W5 O33 101.6(5) . .
O35 W5 O31 172.5(4) . .
O35 W5 O39 105.5(5) . .
O33 W5 O37 156.7(4) . .
O33 W5 O21 84.9(5) . .
O33 W5 O31 74.1(4) . .
O39 W5 O37 88.7(4) . .
O39 W5 O21 154.4(4) . .
O39 W5 O33 91.6(5) . .
O39 W5 O31 81.0(4) . .
O48 W8 O41 155.2(5) . .
O48 W8 O29 82.7(4) . .
O48 W8 O27 86.6(5) . .
O41 W8 O29 72.7(4) . .
O41 W8 O27 82.7(5) . .
O49 W8 O48 90.8(5) . .
O49 W8 O41 89.5(4) . .
O49 W8 O29 81.5(4) . .
O49 W8 O27 155.0(5) . .
O27 W8 O29 73.5(4) . .
O42 W8 O48 101.4(5) . .
O42 W8 O41 102.6(5) . .
O42 W8 O29 172.5(4) . .
O42 W8 O49 104.5(5) . .
O42 W8 O27 100.3(5) . .
O32 W4 O20 155.1(5) . .
O32 W4 O40 72.3(4) . .
O32 W4 O36 88.7(5) . .
O32 W4 O24 88.2(5) . .
O20 W4 O40 83.1(4) . .
O20 W4 O24 85.6(5) . .
O19 W4 O32 102.6(5) . .
O19 W4 O20 102.3(5) . .
O19 W4 O40 171.1(4) . .
O19 W4 O36 100.2(5) . .
O19 W4 O24 103.2(5) . .
O36 W4 O20 87.5(5) . .
O36 W4 O40 72.8(4) . .
O36 W4 O24 156.5(5) . .
O24 W4 O40 84.1(4) . .
O43 W9 O41 93.2(5) . .
O43 W9 O26 157.0(5) . .
O43 W9 O29 85.6(4) . .
O43 W9 O28 89.8(5) . .
O41 W9 O26 82.8(5) . .
O41 W9 O29 73.5(4) . .
O41 W9 O28 156.2(5) . .
O26 W9 O29 71.6(4) . .
O28 W9 O26 85.2(5) . .
O28 W9 O29 83.2(4) . .
O34 W9 O43 103.2(5) . .
O34 W9 O41 102.0(5) . .
O34 W9 O26 99.8(5) . .
O34 W9 O29 170.6(5) . .
O34 W9 O28 100.2(5) . .
O30 W10 O33 89.3(5) . .
O30 W10 O31 83.5(4) . .
O30 W10 O23 155.4(4) . .
O30 W10 O28 92.5(5) . .
O33 W10 O31 72.4(4) . .
O33 W10 O23 82.0(5) . .
O57 W10 O30 104.8(5) . .
O57 W10 O33 102.7(5) . .
O57 W10 O31 170.5(5) . .
O57 W10 O23 99.5(5) . .
O57 W10 O28 100.7(5) . .
O23 W10 O31 71.9(4) . .
O28 W10 O33 155.2(5) . .
O28 W10 O31 83.2(4) . .
O28 W10 O23 86.1(5) . .
O26 W2 O22 88.1(5) . .
O26 W2 O29 72.6(4) . .
O26 W2 O27 88.8(5) . .
O26 W2 O24 155.5(5) . .
O22 W2 O29 84.8(4) . .
O22 W2 O27 158.0(5) . .
O27 W2 O29 73.5(4) . .
O24 W2 O22 85.2(5) . .
O24 W2 O29 83.3(4) . .
O24 W2 O27 88.7(5) . .
O25 W2 O26 101.3(5) . .
O25 W2 O22 101.1(5) . .
O25 W2 O29 171.5(5) . .
O25 W2 O27 100.9(5) . .
O25 W2 O24 103.1(6) . .
O21 W3 O20 85.6(5) . .
O21 W3 O22 157.3(4) . .
O21 W3 O31 73.6(4) . .
O18 W3 O21 98.6(5) . .
O18 W3 O20 102.2(5) . .
O18 W3 O22 103.7(5) . .
O18 W3 O31 170.8(5) . .
O18 W3 O23 102.4(5) . .
O20 W3 O31 82.4(4) . .
O22 W3 O20 85.6(5) . .
O22 W3 O31 84.6(4) . .
O23 W3 O21 90.5(5) . .
O23 W3 O20 155.4(5) . .
O23 W3 O22 88.9(5) . .
O23 W3 O31 73.2(4) . .
O59 Ni13 O44 88.5(4) . .
O59 Ni13 O58 94.3(4) . .
O60 Ni13 O59 81.5(4) . .
O60 Ni13 O45 173.2(4) . .
O60 Ni13 O44 83.8(4) . .
O60 Ni13 O58 96.7(4) . .
O45 Ni13 O59 98.5(4) . .
O45 Ni13 O44 89.5(4) . .
O45 Ni13 O58 90.1(4) . .
O58 Ni13 O44 177.2(4) . .
O51 Ni13 O59 169.5(4) . .
O51 Ni13 O60 94.7(4) . .
O51 Ni13 O45 84.2(4) . .
O51 Ni13 O44 81.4(4) . .
O51 Ni13 O58 95.8(4) . .
O43 Ni15 Ni16 140.4(3) . .
O43 Ni15 O44 90.4(4) . .
O52 Ni15 Ni16 135.2(3) . .
O52 Ni15 O43 84.5(4) . .
O52 Ni15 O44 83.0(4) . .
O52 Ni15 O49 169.9(5) . .
O52 Ni15 O55 104.0(5) . .
O44 Ni15 Ni16 93.4(3) . .
O49 Ni15 Ni16 43.7(3) . .
O49 Ni15 O43 97.3(4) . .
O49 Ni15 O44 87.1(4) . .
O49 Ni15 O55 85.9(4) . .
O55 Ni15 Ni16 81.7(3) . .
O55 Ni15 O43 90.1(4) . .
O55 Ni15 O44 173.0(4) . .
O51 Ni15 Ni16 41.7(3) . .
O51 Ni15 O43 173.1(5) . .
O51 Ni15 O52 93.7(4) . .
O51 Ni15 O44 82.8(4) . .
O51 Ni15 O49 83.4(4) . .
O51 Ni15 O55 96.8(4) . .
O30 Ni12 Ni11 139.8(3) . .
O30 Ni12 O44 88.5(4) . .
O52 Ni12 Ni11 137.6(3) . .
O52 Ni12 O30 82.4(4) . .
O52 Ni12 O60 94.8(4) . .
O52 Ni12 O39 169.3(4) . .
O52 Ni12 O44 82.6(4) . .
O52 Ni12 O56 100.9(5) . .
O60 Ni12 Ni11 42.9(3) . .
O60 Ni12 O30 171.7(4) . .
O60 Ni12 O44 83.4(4) . .
O60 Ni12 O56 93.3(4) . .
O39 Ni12 Ni11 44.7(3) . .
O39 Ni12 O30 95.3(4) . .
O39 Ni12 O60 85.9(4) . .
O39 Ni12 O44 86.9(4) . .
O39 Ni12 O56 89.7(4) . .
O44 Ni12 Ni11 92.6(3) . .
O56 Ni12 Ni11 82.8(3) . .
O56 Ni12 O30 94.9(4) . .
O56 Ni12 O44 175.4(4) . .
O59 Ni11 Ni12 87.5(3) . .
O60 Ni11 Ni12 43.1(3) . .
O60 Ni11 O59 79.0(4) . .
O60 Ni11 O39 84.1(4) . .
O60 Ni11 N65 178.8(5) . .
O60 Ni11 N64 96.5(5) . .
O39 Ni11 Ni12 42.5(3) . .
O39 Ni11 O59 83.9(4) . .
O50 Ni11 Ni12 78.3(3) . .
O50 Ni11 O59 165.6(4) . .
O50 Ni11 O60 92.1(5) . .
O50 Ni11 O39 83.8(4) . .
O50 Ni11 N65 88.4(6) . .
O50 Ni11 N64 98.9(5) . .
N65 Ni11 Ni12 136.1(4) . .
N65 Ni11 O59 100.3(5) . .
N65 Ni11 O39 94.9(5) . .
N65 Ni11 N64 84.5(5) . .
N64 Ni11 Ni12 138.6(4) . .
N64 Ni11 O59 93.4(5) . .
N64 Ni11 O39 177.2(5) . .
O45 Ni16 Ni15 87.0(3) . .
O49 Ni16 Ni15 43.2(3) . .
O49 Ni16 O45 81.9(4) . .
O49 Ni16 O54 82.4(4) . .
O54 Ni16 Ni15 77.8(3) . .
O54 Ni16 O45 163.4(4) . .
N62 Ni16 Ni15 140.1(4) . .
N62 Ni16 O45 95.7(5) . .
N62 Ni16 O49 97.7(5) . .
N62 Ni16 O54 91.8(6) . .
N63 Ni16 Ni15 136.0(5) . .
N63 Ni16 O45 96.7(6) . .
N63 Ni16 O49 178.3(6) . .
N63 Ni16 O54 98.9(6) . .
N63 Ni16 N62 83.4(6) . .
O51 Ni16 Ni15 41.3(3) . .
O51 Ni16 O45 78.4(4) . .
O51 Ni16 O49 82.4(4) . .
O51 Ni16 O54 94.1(4) . .
O51 Ni16 N62 174.1(6) . .
O51 Ni16 N63 96.4(5) . .
O30 Ni14 O43 83.9(4) . .
O52 Ni14 O43 81.2(4) . .
O52 Ni14 O30 81.0(4) . .
O52 Ni14 O53 92.5(5) . .
O52 Ni14 N66 92.8(5) . .
O52 Ni14 N67 174.5(6) . .
O53 Ni14 O43 166.7(5) . .
O53 Ni14 O30 83.5(5) . .
N66 Ni14 O43 93.0(5) . .
N66 Ni14 O30 173.4(5) . .
N66 Ni14 O53 99.1(6) . .
N66 Ni14 N67 83.8(6) . .
N67 Ni14 O43 94.8(5) . .
N67 Ni14 O30 102.3(5) . .
N67 Ni14 O53 92.2(6) . .
N70 Ni17 N69 93.3(7) . .
N70 Ni17 N68 178.4(8) . .
N71 Ni17 N69 177.6(7) . .
N71 Ni17 N70 88.2(8) . .
N71 Ni17 N68 93.4(7) . .
N68 Ni17 N69 85.2(7) . .
O31 P1 O29 107.9(6) . .
O31 P1 O44 111.2(6) . .
O31 P1 O40 108.2(6) . .
O29 P1 O40 108.4(6) . .
O44 P1 O29 110.9(6) . .
O44 P1 O40 110.2(6) . .
W6 O47 W7 123.0(5) . .
W6 O37 W5 147.5(6) . .
W4 O32 W7 126.4(6) . .
W9 O43 Ni15 132.6(6) . .
W9 O43 Ni14 130.7(6) . .
Ni15 O43 Ni14 93.4(4) . .
W8 O48 W7 148.7(7) . .
W9 O41 W8 125.0(6) . .
W3 O21 W5 123.9(5) . .
W4 O20 W3 151.0(6) . .
W10 O30 Ni12 135.5(6) . .
W10 O30 Ni14 126.9(5) . .
Ni12 O30 Ni14 94.6(4) . .
W2 O26 W9 126.2(5) . .
W5 O33 W10 125.0(6) . .
W6 O59 Ni13 134.1(5) . .
W6 O59 Ni11 124.8(5) . .
Ni13 O59 Ni11 96.7(5) . .
Ni15 O52 Ni14 99.6(5) . .
Ni12 O52 Ni15 102.7(5) . .
Ni12 O52 Ni14 100.1(5) . .
Ni13 O60 Ni12 102.0(4) . .
Ni13 O60 Ni11 102.3(5) . .
Ni11 O60 Ni12 94.1(4) . .
W3 O22 W2 151.1(6) . .
W7 O45 Ni13 134.0(6) . .
W7 O45 Ni16 128.3(5) . .
Ni13 O45 Ni16 93.1(4) . .
W5 O31 W10 88.2(3) . .
W5 O31 W3 88.3(4) . .
W10 O31 W3 88.4(3) . .
P1 O31 W5 126.1(5) . .
P1 O31 W10 125.5(7) . .
P1 O31 W3 127.8(6) . .
W5 O39 Ni12 138.7(6) . .
W5 O39 Ni11 127.9(6) . .
Ni12 O39 Ni11 92.8(4) . .
C79 O50 Ni11 129.7(11) . .
W8 O29 W9 88.2(3) . .
W8 O29 W2 88.9(3) . .
W9 O29 W2 89.4(3) . .
P1 O29 W8 125.6(6) . .
P1 O29 W9 124.6(6) . .
P1 O29 W2 128.0(6) . .
Ni15 O44 Ni13 91.7(4) . .
Ni15 O44 Ni12 91.6(4) . .
Ni12 O44 Ni13 90.8(4) . .
P1 O44 Ni13 124.2(6) . .
P1 O44 Ni15 124.6(6) . .
P1 O44 Ni12 124.0(6) . .
W6 O40 W7 90.2(3) . .
W6 O40 W4 90.0(4) . .
W7 O40 W4 89.1(4) . .
P1 O40 W6 125.6(6) . .
P1 O40 W7 124.3(6) . .
P1 O40 W4 126.4(6) . .
W8 O49 Ni15 137.8(6) . .
W8 O49 Ni16 128.3(6) . .
Ni15 O49 Ni16 93.1(4) . .
C79 O56 Ni12 119.8(11) . .
C73 O55 Ni15 121.4(11) . .
W3 O23 W10 126.2(5) . .
W10 O28 W9 148.7(6) . .
C73 O54 Ni16 123.4(11) . .
C81 N65 Ni11 111.1(10) . .
C82 N64 Ni11 108.5(10) . .
C85 N66 Ni14 110.1(11) . .
W4 O36 W6 123.7(6) . .
W2 O27 W8 124.0(6) . .
W2 O24 W4 152.1(7) . .
C78 C74 C73 121.5(15) . .
C75 C74 C73 121.4(15) . .
C75 C74 C78 117.1(16) . .
C84 N67 Ni14 106.5(11) . .
C87 N62 Ni16 109.6(12) . .
O55 C73 C74 118.3(15) . .
O54 C73 O55 122.0(15) . .
O54 C73 C74 119.6(16) . .
C88A N63 Ni16 110.5(19) . .
C88B N63 Ni16 105.5(16) . .
C77 C78 C74 121.8(16) . .
C76 C80 C79 122.2(16) 1_655 .
C76 C80 C75 118.1(15) 1_655 1_655
C75 C80 C79 119.6(15) 1_655 .
O50 C79 O56 125.4(16) . .
O50 C79 C80 116.6(15) . .
O56 C79 C80 117.8(14) . .
C77 C76 C80 120.3(16) . 1_455
C78 C77 N72 122.8(16) . .
C78 C77 C76 119.5(17) . .
C76 C77 N72 117.5(16) . .
C74 C75 C80 123.1(15) . 1_455
Ni15 O51 Ni13 104.1(5) . .
Ni15 O51 Ni16 97.0(4) . .
Ni16 O51 Ni13 103.3(5) . .
C93A N69 Ni17 105.0(15) . .
C94B N69 Ni17 109(2) . .
C91 N70 Ni17 108.4(13) . .
C90 N71 Ni17 111.2(13) . .
C94A N68 Ni17 116.7(17) . .
C93B N68 Ni17 107(2) . .
C90 C91 N70 111.3(19) . .
N71 C90 C91 108.5(19) . .
N71 C90 C92 116(2) . .
C91 C90 C92 116(2) . .
C82 C81 N65 113.2(15) . .
N64 C82 C83 117.5(14) . .
N64 C82 C81 119.0(15) . .
C81 C82 C83 120.3(16) . .
C86 C85 N66 111.8(16) . .
C84 C85 N66 105.5(16) . .
C84 C85 C86 121.4(19) . .
N67 C84 C85 117.4(18) . .
C88A C87 N62 115(2) . .
C88B C87 N62 117(2) . .
N63 C88A C89 116(3) . .
C87 C88A N63 116(3) . .
C87 C88A C89 112(4) . .
C87 C88B N63 110(3) . .
C87 C88B C89 115(3) . .
C89 C88B N63 110(3) . .
C93A C94A N68 96(2) . .
N69 C93A C94A 120(3) . .
N69 C93A C95A 106(2) . .
C95A C93A C94A 111(3) . .
C95B C93B N68 102(2) . .
C95B C93B C94B 120(4) . .
C94B C93B N68 109(3) . .
N69 C94B C93B 98(3) . .
loop_
_geom_bond_atom_site_label_1
_geom_bond_atom_site_label_2
_geom_bond_distance
_geom_bond_site_symmetry_2
W6 O47 1.944(10) .
W6 O37 1.900(10) .
W6 O59 1.816(11) .
W6 O40 2.391(10) .
W6 O36 2.009(11) .
W6 O38 1.727(10) .
W7 O47 1.951(10) .
W7 O32 1.976(11) .
W7 O48 1.913(11) .
W7 O45 1.809(11) .
W7 O40 2.442(10) .
W7 O46 1.720(10) .
W5 O37 1.935(10) .
W5 O21 1.996(11) .
W5 O35 1.750(11) .
W5 O33 1.891(11) .
W5 O31 2.422(10) .
W5 O39 1.789(10) .
W8 O48 1.902(12) .
W8 O41 1.960(11) .
W8 O29 2.436(10) .
W8 O49 1.809(11) .
W8 O27 1.966(11) .
W8 O42 1.704(10) .
W4 O32 1.899(11) .
W4 O20 1.910(11) .
W4 O19 1.694(12) .
W4 O40 2.487(11) .
W4 O36 1.902(10) .
W4 O24 1.914(11) .
W9 O43 1.799(11) .
W9 O41 1.879(11) .
W9 O26 1.983(12) .
W9 O29 2.455(11) .
W9 O28 1.927(11) .
W9 O34 1.726(11) .
W10 O30 1.814(11) .
W10 O33 1.940(11) .
W10 O31 2.459(11) .
W10 O57 1.713(11) .
W10 O23 2.010(12) .
W10 O28 1.897(11) .
W2 O26 1.897(12) .
W2 O22 1.921(11) .
W2 O29 2.466(10) .
W2 O27 1.924(11) .
W2 O24 1.902(11) .
W2 O25 1.717(11) .
W3 O21 1.887(10) .
W3 O18 1.718(11) .
W3 O20 1.936(11) .
W3 O22 1.895(11) .
W3 O31 2.497(11) .
W3 O23 1.864(12) .
Ni13 O59 2.054(11) .
Ni13 O60 2.000(10) .
Ni13 O45 2.040(11) .
Ni13 O44 2.205(10) .
Ni13 O58 2.088(10) .
Ni13 O51 1.999(11) .
Ni15 Ni16 2.979(3) .
Ni15 O43 2.060(10) .
Ni15 O52 2.008(11) .
Ni15 O44 2.167(11) .
Ni15 O49 2.041(11) .
Ni15 O55 2.043(12) .
Ni15 O51 1.980(10) .
Ni12 Ni11 2.965(3) .
Ni12 O30 2.083(10) .
Ni12 O52 1.996(11) .
Ni12 O60 2.030(10) .
Ni12 O39 2.007(11) .
Ni12 O44 2.193(11) .
Ni12 O56 2.050(11) .
Ni11 O59 2.135(11) .
Ni11 O60 2.022(11) .
Ni11 O39 2.087(10) .
Ni11 O50 2.019(12) .
Ni11 N65 2.058(13) .
Ni11 N64 2.077(13) .
Ni16 O45 2.271(11) .
Ni16 O49 2.061(10) .
Ni16 O54 2.127(12) .
Ni16 N62 2.059(15) .
Ni16 N63 2.048(14) .
Ni16 O51 1.997(10) .
Ni14 O43 2.173(12) .
Ni14 O30 2.112(12) .
Ni14 O52 2.027(11) .
Ni14 O53 2.087(13) .
Ni14 N66 2.063(16) .
Ni14 N67 2.069(14) .
Ni17 N69 1.935(17) .
Ni17 N70 1.889(17) .
Ni17 N71 1.884(18) .
Ni17 N68 1.903(17) .
P1 O31 1.514(11) .
P1 O29 1.537(10) .
P1 O44 1.531(11) .
P1 O40 1.541(11) .
O50 C79 1.25(2) .
O56 C79 1.34(2) .
O55 C73 1.30(2) .
O54 C73 1.26(2) .
N65 C81 1.48(2) .
N64 C82 1.44(2) .
N66 C85 1.53(2) .
C74 C73 1.42(2) .
C74 C78 1.42(2) .
C74 C75 1.39(2) .
N67 C84 1.43(2) .
N62 C87 1.47(2) .
N63 C88A 1.45(4) .
N63 C88B 1.58(5) .
C78 C77 1.40(2) .
C80 C79 1.48(2) .
C80 C76 1.41(2) 1_655
C80 C75 1.42(2) 1_655
N72 C77 1.44(3) .
C83 C82 1.50(2) .
C76 C77 1.41(2) .
C86 C85 1.48(3) .
N69 C93A 1.46(2) .
N69 C94B 1.47(3) .
N70 C91 1.52(3) .
N71 C90 1.42(2) .
N68 C94A 1.49(2) .
N68 C93B 1.51(3) .
C91 C90 1.47(3) .
C92 C90 1.47(2) .
C81 C82 1.449(16) .
C85 C84 1.46(2) .
C87 C88A 1.40(5) .
C87 C88B 1.37(4) .
C88A C89 1.52(5) .
C89 C88B 1.49(4) .
C94A C93A 1.48(2) .
C93A C95A 1.47(2) .
C93B C95B 1.47(3) .
C93B C94B 1.50(3) .
loop_
_smtbx_masks_void_nr
_smtbx_masks_void_average_x
_smtbx_masks_void_average_y
_smtbx_masks_void_average_z
_smtbx_masks_void_volume
_smtbx_masks_void_count_electrons
1 0.259 -0.037 0.114 248.6 84.7
2 0.241 0.037 0.614 248.6 70.8
3 -0.241 0.537 0.886 248.6 72.5
4 -0.259 0.463 0.386 248.6 82.7
loop_
_twin_individual_id
_twin_individual_mass_fraction_refined
1 0.547(12)
2 0.453(12)
